(PID.TID 0000.0001) 
(PID.TID 0000.0001) // ======================================================
(PID.TID 0000.0001) //                      MITgcm UV
(PID.TID 0000.0001) //                      =========
(PID.TID 0000.0001) // ======================================================
(PID.TID 0000.0001) // execution environment starting up...
(PID.TID 0000.0001) 
(PID.TID 0000.0001) // MITgcmUV version:  checkpoint66k
(PID.TID 0000.0001) // Build user:        dmenemen
(PID.TID 0000.0001) // Build host:        r327i0n0
(PID.TID 0000.0001) // Build date:        Mon Oct  9 18:30:31 PDT 2017
(PID.TID 0000.0001) 
(PID.TID 0000.0001) // =======================================================
(PID.TID 0000.0001) // Execution Environment parameter file "eedata"
(PID.TID 0000.0001) // =======================================================
(PID.TID 0000.0001) ># Example "eedata" file
(PID.TID 0000.0001) ># Lines beginning "#" are comments
(PID.TID 0000.0001) ># nTx - No. threads per process in X
(PID.TID 0000.0001) ># nTy - No. threads per process in Y
(PID.TID 0000.0001) > &EEPARMS
(PID.TID 0000.0001) > useCubedSphereExchange=.TRUE.,
(PID.TID 0000.0001) > nTx=1,
(PID.TID 0000.0001) > nTy=1,
(PID.TID 0000.0001) > &
(PID.TID 0000.0001) 
(PID.TID 0000.0001) // =======================================================
(PID.TID 0000.0001) // Computational Grid Specification ( see files "SIZE.h" )
(PID.TID 0000.0001) //                                  ( and "eedata"       )
(PID.TID 0000.0001) // =======================================================
(PID.TID 0000.0001)      nPx =   96 ; /* No. processes in X */
(PID.TID 0000.0001)      nPy =    1 ; /* No. processes in Y */
(PID.TID 0000.0001)      nSx =    1 ; /* No. tiles in X per process */
(PID.TID 0000.0001)      nSy =    1 ; /* No. tiles in Y per process */
(PID.TID 0000.0001)      sNx =   30 ; /* Tile size in X */
(PID.TID 0000.0001)      sNy =   30 ; /* Tile size in Y */
(PID.TID 0000.0001)      OLx =    8 ; /* Tile overlap distance in X */
(PID.TID 0000.0001)      OLy =    8 ; /* Tile overlap distance in Y */
(PID.TID 0000.0001)      nTx =    1 ; /* No. threads in X per process */
(PID.TID 0000.0001)      nTy =    1 ; /* No. threads in Y per process */
(PID.TID 0000.0001)       Nr =   50 ; /* No. levels in the vertical   */
(PID.TID 0000.0001)       Nx = 2880 ; /* Total domain size in X ( = nPx*nSx*sNx ) */
(PID.TID 0000.0001)       Ny =   30 ; /* Total domain size in Y ( = nPy*nSy*sNy ) */
(PID.TID 0000.0001)   nTiles =    1 ; /* Total no. tiles per process ( = nSx*nSy ) */
(PID.TID 0000.0001)   nProcs =   96 ; /* Total no. processes ( = nPx*nPy ) */
(PID.TID 0000.0001) nThreads =    1 ; /* Total no. threads per process ( = nTx*nTy ) */
(PID.TID 0000.0001) usingMPI =    T ; /* Flag used to control whether MPI is in use */
(PID.TID 0000.0001)                   /*  note: To execute a program with MPI calls */
(PID.TID 0000.0001)                   /*  it must be launched appropriately e.g     */
(PID.TID 0000.0001)                   /*  "mpirun -np 64 ......"                    */
(PID.TID 0000.0001) useCoupler=    F ;/* Flag used to control communications with   */
(PID.TID 0000.0001)                   /*  other model components, through a coupler */
(PID.TID 0000.0001) debugMode =    F ; /* print debug msg. (sequence of S/R calls)  */
(PID.TID 0000.0001) printMapIncludesZeros=    F ; /* print zeros in Std.Output maps */
(PID.TID 0000.0001) maxLengthPrt1D=   65 /* maxLength of 1D array printed to StdOut */
(PID.TID 0000.0001) 
(PID.TID 0000.0001) ======= Starting MPI parallel Run =========
(PID.TID 0000.0001)  My Processor Name (len:  8 ) = r327i0n2
(PID.TID 0000.0001)  Located at (  0,  0) on processor grid (0: 95,0:  0)
(PID.TID 0000.0001)  Origin at  (     1,     1) on global grid (1:  2880,1:    30)
(PID.TID 0000.0001)  North neighbor = processor 0000
(PID.TID 0000.0001)  South neighbor = processor 0000
(PID.TID 0000.0001)   East neighbor = processor 0001
(PID.TID 0000.0001)   West neighbor = processor 0095
(PID.TID 0000.0001) // ======================================================
(PID.TID 0000.0001) // Mapping of tiles to threads
(PID.TID 0000.0001) // ======================================================
(PID.TID 0000.0001) // -o- Thread   1, tiles (   1:   1,   1:   1)
(PID.TID 0000.0001) 
(PID.TID 0000.0001) W2_READPARMS: opening data.exch2
(PID.TID 0000.0001)  OPEN_COPY_DATA_FILE: opening file data.exch2
(PID.TID 0000.0001) // =======================================================
(PID.TID 0000.0001) // Parameter file "data.exch2"
(PID.TID 0000.0001) // =======================================================
(PID.TID 0000.0001) ># EXCH2 Package: Wrapper-2 User Choice
(PID.TID 0000.0001) >#--------------------
(PID.TID 0000.0001) >#  preDefTopol   :: pre-defined Topology selector:
(PID.TID 0000.0001) >#                :: = 0 : topology defined from processing "data.exch2";
(PID.TID 0000.0001) >#                :: = 1 : simple, single facet topology;
(PID.TID 0000.0001) >#                :: = 2 : customized topology (w2_set_myown_facets)
(PID.TID 0000.0001) >#                :: = 3 : 6-facet Cube (3 face-dims: nRed, nGreen, nBlue).
(PID.TID 0000.0001) >#  dimsFacets    :: facet pair of dimensions (n1x,n1y, n2x,n2y ...)
(PID.TID 0000.0001) >#  facetEdgeLink :: Face-Edge connectivity map:
(PID.TID 0000.0001) >#    facetEdgeLink(i,j)=XX.1 : face(j)-edge(i) (i=1,2,3,4 <==> N,S,E,W)
(PID.TID 0000.0001) >#    is connected to Northern edge of face "XX" ; similarly,
(PID.TID 0000.0001) >#    = XX.2 : to Southern.E, XX.3 = Eastern.E, XX.4 = Western.E of face "XX"
(PID.TID 0000.0001) >#  blankList     :: List of "blank" tiles
(PID.TID 0000.0001) >#  W2_mapIO      :: global map IO selector (-1 = old type ; 0 = 1 long line in X
(PID.TID 0000.0001) >#                :: 1 = compact, mostly in Y dir)
(PID.TID 0000.0001) >#  W2_printMsg   :: option for information messages printing
(PID.TID 0000.0001) >#                :: <0 : write to log file ; =0 : minimum print ;
(PID.TID 0000.0001) >#                :: =1 : no duplicated print ; =2 : all processes do print
(PID.TID 0000.0001) >#--------------------
(PID.TID 0000.0001) > &W2_EXCH2_PARM01
(PID.TID 0000.0001) >  W2_printMsg= 0,
(PID.TID 0000.0001) >  W2_mapIO   = 1,
(PID.TID 0000.0001) >#
(PID.TID 0000.0001) >  preDefTopol=0,
(PID.TID 0000.0001) >#-- 5 facets llc_120 topology (drop facet 6 and its connection):
(PID.TID 0000.0001) >  dimsFacets(1:10) = 90, 270, 90, 270, 90, 90, 270, 90, 270, 90,
(PID.TID 0000.0001) >  facetEdgeLink(1:4,1)= 3.4, 0. , 2.4, 5.1,
(PID.TID 0000.0001) >  facetEdgeLink(1:4,2)= 3.2, 0. , 4.2, 1.3,
(PID.TID 0000.0001) >  facetEdgeLink(1:4,3)= 5.4, 2.1, 4.4, 1.1,
(PID.TID 0000.0001) >  facetEdgeLink(1:4,4)= 5.2, 2.3, 0. , 3.3,
(PID.TID 0000.0001) >  facetEdgeLink(1:4,5)= 1.4, 4.1, 0. , 3.1,
(PID.TID 0000.0001) >#-- full 6 facets llc_120 topology (equivalent to default preDefTopol=3):
(PID.TID 0000.0001) ># dimsFacets(1:12) = 120, 360, 120, 360, 120, 120, 360, 120, 360, 120, 120, 120,
(PID.TID 0000.0001) ># facetEdgeLink(1:4,1)= 3.4, 6.1, 2.4, 5.1,
(PID.TID 0000.0001) ># facetEdgeLink(1:4,2)= 3.2, 6.3, 4.2, 1.3,
(PID.TID 0000.0001) ># facetEdgeLink(1:4,3)= 5.4, 2.1, 4.4, 1.1,
(PID.TID 0000.0001) ># facetEdgeLink(1:4,4)= 5.2, 2.3, 6.2, 3.3,
(PID.TID 0000.0001) ># facetEdgeLink(1:4,5)= 1.4, 4.1, 6.4, 3.1,
(PID.TID 0000.0001) ># facetEdgeLink(1:4,6)= 1.2, 4.3, 2.2, 5.3,
(PID.TID 0000.0001) >#
(PID.TID 0000.0001) >#90x30   nprocs = 36
(PID.TID 0000.0001) ># blankList(1:3)=1,10,11,
(PID.TID 0000.0001) >#30x90
(PID.TID 0000.0001) >#
(PID.TID 0000.0001) >#45x30   nprocs = 72
(PID.TID 0000.0001) ># blankList(1:6)=1,2,19,20,21,22
(PID.TID 0000.0001) >#30x45   nprocs = 68
(PID.TID 0000.0001) ># blankList(1:10)=2,3,19,20,21,35,51,60,69,78
(PID.TID 0000.0001) >#45x45   nprocs = 48
(PID.TID 0000.0001) ># blankList(1:4)=2,13,14,23
(PID.TID 0000.0001) >#30x30   nprocs = 96
(PID.TID 0000.0001) >  blankList(1:21)=1,2,3,5,6,28,29,30,31,32,33,49,50,52,53,72,81,90,99,108,117
(PID.TID 0000.0001) >#30x30   nprocs = 112
(PID.TID 0000.0001) ># blankList(1:5)=2,3,28,29,30
(PID.TID 0000.0001) >#15x30   nprocs = 192
(PID.TID 0000.0001) ># blankList(1:42)=1,2,3,4,5,6,9,10,11,12,55,56,57,58,59,60,61,62,63,64,65,66,
(PID.TID 0000.0001) >#            97,98,99,100,103,104,105,106,143,144,
(PID.TID 0000.0001) >#            161,162,179,180,197,198,215,216,233,234
(PID.TID 0000.0001) >#15x15   nprocs = 360
(PID.TID 0000.0001) ># blankList(1:108)=1,2,3,4,5,6,7,8,9,10,11,12,14,15,16,17,18,21,22,23,24,
(PID.TID 0000.0001) >#  65,71,75,76,90,95,96,101,102,109,110,111,112,113,114,115,116,117,118,119,
(PID.TID 0000.0001) >#  120,121,122,123,124,125,126,127,128,129,130,131,132,
(PID.TID 0000.0001) >#  188,189,190,193,194,195,196,199,
(PID.TID 0000.0001) >#  200,201,202,203,205,206,207,208,209,211,212,213,214,215,216,242,247,253,
(PID.TID 0000.0001) >#  267,268,269,270,287,288,305,306,323,324,341,342,359,360,362,376,377,378,
(PID.TID 0000.0001) >#  380,381,382,395,396,400,412,413,414,430,
(PID.TID 0000.0001) >#note: it seems that 8 of the followig 9 tiles could be added to 15x15 blank
(PID.TID 0000.0001) >#  list to reach 352=22*16 cores : 431 432 440 441 448 449 450 467 468
(PID.TID 0000.0001) > &
(PID.TID 0000.0001) 
(PID.TID 0000.0001) W2_READPARMS: finished reading data.exch2
(PID.TID 0000.0001) W2_useE2ioLayOut=    T ;/* T: use Exch2 glob IO map; F: use model default */
(PID.TID 0000.0001) W2_mapIO        =   1 ; /* select option for Exch2 global-IO map */
(PID.TID 0000.0001) W2_printMsg     =   0 ; /* select option for printing information */
(PID.TID 0000.0001) ===== Start setting W2 TOPOLOGY:
(PID.TID 0000.0001) W2_E2SETUP: number of Active Tiles =      96
(PID.TID 0000.0001) W2_E2SETUP: number of Blank Tiles  =      21
(PID.TID 0000.0001) W2_E2SETUP: Total number of Tiles  =     117
(PID.TID 0000.0001) W2_SET_GEN_FACETS: preDefTopol=  0 selected
(PID.TID 0000.0001) W2_SET_GEN_FACETS: Number of facets =  5 (inferred from "dimsFacets")
(PID.TID 0000.0001) W2_E2SETUP: Total number of Facets =       5
(PID.TID 0000.0001) W2_SET_F2F_INDEX: index matrix for connected Facet-Edges:
(PID.TID 0000.0001) ** WARNING ** S.Edge of facet #  1 disconnected (facet_link=  0.00)
(PID.TID 0000.0001) ** WARNING ** S.Edge of facet #  2 disconnected (facet_link=  0.00)
(PID.TID 0000.0001) ** WARNING ** E.Edge of facet #  4 disconnected (facet_link=  0.00)
(PID.TID 0000.0001) ** WARNING ** E.Edge of facet #  5 disconnected (facet_link=  0.00)
(PID.TID 0000.0001) W2_SET_MAP_TILES: tile mapping within facet and global Map:
(PID.TID 0000.0001)  W2_mapIO =   90 (=    3*sNx)
(PID.TID 0000.0001)  Global Map (IO): X-size=      90 , Y-size=    1170
(PID.TID 0000.0001) W2_SET_MAP_TILES: tile offset within facet and global Map:
- facet  1 : X-size=    90 , Y-size=   270 ;   27 tiles (Tx,Ty=   3,   9)
- facet  2 : X-size=    90 , Y-size=   270 ;   27 tiles (Tx,Ty=   3,   9)
- facet  3 : X-size=    90 , Y-size=    90 ;    9 tiles (Tx,Ty=   3,   3)
- facet  4 : X-size=   270 , Y-size=    90 ;   27 tiles (Tx,Ty=   9,   3)
- facet  5 : X-size=   270 , Y-size=    90 ;   27 tiles (Tx,Ty=   9,   3)
(PID.TID 0000.0001) W2_SET_MAP_CUMSUM: setting Facet Matrix for CUMUL-SUM
(PID.TID 0000.0001) W2_SET_MAP_CUMSUM: set    4 /   5 active facets (pass,type=   1, 1)
 Facet Matrix for CUMUL-SUM (nFacets=   5, nActive=   5 ):
- facet  1 :  0  0 ,  0  0 ,  0  0 ,  0  0 ,  0  0 ,
- facet  2 :  1  0 ,  0  0 ,  0  0 ,  0  0 ,  0  0 ,
- facet  3 :  1  0 ,  0  1 ,  0  0 ,  0  0 ,  0  0 ,
- facet  4 :  1  0 ,  0  1 ,  1  0 ,  0  0 ,  0  0 ,
- facet  5 :  1  0 ,  0  1 ,  1  0 ,  0  1 ,  0  0 ,
 missing-corner Tile for CUMUL-SUM (nTiles=   117 ): W2_tMC1=    25 , W2_tMC2=     0
(PID.TID 0000.0001) W2_SET_MAP_CUMSUM: done (skip Tile Matrix setting)
(PID.TID 0000.0001) W2_SET_TILE2TILES: tile neighbours and index connection:
(PID.TID 0000.0001) current Max.Nb.Neighbours (e.g., on tile    7 ) =  4
(PID.TID 0000.0001) ===== W2 TILE TOPOLOGY =====
(PID.TID 0000.0001)  TILE:     4 (bi,bj=   1   1 ), Nb of Neighbours =  2
(PID.TID 0000.0001)     NEIGHBOUR  1 = TILE    7 (n=  2) Comm = MSG (PROC=    2)
(PID.TID 0000.0001)     NEIGHBOUR  2 = TILE  116 (n=  1) Comm = MSG (PROC=   96)
(PID.TID 0000.0001) =====       setting W2 TOPOLOGY: Done
(PID.TID 0000.0001) 
(PID.TID 0000.0001)  INI_PARMS: opening model parameter file "data"
(PID.TID 0000.0001)  OPEN_COPY_DATA_FILE: opening file data
(PID.TID 0000.0001) // =======================================================
(PID.TID 0000.0001) // Parameter file "data"
(PID.TID 0000.0001) // =======================================================
(PID.TID 0000.0001) ># ====================
(PID.TID 0000.0001) ># | Model parameters |
(PID.TID 0000.0001) ># ====================
(PID.TID 0000.0001) >#
(PID.TID 0000.0001) ># Continuous equation parameters
(PID.TID 0000.0001) > &PARM01
(PID.TID 0000.0001) > tRef               = 3*23.,3*22.,21.,2*20.,19.,2*18.,17.,2*16.,15.,14.,13.,
(PID.TID 0000.0001) >                      12.,11.,2*9.,8.,7.,2*6.,2*5.,3*4.,3*3.,4*2.,12*1.,
(PID.TID 0000.0001) > sRef               = 50*34.5,
(PID.TID 0000.0001) > viscAr= 5.6614e-04,
(PID.TID 0000.0001) > no_slip_sides = .TRUE.,
(PID.TID 0000.0001) > no_slip_bottom = .TRUE.,
(PID.TID 0000.0001) > diffKrT=5.44e-7,
(PID.TID 0000.0001) > diffKrS=5.44e-7,
(PID.TID 0000.0001) > rhonil=1027.5,
(PID.TID 0000.0001) > rhoConstFresh=999.8,
(PID.TID 0000.0001) > eosType='JMD95Z',
(PID.TID 0000.0001) > hFacMin=0.3,
(PID.TID 0000.0001) > hFacInf=0.1,
(PID.TID 0000.0001) > hFacSup=5.,
(PID.TID 0000.0001) > implicitDiffusion=.TRUE.,
(PID.TID 0000.0001) > implicitViscosity=.TRUE.,
(PID.TID 0000.0001) > viscC4Leith=2.15,
(PID.TID 0000.0001) > viscC4Leithd=2.15,
(PID.TID 0000.0001) > viscA4GridMax=0.8,
(PID.TID 0000.0001) > useAreaViscLength=.TRUE.,
(PID.TID 0000.0001) > highOrderVorticity  = .TRUE.,
(PID.TID 0000.0001) > bottomDragQuadratic = 0.0021,
(PID.TID 0000.0001) > tempAdvScheme=7,
(PID.TID 0000.0001) > saltAdvScheme=7,
(PID.TID 0000.0001) > StaggerTimeStep=.TRUE.,
(PID.TID 0000.0001) > multiDimAdvection=.TRUE.,
(PID.TID 0000.0001) > vectorInvariantMomentum=.TRUE.,
(PID.TID 0000.0001) > implicitFreeSurface=.TRUE.,
(PID.TID 0000.0001) > exactConserv=.TRUE.,
(PID.TID 0000.0001) ># debuglevel=-1,
(PID.TID 0000.0001) > convertFW2Salt=-1.,
(PID.TID 0000.0001) > useRealFreshWaterFlux=.TRUE.,
(PID.TID 0000.0001) > useSingleCPUio=.FALSE.,
(PID.TID 0000.0001) > useSingleCpuInput=.TRUE.,
(PID.TID 0000.0001) > globalFiles=.TRUE.,
(PID.TID 0000.0001) > readBinaryPrec=32,
(PID.TID 0000.0001) > writeBinaryPrec=32,
(PID.TID 0000.0001) > temp_EvPrRn=0.,
(PID.TID 0000.0001) > implicSurfPress = 0.6,
(PID.TID 0000.0001) > implicDiv2DFlow = 0.6,
(PID.TID 0000.0001) > /
(PID.TID 0000.0001) >
(PID.TID 0000.0001) ># Elliptic solver parameters
(PID.TID 0000.0001) > &PARM02
(PID.TID 0000.0001) > cg2dMaxIters = 100,
(PID.TID 0000.0001) > cg2dTargetResidual = 1.E-5,
(PID.TID 0000.0001) > &
(PID.TID 0000.0001) >
(PID.TID 0000.0001) ># Time stepping parameters
(PID.TID 0000.0001) > &PARM03
(PID.TID 0000.0001) > nIter0=1,
(PID.TID 0000.0001) >  nTimeSteps       = 96,
(PID.TID 0000.0001) > deltaT=900.,
(PID.TID 0000.0001) > abEps = 0.1,
(PID.TID 0000.0001) > forcing_In_AB=.FALSE.,
(PID.TID 0000.0001) > momDissip_In_AB=.FALSE.,
(PID.TID 0000.0001) >  chkptFreq        = 86400.0,
(PID.TID 0000.0001) > dumpfreq = 3600.,
(PID.TID 0000.0001) > dumpInitAndLast=.FALSE.,
(PID.TID 0000.0001) > monitorFreq = 7200.0,
(PID.TID 0000.0001) > &
(PID.TID 0000.0001) >
(PID.TID 0000.0001) ># Gridding parameters
(PID.TID 0000.0001) > &PARM04
(PID.TID 0000.0001) > usingCurvilinearGrid=.TRUE.,
(PID.TID 0000.0001) > delR =
(PID.TID 0000.0001) >     10.00, 10.00, 10.00, 10.00, 10.00, 10.00, 10.00, 10.01,
(PID.TID 0000.0001) >     10.03, 10.11, 10.32, 10.80, 11.76, 13.42, 16.04, 19.82, 24.85,
(PID.TID 0000.0001) >     31.10, 38.42, 46.50, 55.00, 63.50, 71.58, 78.90, 85.15, 90.18,
(PID.TID 0000.0001) >     93.96, 96.58, 98.25, 99.25,100.01,101.33,104.56,111.33,122.83,
(PID.TID 0000.0001) >     139.09,158.94,180.83,203.55,226.50,249.50,272.50,295.50,318.50,
(PID.TID 0000.0001) >     341.50,364.50,387.50,410.50,433.50,456.50,
(PID.TID 0000.0001) > &
(PID.TID 0000.0001) >
(PID.TID 0000.0001) ># Input datasets
(PID.TID 0000.0001) > &PARM05
(PID.TID 0000.0001) > bathyFile      ='bathy.bin',
(PID.TID 0000.0001) > &
(PID.TID 0000.0001) 
(PID.TID 0000.0001)  INI_PARMS ; starts to read PARM01
(PID.TID 0000.0001)  INI_PARMS ; read PARM01 : OK
(PID.TID 0000.0001)  INI_PARMS ; starts to read PARM02
(PID.TID 0000.0001)  INI_PARMS ; read PARM02 : OK
(PID.TID 0000.0001)  INI_PARMS ; starts to read PARM03
(PID.TID 0000.0001)  INI_PARMS ; read PARM03 : OK
(PID.TID 0000.0001)  INI_PARMS ; starts to read PARM04
(PID.TID 0000.0001)  INI_PARMS ; read PARM04 : OK
(PID.TID 0000.0001)  INI_PARMS ; starts to read PARM05
(PID.TID 0000.0001)  INI_PARMS ; read PARM05 : OK
(PID.TID 0000.0001)  INI_PARMS: finished reading file "data"
(PID.TID 0000.0001)  PACKAGES_BOOT: opening data.pkg
(PID.TID 0000.0001)  OPEN_COPY_DATA_FILE: opening file data.pkg
(PID.TID 0000.0001) // =======================================================
(PID.TID 0000.0001) // Parameter file "data.pkg"
(PID.TID 0000.0001) // =======================================================
(PID.TID 0000.0001) ># Packages
(PID.TID 0000.0001) > &PACKAGES
(PID.TID 0000.0001) > useKPP         = .TRUE.,
(PID.TID 0000.0001) > useFRAZIL      = .TRUE.,
(PID.TID 0000.0001) > /
(PID.TID 0000.0001) 
(PID.TID 0000.0001)  PACKAGES_BOOT: finished reading data.pkg
(PID.TID 0000.0001)  PACKAGES_BOOT: On/Off package Summary
 --------  pkgs with a standard "usePKG" On/Off switch in "data.pkg":  --------
 pkg/kpp                  compiled   and   used ( useKPP                   = T )
 pkg/frazil               compiled   and   used ( useFRAZIL                = T )
 -------- pkgs without standard "usePKG" On/Off switch in "data.pkg":  --------
 pkg/generic_advdiff      compiled   and   used ( useGAD                   = T )
 pkg/mom_common           compiled   and   used ( momStepping              = T )
 pkg/mom_vecinv           compiled   and   used ( +vectorInvariantMomentum = T )
 pkg/mom_fluxform         compiled but not used ( & not vectorInvariantMom = F )
 pkg/monitor              compiled   and   used ( monitorFreq > 0.         = T )
 pkg/debug                compiled but not used ( debugMode                = F )
 pkg/exch2                compiled   and   used
 pkg/rw                   compiled   and   used
 pkg/mdsio                compiled   and   used
(PID.TID 0000.0001)  PACKAGES_BOOT: End of package Summary
(PID.TID 0000.0001) 
(PID.TID 0000.0001)  KPP_INIT: opening data.kpp
(PID.TID 0000.0001)  OPEN_COPY_DATA_FILE: opening file data.kpp
(PID.TID 0000.0001) // =======================================================
(PID.TID 0000.0001) // Parameter file "data.kpp"
(PID.TID 0000.0001) // =======================================================
(PID.TID 0000.0001) ># KPP parameters
(PID.TID 0000.0001) > &KPP_PARM01
(PID.TID 0000.0001) > KPPmixingMaps   = .FALSE.,
(PID.TID 0000.0001) > KPPwriteState   = .FALSE.,
(PID.TID 0000.0001) > kpp_dumpFreq    = 0.,
(PID.TID 0000.0001) > kpp_tavefreq    = 0.,
(PID.TID 0000.0001) > Ricr            = 0.3559,
(PID.TID 0000.0001) > Riinfty         = 0.6998,
(PID.TID 0000.0001) > &
(PID.TID 0000.0001) 
(PID.TID 0000.0001)  KPP_INIT: finished reading data.kpp
(PID.TID 0000.0001) SET_PARMS: done
(PID.TID 0000.0001) Enter INI_VERTICAL_GRID: setInterFDr=    T ; setCenterDr=    F
(PID.TID 0000.0001) tile:   4 ; Read from file tile001.mitgrid
(PID.TID 0000.0001)   => xC yC dxF dyF rA xG yG dxV dyU rAz dxC dyC rAw rAs dxG dyG
(PID.TID 0000.0001) %MON XC_max                       =   1.7997758946678E+02
(PID.TID 0000.0001) %MON XC_min                       =  -1.7998895680928E+02
(PID.TID 0000.0001) %MON XC_mean                      =  -6.8997670631350E+00
(PID.TID 0000.0001) %MON XC_sd                        =   1.0548127462941E+02
(PID.TID 0000.0001) %MON XG_max                       =   1.8000000000000E+02
(PID.TID 0000.0001) %MON XG_min                       =  -1.7999919444240E+02
(PID.TID 0000.0001) %MON XG_mean                      =  -6.3521159278861E+00
(PID.TID 0000.0001) %MON XG_sd                        =   1.0549598176576E+02
(PID.TID 0000.0001) %MON DXC_max                      =   1.1117680031365E+05
(PID.TID 0000.0001) %MON DXC_min                      =   1.3362789164732E+04
(PID.TID 0000.0001) %MON DXC_mean                     =   7.1345115143606E+04
(PID.TID 0000.0001) %MON DXC_sd                       =   2.6107013089865E+04
(PID.TID 0000.0001) %MON DXF_max                      =   1.1117680031365E+05
(PID.TID 0000.0001) %MON DXF_min                      =   1.3491575949394E+04
(PID.TID 0000.0001) %MON DXF_mean                     =   7.1334806791260E+04
(PID.TID 0000.0001) %MON DXF_sd                       =   2.6121349328995E+04
(PID.TID 0000.0001) %MON DXG_max                      =   1.1117747335204E+05
(PID.TID 0000.0001) %MON DXG_min                      =   1.0930409249570E+04
(PID.TID 0000.0001) %MON DXG_mean                     =   7.1313583950284E+04
(PID.TID 0000.0001) %MON DXG_sd                       =   2.6131714747840E+04
(PID.TID 0000.0001) %MON DXV_max                      =   1.1117747335204E+05
(PID.TID 0000.0001) %MON DXV_min                      =   9.4742518926426E+03
(PID.TID 0000.0001) %MON DXV_mean                     =   7.1323777998314E+04
(PID.TID 0000.0001) %MON DXV_sd                       =   2.6117603792432E+04
(PID.TID 0000.0001) %MON YC_max                       =   8.9739397429324E+01
(PID.TID 0000.0001) %MON YC_min                       =  -8.1637173529390E+01
(PID.TID 0000.0001) %MON YC_mean                      =  -5.9338515025079E-01
(PID.TID 0000.0001) %MON YC_sd                        =   5.1058908630085E+01
(PID.TID 0000.0001) %MON YG_max                       =   9.0000000000000E+01
(PID.TID 0000.0001) %MON YG_min                       =  -8.1805478609906E+01
(PID.TID 0000.0001) %MON YG_mean                      =  -5.7357831765458E-01
(PID.TID 0000.0001) %MON YG_sd                        =   5.1060174609345E+01
(PID.TID 0000.0001) %MON DYC_max                      =   1.1117680031365E+05
(PID.TID 0000.0001) %MON DYC_min                      =   1.3362789164732E+04
(PID.TID 0000.0001) %MON DYC_mean                     =   7.0982792089666E+04
(PID.TID 0000.0001) %MON DYC_sd                       =   2.6607387075348E+04
(PID.TID 0000.0001) %MON DYF_max                      =   1.1117680031365E+05
(PID.TID 0000.0001) %MON DYF_min                      =   1.3491575949394E+04
(PID.TID 0000.0001) %MON DYF_mean                     =   7.1000127494934E+04
(PID.TID 0000.0001) %MON DYF_sd                       =   2.6603606017547E+04
(PID.TID 0000.0001) %MON DYG_max                      =   1.1117747335204E+05
(PID.TID 0000.0001) %MON DYG_min                      =   1.0930409249570E+04
(PID.TID 0000.0001) %MON DYG_mean                     =   7.1022116512585E+04
(PID.TID 0000.0001) %MON DYG_sd                       =   2.6571715830406E+04
(PID.TID 0000.0001) %MON DYU_max                      =   1.1117747335204E+05
(PID.TID 0000.0001) %MON DYU_min                      =   9.4742518926426E+03
(PID.TID 0000.0001) %MON DYU_mean                     =   7.1004694583927E+04
(PID.TID 0000.0001) %MON DYU_sd                       =   2.6575655787476E+04
(PID.TID 0000.0001) %MON RA_max                       =   1.1896090857160E+10
(PID.TID 0000.0001) %MON RA_min                       =   2.1263387742345E+08
(PID.TID 0000.0001) %MON RA_mean                      =   5.6344293572480E+09
(PID.TID 0000.0001) %MON RA_sd                        =   3.5929461176606E+09
(PID.TID 0000.0001) %MON RAW_max                      =   1.1896090856781E+10
(PID.TID 0000.0001) %MON RAW_min                      =   1.7369571508711E+08
(PID.TID 0000.0001) %MON RAW_mean                     =   5.6355850434318E+09
(PID.TID 0000.0001) %MON RAW_sd                       =   3.5915487677190E+09
(PID.TID 0000.0001) %MON RAS_max                      =   1.1896090856781E+10
(PID.TID 0000.0001) %MON RAS_min                      =   1.7369571508711E+08
(PID.TID 0000.0001) %MON RAS_mean                     =   5.6320332286162E+09
(PID.TID 0000.0001) %MON RAS_sd                       =   3.5937184228135E+09
(PID.TID 0000.0001) %MON RAZ_max                      =   1.1891903479271E+10
(PID.TID 0000.0001) %MON RAZ_min                      =   1.0413402423292E+08
(PID.TID 0000.0001) %MON RAZ_mean                     =   5.6331824674695E+09
(PID.TID 0000.0001) %MON RAZ_sd                       =   3.5923307220197E+09
(PID.TID 0000.0001) %MON AngleCS_max                  =   1.0000000000000E+00
(PID.TID 0000.0001) %MON AngleCS_min                  =  -9.9996641938864E-01
(PID.TID 0000.0001) %MON AngleCS_mean                 =   4.0572930529500E-01
(PID.TID 0000.0001) %MON AngleCS_sd                   =   5.3874397836718E-01
(PID.TID 0000.0001) %MON AngleSN_max                  =   9.9996641938864E-01
(PID.TID 0000.0001) %MON AngleSN_min                  =  -1.0000000000000E+00
(PID.TID 0000.0001) %MON AngleSN_mean                 =  -4.9986154624599E-01
(PID.TID 0000.0001) %MON AngleSN_sd                   =   5.4339404779819E-01
(PID.TID 0000.0001)  MDS_READ_FIELD: opening global file: bathy.bin
(PID.TID 0000.0001) // =======================================================
(PID.TID 0000.0001) // Field Model R_low (ini_masks_etc)
(PID.TID 0000.0001) // CMIN =         -4.957150000000000E+03
(PID.TID 0000.0001) // CMAX =         -1.998999977111816E+01
(PID.TID 0000.0001) // CINT =          1.828577777862549E+02
(PID.TID 0000.0001) // SYMBOLS (CMIN->CMAX): -abcdefghijklmnopqrstuvwxyz+
(PID.TID 0000.0001) //                  0.0: .
(PID.TID 0000.0001) // RANGE I (Lo:Hi:Step):(    -7:    38:     1)
(PID.TID 0000.0001) // RANGE J (Lo:Hi:Step):(    38:    -7:    -1)
(PID.TID 0000.0001) // RANGE K (Lo:Hi:Step):(   1:   1:   1)
(PID.TID 0000.0001) // =======================================================
(PID.TID 0000.0001) K =   1
(PID.TID 0000.0001) //                I=2       I=12      I=22      I=32
(PID.TID 0000.0001) // |--J--|765432101|345678901|345678901|345678901|345678
(PID.TID 0000.0001) //     38 eeedddcccbbbbbbbbaaaaaaaa--aaaaa---aaaaaabbcbb
(PID.TID 0000.0001) //     37 feeddddcccbbbbbbbbaaaaaaaaaaaaaaa-aaaaaaabcccb
(PID.TID 0000.0001) //     36 gfeeddddcccccbbbbbaaaaaaaaaaaaaaaaaabccbcdddcc
(PID.TID 0000.0001) //     35 gfeeedddccccccbbbbaaaaaaaaaaaaaaaaabdeffeefedd
(PID.TID 0000.0001) //     34 ffeeeedddcccccbbbbbaaaaaaaaaaaaaaabcefhkkhgggg
(PID.TID 0000.0001) //     33 gffeeeddddcccccbbbbbaaaaaaaaaaaaabcdfgilmliijk
(PID.TID 0000.0001) //     32 gffffeeddddcccccbbbbbbbbbbbbbaaaabdgijklnmlklp
(PID.TID 0000.0001) //     31 ggggffeeddddcccccbbbbbbbbbbbbbaabehlnn........
(PID.TID 0000.0001) //     30 hggggfeeedddddcccccccccccbbbbbbcgknpr.........
(PID.TID 0000.0001) //     29 ihhggffeeeeeddddcccccccccccccdfimpr...........
(PID.TID 0000.0001) //     28 jjihggfffffeeeddddddddddcccdfilnqu............
(PID.TID 0000.0001) //     27 llkjihggggggffeeeeeeeedddddfjnqyy.............
(PID.TID 0000.0001) //     26 onlljihhgggggggffefffeeeeeginsyy..............
(PID.TID 0000.0001) //     25 rqonlkjiihhhghhgfffggfffghjouz................
(PID.TID 0000.0001) //     24 utrpomlkjiihhhhhggghhghijl+...................
(PID.TID 0000.0001) //     23 wvusqpnmlkkjjjjiiiiiijlnqz....................
(PID.TID 0000.0001) //     22 xxwvtsrponmllmmlllkkknsxz.....................
(PID.TID 0000.0001) //     21 yxxxwwvusqpqrsrqonmmny+z......................
(PID.TID 0000.0001) //     20 yyyyyyyxxwvwwwwvusrwx.........................
(PID.TID 0000.0001) //     19 yyyyyyyyyyyxxxxxxxyyx.........................
(PID.TID 0000.0001) //     18 yyyyyyyyyyxxxxxxyyyyy.........................
(PID.TID 0000.0001) //     17 yyyyyyyyyxxxwwxxyyy...........................
(PID.TID 0000.0001) //     16 yyyyyyyyxxwwwwxyyyz...........................
(PID.TID 0000.0001) //     15 yyyyyyyxwwwvwxyyz.............................
(PID.TID 0000.0001) //     14 yyyyyxxwwvvvxyz...............................
(PID.TID 0000.0001) //     13 zyyyyxwwvvvwy.................................
(PID.TID 0000.0001) //     12 zzyyxxwvuuvx..................................
(PID.TID 0000.0001) //     11 ++zyyxwvuvw...................................
(PID.TID 0000.0001) //     10 ..............................................
(PID.TID 0000.0001) //      9 ..............................................
(PID.TID 0000.0001) //      8 ..............................................
(PID.TID 0000.0001) //      7 ..............................................
(PID.TID 0000.0001) //      6 ..............................................
(PID.TID 0000.0001) //      5 ..............................................
(PID.TID 0000.0001) //      4 ..............................................
(PID.TID 0000.0001) //      3 ..............................................
(PID.TID 0000.0001) //      2 ..............................................
(PID.TID 0000.0001) //      1 ..............................................
(PID.TID 0000.0001) //      0 ..............................................
(PID.TID 0000.0001) //     -1 ..............................................
(PID.TID 0000.0001) //     -2 ..............................................
(PID.TID 0000.0001) //     -3 ..............................................
(PID.TID 0000.0001) //     -4 ..............................................
(PID.TID 0000.0001) //     -5 ..............................................
(PID.TID 0000.0001) //     -6 ..............................................
(PID.TID 0000.0001) //     -7 ..............................................
(PID.TID 0000.0001) // =======================================================
(PID.TID 0000.0001) // END OF FIELD                                          =
(PID.TID 0000.0001) // =======================================================
(PID.TID 0000.0001) 
(PID.TID 0000.0001) // =======================================================
(PID.TID 0000.0001) // Field Model Ro_surf (ini_masks_etc)
(PID.TID 0000.0001) // CMIN =          1.000000000000000E+32
(PID.TID 0000.0001) // CMAX =         -1.000000000000000E+32
(PID.TID 0000.0001) // CINT =          0.000000000000000E+00
(PID.TID 0000.0001) // SYMBOLS (CMIN->CMAX): -abcdefghijklmnopqrstuvwxyz+
(PID.TID 0000.0001) //                  0.0: .
(PID.TID 0000.0001) // RANGE I (Lo:Hi:Step):(    -7:    38:     1)
(PID.TID 0000.0001) // RANGE J (Lo:Hi:Step):(    38:    -7:    -1)
(PID.TID 0000.0001) // RANGE K (Lo:Hi:Step):(   1:   1:   1)
(PID.TID 0000.0001) // =======================================================
(PID.TID 0000.0001) // =======================================================
(PID.TID 0000.0001) // END OF FIELD                                          =
(PID.TID 0000.0001) // =======================================================
(PID.TID 0000.0001) 
(PID.TID 0000.0001) // =======================================================
(PID.TID 0000.0001) // Field hFacC at iteration          0
(PID.TID 0000.0001) // CMIN =          1.000000000000000E+00
(PID.TID 0000.0001) // CMAX =          1.000000000000000E+00
(PID.TID 0000.0001) // CINT =          0.000000000000000E+00
(PID.TID 0000.0001) // SYMBOLS (CMIN->CMAX): -abcdefghijklmnopqrstuvwxyz+
(PID.TID 0000.0001) //                  0.0: .
(PID.TID 0000.0001) // RANGE I (Lo:Hi:Step):(    -7:    38:     1)
(PID.TID 0000.0001) // RANGE J (Lo:Hi:Step):(    38:    -7:    -1)
(PID.TID 0000.0001) // RANGE K (Lo:Hi:Step):(   1:   1:   1)
(PID.TID 0000.0001) // =======================================================
(PID.TID 0000.0001) // =======================================================
(PID.TID 0000.0001) // END OF FIELD                                          =
(PID.TID 0000.0001) // =======================================================
(PID.TID 0000.0001) 
(PID.TID 0000.0001) // =======================================================
(PID.TID 0000.0001) // Field hFacW at iteration          0
(PID.TID 0000.0001) // CMIN =          1.000000000000000E+00
(PID.TID 0000.0001) // CMAX =          1.000000000000000E+00
(PID.TID 0000.0001) // CINT =          0.000000000000000E+00
(PID.TID 0000.0001) // SYMBOLS (CMIN->CMAX): -abcdefghijklmnopqrstuvwxyz+
(PID.TID 0000.0001) //                  0.0: .
(PID.TID 0000.0001) // RANGE I (Lo:Hi:Step):(    -7:    38:     1)
(PID.TID 0000.0001) // RANGE J (Lo:Hi:Step):(    38:    -7:    -1)
(PID.TID 0000.0001) // RANGE K (Lo:Hi:Step):(   1:   1:   1)
(PID.TID 0000.0001) // =======================================================
(PID.TID 0000.0001) // =======================================================
(PID.TID 0000.0001) // END OF FIELD                                          =
(PID.TID 0000.0001) // =======================================================
(PID.TID 0000.0001) 
(PID.TID 0000.0001) // =======================================================
(PID.TID 0000.0001) // Field hFacS at iteration          0
(PID.TID 0000.0001) // CMIN =          1.000000000000000E+00
(PID.TID 0000.0001) // CMAX =          1.000000000000000E+00
(PID.TID 0000.0001) // CINT =          0.000000000000000E+00
(PID.TID 0000.0001) // SYMBOLS (CMIN->CMAX): -abcdefghijklmnopqrstuvwxyz+
(PID.TID 0000.0001) //                  0.0: .
(PID.TID 0000.0001) // RANGE I (Lo:Hi:Step):(    -7:    38:     1)
(PID.TID 0000.0001) // RANGE J (Lo:Hi:Step):(    38:    -7:    -1)
(PID.TID 0000.0001) // RANGE K (Lo:Hi:Step):(   1:   1:   1)
(PID.TID 0000.0001) // =======================================================
(PID.TID 0000.0001) // =======================================================
(PID.TID 0000.0001) // END OF FIELD                                          =
(PID.TID 0000.0001) // =======================================================
(PID.TID 0000.0001) 
(PID.TID 0000.0001) GAD_INIT_FIXED: GAD_OlMinSize=  4  0  2
(PID.TID 0000.0001) 
(PID.TID 0000.0001) // ===================================
(PID.TID 0000.0001) // GAD parameters :
(PID.TID 0000.0001) // ===================================
(PID.TID 0000.0001) tempAdvScheme =   /* Temp. Horiz.Advection scheme selector */
(PID.TID 0000.0001)                       7
(PID.TID 0000.0001)     ;
(PID.TID 0000.0001) tempVertAdvScheme =   /* Temp. Vert. Advection scheme selector */
(PID.TID 0000.0001)                       7
(PID.TID 0000.0001)     ;
(PID.TID 0000.0001) tempMultiDimAdvec =   /* use Muti-Dim Advec method for Temp */
(PID.TID 0000.0001)                   T
(PID.TID 0000.0001)     ;
(PID.TID 0000.0001) tempSOM_Advection = /* use 2nd Order Moment Advection for Temp */
(PID.TID 0000.0001)                   F
(PID.TID 0000.0001)     ;
(PID.TID 0000.0001) AdamsBashforthGt = /* apply Adams-Bashforth extrapolation on Gt */
(PID.TID 0000.0001)                   F
(PID.TID 0000.0001)     ;
(PID.TID 0000.0001) AdamsBashforth_T = /* apply Adams-Bashforth extrapolation on Temp */
(PID.TID 0000.0001)                   F
(PID.TID 0000.0001)     ;
(PID.TID 0000.0001) saltAdvScheme =   /* Salt. Horiz.advection scheme selector */
(PID.TID 0000.0001)                       7
(PID.TID 0000.0001)     ;
(PID.TID 0000.0001) saltVertAdvScheme =   /* Salt. Vert. Advection scheme selector */
(PID.TID 0000.0001)                       7
(PID.TID 0000.0001)     ;
(PID.TID 0000.0001) saltMultiDimAdvec =   /* use Muti-Dim Advec method for Salt */
(PID.TID 0000.0001)                   T
(PID.TID 0000.0001)     ;
(PID.TID 0000.0001) saltSOM_Advection = /* use 2nd Order Moment Advection for Salt */
(PID.TID 0000.0001)                   F
(PID.TID 0000.0001)     ;
(PID.TID 0000.0001) AdamsBashforthGs = /* apply Adams-Bashforth extrapolation on Gs */
(PID.TID 0000.0001)                   F
(PID.TID 0000.0001)     ;
(PID.TID 0000.0001) AdamsBashforth_S = /* apply Adams-Bashforth extrapolation on Salt */
(PID.TID 0000.0001)                   F
(PID.TID 0000.0001)     ;
(PID.TID 0000.0001) // ===================================
(PID.TID 0000.0001) INI_GLOBAL_DOMAIN: Found   0 CS-corner Pts in the domain
(PID.TID 0000.0001) %MON fCori_max                    =   1.4584096177006E-04
(PID.TID 0000.0001) %MON fCori_min                    =  -1.4429171327635E-04
(PID.TID 0000.0001) %MON fCori_mean                   =  -1.9531894197173E-06
(PID.TID 0000.0001) %MON fCori_sd                     =   1.0434730642309E-04
(PID.TID 0000.0001) %MON fCoriG_max                   =   1.4584247033981E-04
(PID.TID 0000.0001) %MON fCoriG_min                   =  -1.4435339896041E-04
(PID.TID 0000.0001) %MON fCoriG_mean                  =  -1.9303770726087E-06
(PID.TID 0000.0001) %MON fCoriG_sd                    =   1.0435958182593E-04
(PID.TID 0000.0001) %MON fCoriCos_max                 =   1.4584158744890E-04
(PID.TID 0000.0001) %MON fCoriCos_min                 =   6.6334365221135E-07
(PID.TID 0000.0001) %MON fCoriCos_mean                =   9.3876998486639E-05
(PID.TID 0000.0001) %MON fCoriCos_sd                  =   3.9559575367967E-05
(PID.TID 0000.0001) INI_CG2D: CG2D normalisation factor =  1.9867335911142027E-04
(PID.TID 0000.0001) 
(PID.TID 0000.0001) // =======================================================
(PID.TID 0000.0001) // Model configuration
(PID.TID 0000.0001) // =======================================================
(PID.TID 0000.0001) //
(PID.TID 0000.0001) // "Physical" paramters ( PARM01 in namelist )
(PID.TID 0000.0001) //
(PID.TID 0000.0001) buoyancyRelation = /* Type of relation to get Buoyancy */
(PID.TID 0000.0001)               'OCEANIC'
(PID.TID 0000.0001)     ;
(PID.TID 0000.0001) fluidIsAir   =  /* fluid major constituent is Air */
(PID.TID 0000.0001)                   F
(PID.TID 0000.0001)     ;
(PID.TID 0000.0001) fluidIsWater =  /* fluid major constituent is Water */
(PID.TID 0000.0001)                   T
(PID.TID 0000.0001)     ;
(PID.TID 0000.0001) usingPCoords =  /* use p (or p*) vertical coordinate */
(PID.TID 0000.0001)                   F
(PID.TID 0000.0001)     ;
(PID.TID 0000.0001) usingZCoords =  /* use z (or z*) vertical coordinate */
(PID.TID 0000.0001)                   T
(PID.TID 0000.0001)     ;
(PID.TID 0000.0001) tRef =   /* Reference temperature profile ( oC or K ) */
(PID.TID 0000.0001)     3 @  2.300000000000000E+01,             /* K =  1:  3 */
(PID.TID 0000.0001)     3 @  2.200000000000000E+01,             /* K =  4:  6 */
(PID.TID 0000.0001)                 2.100000000000000E+01,      /* K =  7 */
(PID.TID 0000.0001)     2 @  2.000000000000000E+01,             /* K =  8:  9 */
(PID.TID 0000.0001)                 1.900000000000000E+01,      /* K = 10 */
(PID.TID 0000.0001)     2 @  1.800000000000000E+01,             /* K = 11: 12 */
(PID.TID 0000.0001)                 1.700000000000000E+01,      /* K = 13 */
(PID.TID 0000.0001)     2 @  1.600000000000000E+01,             /* K = 14: 15 */
(PID.TID 0000.0001)                 1.500000000000000E+01,      /* K = 16 */
(PID.TID 0000.0001)                 1.400000000000000E+01,      /* K = 17 */
(PID.TID 0000.0001)                 1.300000000000000E+01,      /* K = 18 */
(PID.TID 0000.0001)                 1.200000000000000E+01,      /* K = 19 */
(PID.TID 0000.0001)                 1.100000000000000E+01,      /* K = 20 */
(PID.TID 0000.0001)     2 @  9.000000000000000E+00,             /* K = 21: 22 */
(PID.TID 0000.0001)                 8.000000000000000E+00,      /* K = 23 */
(PID.TID 0000.0001)                 7.000000000000000E+00,      /* K = 24 */
(PID.TID 0000.0001)     2 @  6.000000000000000E+00,             /* K = 25: 26 */
(PID.TID 0000.0001)     2 @  5.000000000000000E+00,             /* K = 27: 28 */
(PID.TID 0000.0001)     3 @  4.000000000000000E+00,             /* K = 29: 31 */
(PID.TID 0000.0001)     3 @  3.000000000000000E+00,             /* K = 32: 34 */
(PID.TID 0000.0001)     4 @  2.000000000000000E+00,             /* K = 35: 38 */
(PID.TID 0000.0001)    12 @  1.000000000000000E+00              /* K = 39: 50 */
(PID.TID 0000.0001)     ;
(PID.TID 0000.0001) sRef =   /* Reference salinity profile ( psu ) */
(PID.TID 0000.0001)    50 @  3.450000000000000E+01              /* K =  1: 50 */
(PID.TID 0000.0001)     ;
(PID.TID 0000.0001) useStrainTensionVisc= /* Use StrainTension Form of Viscous Operator */
(PID.TID 0000.0001)                   F
(PID.TID 0000.0001)     ;
(PID.TID 0000.0001) useVariableVisc = /* Use variable horizontal viscosity */
(PID.TID 0000.0001)                   T
(PID.TID 0000.0001)     ;
(PID.TID 0000.0001) useHarmonicVisc = /* Use harmonic horizontal viscosity */
(PID.TID 0000.0001)                   F
(PID.TID 0000.0001)     ;
(PID.TID 0000.0001) useBiharmonicVisc= /* Use biharmonic horiz.  viscosity */
(PID.TID 0000.0001)                   T
(PID.TID 0000.0001)     ;
(PID.TID 0000.0001) useSmag3D = /* Use isotropic 3-D Smagorinsky viscosity */
(PID.TID 0000.0001)                   F
(PID.TID 0000.0001)     ;
(PID.TID 0000.0001) viscAh  =   /* Lateral harmonic viscosity ( m^2/s ) */
(PID.TID 0000.0001)                 0.000000000000000E+00
(PID.TID 0000.0001)     ;
(PID.TID 0000.0001) viscAhMax = /* Maximum lateral harmonic viscosity ( m^2/s ) */
(PID.TID 0000.0001)                 1.000000000000000E+21
(PID.TID 0000.0001)     ;
(PID.TID 0000.0001) viscAhGrid = /* Grid dependent lateral harmonic viscosity ( non-dim. ) */
(PID.TID 0000.0001)                 0.000000000000000E+00
(PID.TID 0000.0001)     ;
(PID.TID 0000.0001) useFullLeith = /* Use Full Form of Leith Viscosity on/off flag*/
(PID.TID 0000.0001)                   F
(PID.TID 0000.0001)     ;
(PID.TID 0000.0001) useAreaViscLength = /* Use area for visc length instead of geom. mean*/
(PID.TID 0000.0001)                   T
(PID.TID 0000.0001)     ;
(PID.TID 0000.0001) viscC2leith = /* Leith harmonic visc. factor (on grad(vort),non-dim.) */
(PID.TID 0000.0001)                 0.000000000000000E+00
(PID.TID 0000.0001)     ;
(PID.TID 0000.0001) viscC2leithD = /* Leith harmonic viscosity factor (on grad(div),non-dim.)*/
(PID.TID 0000.0001)                 0.000000000000000E+00
(PID.TID 0000.0001)     ;
(PID.TID 0000.0001) viscC2smag = /* Smagorinsky harmonic viscosity factor (non-dim.) */
(PID.TID 0000.0001)                 0.000000000000000E+00
(PID.TID 0000.0001)     ;
(PID.TID 0000.0001) viscA4  =   /* Lateral biharmonic viscosity ( m^4/s ) */
(PID.TID 0000.0001)                 0.000000000000000E+00
(PID.TID 0000.0001)     ;
(PID.TID 0000.0001) viscA4Max = /* Maximum biharmonic viscosity ( m^2/s ) */
(PID.TID 0000.0001)                 1.000000000000000E+21
(PID.TID 0000.0001)     ;
(PID.TID 0000.0001) viscA4Grid = /* Grid dependent biharmonic viscosity ( non-dim. ) */
(PID.TID 0000.0001)                 0.000000000000000E+00
(PID.TID 0000.0001)     ;
(PID.TID 0000.0001) viscC4leith = /* Leith biharm viscosity factor (on grad(vort), non-dim.)*/
(PID.TID 0000.0001)                 2.150000000000000E+00
(PID.TID 0000.0001)     ;
(PID.TID 0000.0001) viscC4leithD = /* Leith biharm viscosity factor (on grad(div), non-dim.) */
(PID.TID 0000.0001)                 2.150000000000000E+00
(PID.TID 0000.0001)     ;
(PID.TID 0000.0001) viscC4Smag = /* Smagorinsky biharm viscosity factor (non-dim) */
(PID.TID 0000.0001)                 0.000000000000000E+00
(PID.TID 0000.0001)     ;
(PID.TID 0000.0001) no_slip_sides =  /* Viscous BCs: No-slip sides */
(PID.TID 0000.0001)                   T
(PID.TID 0000.0001)     ;
(PID.TID 0000.0001) sideDragFactor = /* side-drag scaling factor (non-dim) */
(PID.TID 0000.0001)                 2.000000000000000E+00
(PID.TID 0000.0001)     ;
(PID.TID 0000.0001) viscArNr = /* vertical profile of vertical viscosity ( m^2/s )*/
(PID.TID 0000.0001)    50 @  5.661400000000000E-04              /* K =  1: 50 */
(PID.TID 0000.0001)     ;
(PID.TID 0000.0001) no_slip_bottom =  /* Viscous BCs: No-slip bottom */
(PID.TID 0000.0001)                   T
(PID.TID 0000.0001)     ;
(PID.TID 0000.0001) bottomVisc_pCell = /* Partial-cell in bottom Visc. BC */
(PID.TID 0000.0001)                   F
(PID.TID 0000.0001)     ;
(PID.TID 0000.0001) bottomDragLinear = /* linear bottom-drag coefficient ( m/s ) */
(PID.TID 0000.0001)                 0.000000000000000E+00
(PID.TID 0000.0001)     ;
(PID.TID 0000.0001) bottomDragQuadratic = /* quadratic bottom-drag coefficient (-) */
(PID.TID 0000.0001)                 2.100000000000000E-03
(PID.TID 0000.0001)     ;
(PID.TID 0000.0001) selectBotDragQuadr = /* select quadratic bottom drag options */
(PID.TID 0000.0001)                       0
(PID.TID 0000.0001)     ;
(PID.TID 0000.0001) diffKhT =   /* Laplacian diffusion of heat laterally ( m^2/s ) */
(PID.TID 0000.0001)                 0.000000000000000E+00
(PID.TID 0000.0001)     ;
(PID.TID 0000.0001) diffK4T =   /* Biharmonic diffusion of heat laterally ( m^4/s ) */
(PID.TID 0000.0001)                 0.000000000000000E+00
(PID.TID 0000.0001)     ;
(PID.TID 0000.0001) diffKhS =   /* Laplacian diffusion of salt laterally ( m^2/s ) */
(PID.TID 0000.0001)                 0.000000000000000E+00
(PID.TID 0000.0001)     ;
(PID.TID 0000.0001) diffK4S =   /* Biharmonic diffusion of salt laterally ( m^4/s ) */
(PID.TID 0000.0001)                 0.000000000000000E+00
(PID.TID 0000.0001)     ;
(PID.TID 0000.0001) diffKrNrT = /* vertical profile of vertical diffusion of Temp ( m^2/s )*/
(PID.TID 0000.0001)    50 @  5.440000000000000E-07              /* K =  1: 50 */
(PID.TID 0000.0001)     ;
(PID.TID 0000.0001) diffKrNrS = /* vertical profile of vertical diffusion of Salt ( m^2/s )*/
(PID.TID 0000.0001)    50 @  5.440000000000000E-07              /* K =  1: 50 */
(PID.TID 0000.0001)     ;
(PID.TID 0000.0001) diffKrBL79surf = /* Surface diffusion for Bryan and Lewis 79 ( m^2/s ) */
(PID.TID 0000.0001)                 0.000000000000000E+00
(PID.TID 0000.0001)     ;
(PID.TID 0000.0001) diffKrBL79deep = /* Deep diffusion for Bryan and Lewis 1979 ( m^2/s ) */
(PID.TID 0000.0001)                 0.000000000000000E+00
(PID.TID 0000.0001)     ;
(PID.TID 0000.0001) diffKrBL79scl = /* Depth scale for Bryan and Lewis 1979 ( m ) */
(PID.TID 0000.0001)                 2.000000000000000E+02
(PID.TID 0000.0001)     ;
(PID.TID 0000.0001) diffKrBL79Ho = /* Turning depth for Bryan and Lewis 1979 ( m ) */
(PID.TID 0000.0001)                -2.000000000000000E+03
(PID.TID 0000.0001)     ;
(PID.TID 0000.0001) ivdc_kappa = /* Implicit Vertical Diffusivity for Convection ( m^2/s) */
(PID.TID 0000.0001)                 0.000000000000000E+00
(PID.TID 0000.0001)     ;
(PID.TID 0000.0001) hMixCriteria=  /* Criteria for mixed-layer diagnostic */
(PID.TID 0000.0001)                -8.000000000000000E-01
(PID.TID 0000.0001)     ;
(PID.TID 0000.0001) dRhoSmall =  /* Parameter for mixed-layer diagnostic */
(PID.TID 0000.0001)                 1.000000000000000E-06
(PID.TID 0000.0001)     ;
(PID.TID 0000.0001) hMixSmooth=  /* Smoothing parameter for mixed-layer diagnostic */
(PID.TID 0000.0001)                 0.000000000000000E+00
(PID.TID 0000.0001)     ;
(PID.TID 0000.0001) eosType =  /* Type of Equation of State */
(PID.TID 0000.0001)               'JMD95Z'
(PID.TID 0000.0001)     ;
(PID.TID 0000.0001) selectP_inEOS_Zc = /* select pressure to use in EOS (0,1,2,3) */
(PID.TID 0000.0001)                       0
(PID.TID 0000.0001)     0= -g*rhoConst*z ; 1= pRef (from tRef,sRef); 2= Hyd P ; 3= Hyd+NH P
(PID.TID 0000.0001)     ;
(PID.TID 0000.0001) HeatCapacity_Cp =  /* Specific heat capacity ( J/kg/K ) */
(PID.TID 0000.0001)                 3.994000000000000E+03
(PID.TID 0000.0001)     ;
(PID.TID 0000.0001) celsius2K = /* 0 degree Celsius converted to Kelvin ( K ) */
(PID.TID 0000.0001)                 2.731500000000000E+02
(PID.TID 0000.0001)     ;
(PID.TID 0000.0001) rhoConst  = /* Reference density (Boussinesq)  ( kg/m^3 ) */
(PID.TID 0000.0001)                 1.027500000000000E+03
(PID.TID 0000.0001)     ;
(PID.TID 0000.0001) rhoFacC = /* normalized Reference density @ cell-Center (-) */
(PID.TID 0000.0001)    50 @  1.000000000000000E+00              /* K =  1: 50 */
(PID.TID 0000.0001)     ;
(PID.TID 0000.0001) rhoFacF = /* normalized Reference density @ W-Interface (-) */
(PID.TID 0000.0001)    51 @  1.000000000000000E+00              /* K =  1: 51 */
(PID.TID 0000.0001)     ;
(PID.TID 0000.0001) rhoConstFresh = /* Fresh-water reference density ( kg/m^3 ) */
(PID.TID 0000.0001)                 9.998000000000000E+02
(PID.TID 0000.0001)     ;
(PID.TID 0000.0001) gravity =   /* Gravitational acceleration ( m/s^2 ) */
(PID.TID 0000.0001)                 9.810000000000000E+00
(PID.TID 0000.0001)     ;
(PID.TID 0000.0001) gBaro =   /* Barotropic gravity ( m/s^2 ) */
(PID.TID 0000.0001)                 9.810000000000000E+00
(PID.TID 0000.0001)     ;
(PID.TID 0000.0001) gravFacC = /* gravity factor (vs surf.) @ cell-Center (-) */
(PID.TID 0000.0001)    50 @  1.000000000000000E+00              /* K =  1: 50 */
(PID.TID 0000.0001)     ;
(PID.TID 0000.0001) gravFacF = /* gravity factor (vs surf.) @ W-Interface (-) */
(PID.TID 0000.0001)    51 @  1.000000000000000E+00              /* K =  1: 51 */
(PID.TID 0000.0001)     ;
(PID.TID 0000.0001) rotationPeriod =   /* Rotation Period ( s ) */
(PID.TID 0000.0001)                 8.616400000000000E+04
(PID.TID 0000.0001)     ;
(PID.TID 0000.0001) omega =   /* Angular velocity ( rad/s ) */
(PID.TID 0000.0001)                 7.292123516990375E-05
(PID.TID 0000.0001)     ;
(PID.TID 0000.0001) f0 =   /* Reference coriolis parameter ( 1/s ) */
(PID.TID 0000.0001)                 1.000000000000000E-04
(PID.TID 0000.0001)     ;
(PID.TID 0000.0001) beta =   /* Beta ( 1/(m.s) ) */
(PID.TID 0000.0001)                 9.999999999999999E-12
(PID.TID 0000.0001)     ;
(PID.TID 0000.0001) fPrime =   /* Second coriolis parameter ( 1/s ) */
(PID.TID 0000.0001)                 0.000000000000000E+00
(PID.TID 0000.0001)     ;
(PID.TID 0000.0001) rigidLid =   /* Rigid lid on/off flag */
(PID.TID 0000.0001)                   F
(PID.TID 0000.0001)     ;
(PID.TID 0000.0001) implicitFreeSurface =   /* Implicit free surface on/off flag */
(PID.TID 0000.0001)                   T
(PID.TID 0000.0001)     ;
(PID.TID 0000.0001) freeSurfFac =   /* Implicit free surface factor */
(PID.TID 0000.0001)                 1.000000000000000E+00
(PID.TID 0000.0001)     ;
(PID.TID 0000.0001) implicSurfPress =  /* Surface Pressure implicit factor (0-1)*/
(PID.TID 0000.0001)                 6.000000000000000E-01
(PID.TID 0000.0001)     ;
(PID.TID 0000.0001) implicDiv2DFlow =  /* Barot. Flow Div. implicit factor (0-1)*/
(PID.TID 0000.0001)                 6.000000000000000E-01
(PID.TID 0000.0001)     ;
(PID.TID 0000.0001) uniformLin_PhiSurf = /* use uniform Bo_surf on/off flag*/
(PID.TID 0000.0001)                   T
(PID.TID 0000.0001)     ;
(PID.TID 0000.0001) uniformFreeSurfLev = /* free-surface level-index is uniform */
(PID.TID 0000.0001)                   T
(PID.TID 0000.0001)     ;
(PID.TID 0000.0001) hFacMin =   /* minimum partial cell factor (hFac) */
(PID.TID 0000.0001)                 3.000000000000000E-01
(PID.TID 0000.0001)     ;
(PID.TID 0000.0001) hFacMinDr = /* minimum partial cell thickness ( m) */
(PID.TID 0000.0001)                 0.000000000000000E+00
(PID.TID 0000.0001)     ;
(PID.TID 0000.0001) exactConserv =  /* Exact Volume Conservation on/off flag*/
(PID.TID 0000.0001)                   T
(PID.TID 0000.0001)     ;
(PID.TID 0000.0001) linFSConserveTr = /* Tracer correction for Lin Free Surface on/off flag*/
(PID.TID 0000.0001)                   F
(PID.TID 0000.0001)     ;
(PID.TID 0000.0001) nonlinFreeSurf = /* Non-linear Free Surf. options (-1,0,1,2,3)*/
(PID.TID 0000.0001)                       0
(PID.TID 0000.0001)      -1,0= Off ; 1,2,3= On, 2=+rescale gU,gV, 3=+update cg2d solv.
(PID.TID 0000.0001)     ;
(PID.TID 0000.0001) hFacInf =   /* lower threshold for hFac (nonlinFreeSurf only)*/
(PID.TID 0000.0001)                 1.000000000000000E-01
(PID.TID 0000.0001)     ;
(PID.TID 0000.0001) hFacSup =   /* upper threshold for hFac (nonlinFreeSurf only)*/
(PID.TID 0000.0001)                 5.000000000000000E+00
(PID.TID 0000.0001)     ;
(PID.TID 0000.0001) select_rStar = /* r* Vertical coord. options (=0 r coord.; >0 uses r*)*/
(PID.TID 0000.0001)                       0
(PID.TID 0000.0001)     ;
(PID.TID 0000.0001) useRealFreshWaterFlux = /* Real Fresh Water Flux on/off flag*/
(PID.TID 0000.0001)                   T
(PID.TID 0000.0001)     ;
(PID.TID 0000.0001) temp_EvPrRn = /* Temp. of Evap/Prec/R (UNSET=use local T)(oC)*/
(PID.TID 0000.0001)                 0.000000000000000E+00
(PID.TID 0000.0001)     ;
(PID.TID 0000.0001) salt_EvPrRn = /* Salin. of Evap/Prec/R (UNSET=use local S)(psu)*/
(PID.TID 0000.0001)                 0.000000000000000E+00
(PID.TID 0000.0001)     ;
(PID.TID 0000.0001) selectAddFluid = /* option for mass source/sink of fluid (=0: off) */
(PID.TID 0000.0001)                       0
(PID.TID 0000.0001)     ;
(PID.TID 0000.0001) temp_addMass = /* Temp. of addMass array (UNSET=use local T)(oC)*/
(PID.TID 0000.0001)                 0.000000000000000E+00
(PID.TID 0000.0001)     ;
(PID.TID 0000.0001) salt_addMass = /* Salin. of addMass array (UNSET=use local S)(psu)*/
(PID.TID 0000.0001)                 0.000000000000000E+00
(PID.TID 0000.0001)     ;
(PID.TID 0000.0001) convertFW2Salt = /* convert F.W. Flux to Salt Flux (-1=use local S)(psu)*/
(PID.TID 0000.0001)                -1.000000000000000E+00
(PID.TID 0000.0001)     ;
(PID.TID 0000.0001) use3Dsolver = /* use 3-D pressure solver on/off flag */
(PID.TID 0000.0001)                   F
(PID.TID 0000.0001)     ;
(PID.TID 0000.0001) nonHydrostatic =  /* Non-Hydrostatic on/off flag */
(PID.TID 0000.0001)                   F
(PID.TID 0000.0001)     ;
(PID.TID 0000.0001) nh_Am2 = /* Non-Hydrostatic terms scaling factor */
(PID.TID 0000.0001)                 1.000000000000000E+00
(PID.TID 0000.0001)     ;
(PID.TID 0000.0001) implicitNHPress = /* Non-Hyd Pressure implicit factor (0-1)*/
(PID.TID 0000.0001)                 6.000000000000000E-01
(PID.TID 0000.0001)     ;
(PID.TID 0000.0001) selectNHfreeSurf = /* Non-Hyd (free-)Surface option */
(PID.TID 0000.0001)                       0
(PID.TID 0000.0001)     ;
(PID.TID 0000.0001) quasiHydrostatic = /* Quasi-Hydrostatic on/off flag */
(PID.TID 0000.0001)                   F
(PID.TID 0000.0001)     ;
(PID.TID 0000.0001) calc_wVelocity = /* vertical velocity calculation on/off flag */
(PID.TID 0000.0001)                   T
(PID.TID 0000.0001)     ;
(PID.TID 0000.0001) momStepping =  /* Momentum equation on/off flag */
(PID.TID 0000.0001)                   T
(PID.TID 0000.0001)     ;
(PID.TID 0000.0001) vectorInvariantMomentum= /* Vector-Invariant Momentum on/off */
(PID.TID 0000.0001)                   T
(PID.TID 0000.0001)     ;
(PID.TID 0000.0001) momAdvection =  /* Momentum advection on/off flag */
(PID.TID 0000.0001)                   T
(PID.TID 0000.0001)     ;
(PID.TID 0000.0001) momViscosity =  /* Momentum viscosity on/off flag */
(PID.TID 0000.0001)                   T
(PID.TID 0000.0001)     ;
(PID.TID 0000.0001) momImplVertAdv= /* Momentum implicit vert. advection on/off*/
(PID.TID 0000.0001)                   F
(PID.TID 0000.0001)     ;
(PID.TID 0000.0001) implicitViscosity = /* Implicit viscosity on/off flag */
(PID.TID 0000.0001)                   T
(PID.TID 0000.0001)     ;
(PID.TID 0000.0001) selectImplicitDrag= /* Implicit bot Drag options (0,1,2)*/
(PID.TID 0000.0001)                       0
(PID.TID 0000.0001)     0= Expl. ; 1= Impl. on provis. Vel ; 2= Fully Impl (with surf.P)
(PID.TID 0000.0001)     ;
(PID.TID 0000.0001) metricTerms =  /* metric-Terms on/off flag */
(PID.TID 0000.0001)                   F
(PID.TID 0000.0001)     ;
(PID.TID 0000.0001) useNHMTerms = /* Non-Hydrostatic Metric-Terms on/off */
(PID.TID 0000.0001)                   F
(PID.TID 0000.0001)     ;
(PID.TID 0000.0001) selectCoriMap = /* Coriolis Map options (0,1,2,3)*/
(PID.TID 0000.0001)                       2
(PID.TID 0000.0001)     0= f-Plane ; 1= Beta-Plane ; 2= Spherical ; 3= read from file
(PID.TID 0000.0001)     ;
(PID.TID 0000.0001) use3dCoriolis = /* 3-D Coriolis on/off flag */
(PID.TID 0000.0001)                   F
(PID.TID 0000.0001)     ;
(PID.TID 0000.0001) useCoriolis =  /* Coriolis on/off flag */
(PID.TID 0000.0001)                   T
(PID.TID 0000.0001)     ;
(PID.TID 0000.0001) useCDscheme =  /* CD scheme on/off flag */
(PID.TID 0000.0001)                   F
(PID.TID 0000.0001)     ;
(PID.TID 0000.0001) useEnergyConservingCoriolis= /* Flx-Form Coriolis scheme flag */
(PID.TID 0000.0001)                   F
(PID.TID 0000.0001)     ;
(PID.TID 0000.0001) useJamartWetPoints= /* Coriolis WetPoints method flag */
(PID.TID 0000.0001)                   F
(PID.TID 0000.0001)     ;
(PID.TID 0000.0001) useJamartMomAdv= /* V.I Non-linear terms Jamart flag */
(PID.TID 0000.0001)                   F
(PID.TID 0000.0001)     ;
(PID.TID 0000.0001) useAbsVorticity= /* V.I Works with f+zeta in Coriolis */
(PID.TID 0000.0001)                   F
(PID.TID 0000.0001)     ;
(PID.TID 0000.0001) selectVortScheme= /* V.I Scheme selector for Vorticity-Term */
(PID.TID 0000.0001)                       0
(PID.TID 0000.0001)    = 0 : enstrophy (Shallow-Water Eq.) conserving scheme by Sadourny, JAS 75
(PID.TID 0000.0001)    = 1 : same as 0 with modified hFac
(PID.TID 0000.0001)    = 2 : energy conserving scheme (used by Sadourny in JAS 75 paper)
(PID.TID 0000.0001)    = 3 : energy (general) and enstrophy (2D, nonDiv.) conserving scheme
(PID.TID 0000.0001)          from Sadourny (Burridge & Haseler, ECMWF Rep.4, 1977)
(PID.TID 0000.0001)     ;
(PID.TID 0000.0001) upwindVorticity= /* V.I Upwind bias vorticity flag */
(PID.TID 0000.0001)                   F
(PID.TID 0000.0001)     ;
(PID.TID 0000.0001) highOrderVorticity= /* V.I High order vort. advect. flag */
(PID.TID 0000.0001)                   T
(PID.TID 0000.0001)     ;
(PID.TID 0000.0001) upwindShear= /* V.I Upwind vertical Shear advection flag */
(PID.TID 0000.0001)                   F
(PID.TID 0000.0001)     ;
(PID.TID 0000.0001) selectKEscheme= /* V.I Kinetic Energy scheme selector */
(PID.TID 0000.0001)                       0
(PID.TID 0000.0001)     ;
(PID.TID 0000.0001) momForcing =  /* Momentum forcing on/off flag */
(PID.TID 0000.0001)                   T
(PID.TID 0000.0001)     ;
(PID.TID 0000.0001) momTidalForcing = /* Momentum Tidal forcing on/off flag */
(PID.TID 0000.0001)                   T
(PID.TID 0000.0001)     ;
(PID.TID 0000.0001) momPressureForcing =  /* Momentum pressure term on/off flag */
(PID.TID 0000.0001)                   T
(PID.TID 0000.0001)     ;
(PID.TID 0000.0001) implicitIntGravWave= /* Implicit Internal Gravity Wave flag */
(PID.TID 0000.0001)                   F
(PID.TID 0000.0001)     ;
(PID.TID 0000.0001) staggerTimeStep =    /* Stagger time stepping on/off flag */
(PID.TID 0000.0001)                   T
(PID.TID 0000.0001)     ;
(PID.TID 0000.0001) doResetHFactors = /* reset thickness factors @ each time-step */
(PID.TID 0000.0001)                   F
(PID.TID 0000.0001)     ;
(PID.TID 0000.0001) multiDimAdvection =  /* enable/disable Multi-Dim Advection */
(PID.TID 0000.0001)                   T
(PID.TID 0000.0001)     ;
(PID.TID 0000.0001) useMultiDimAdvec =   /* Multi-Dim Advection is/is-not used */
(PID.TID 0000.0001)                   T
(PID.TID 0000.0001)     ;
(PID.TID 0000.0001) implicitDiffusion = /* Implicit Diffusion on/off flag */
(PID.TID 0000.0001)                   T
(PID.TID 0000.0001)     ;
(PID.TID 0000.0001) tempStepping =  /* Temperature equation on/off flag */
(PID.TID 0000.0001)                   T
(PID.TID 0000.0001)     ;
(PID.TID 0000.0001) tempAdvection = /* Temperature advection on/off flag */
(PID.TID 0000.0001)                   T
(PID.TID 0000.0001)     ;
(PID.TID 0000.0001) tempImplVertAdv = /* Temp. implicit vert. advection on/off */
(PID.TID 0000.0001)                   F
(PID.TID 0000.0001)     ;
(PID.TID 0000.0001) tempForcing  =  /* Temperature forcing on/off flag */
(PID.TID 0000.0001)                   T
(PID.TID 0000.0001)     ;
(PID.TID 0000.0001) doThetaClimRelax = /* apply SST relaxation on/off flag */
(PID.TID 0000.0001)                   F
(PID.TID 0000.0001)     ;
(PID.TID 0000.0001) tempIsActiveTr = /* Temp. is a dynamically Active Tracer */
(PID.TID 0000.0001)                   T
(PID.TID 0000.0001)     ;
(PID.TID 0000.0001) saltStepping =  /* Salinity equation on/off flag */
(PID.TID 0000.0001)                   T
(PID.TID 0000.0001)     ;
(PID.TID 0000.0001) saltAdvection = /* Salinity advection on/off flag */
(PID.TID 0000.0001)                   T
(PID.TID 0000.0001)     ;
(PID.TID 0000.0001) saltImplVertAdv = /* Sali. implicit vert. advection on/off */
(PID.TID 0000.0001)                   F
(PID.TID 0000.0001)     ;
(PID.TID 0000.0001) saltForcing  =  /* Salinity forcing on/off flag */
(PID.TID 0000.0001)                   T
(PID.TID 0000.0001)     ;
(PID.TID 0000.0001) doSaltClimRelax = /* apply SSS relaxation on/off flag */
(PID.TID 0000.0001)                   F
(PID.TID 0000.0001)     ;
(PID.TID 0000.0001) saltIsActiveTr = /* Salt  is a dynamically Active Tracer */
(PID.TID 0000.0001)                   T
(PID.TID 0000.0001)     ;
(PID.TID 0000.0001)  readBinaryPrec = /* Precision used for reading binary files */
(PID.TID 0000.0001)                      32
(PID.TID 0000.0001)     ;
(PID.TID 0000.0001) writeBinaryPrec = /* Precision used for writing binary files */
(PID.TID 0000.0001)                      32
(PID.TID 0000.0001)     ;
(PID.TID 0000.0001)  rwSuffixType =   /* select format of mds file suffix */
(PID.TID 0000.0001)                       0
(PID.TID 0000.0001)    = 0 : myIter (I10.10) ;   = 1 : 100*myTime (100th sec) ;
(PID.TID 0000.0001)    = 2 : myTime (seconds);   = 3 : myTime/360 (10th of hr);
(PID.TID 0000.0001)    = 4 : myTime/3600 (hours)
(PID.TID 0000.0001)     ;
(PID.TID 0000.0001)  globalFiles = /* write "global" (=not per tile) files */
(PID.TID 0000.0001)                   T
(PID.TID 0000.0001)     ;
(PID.TID 0000.0001)  useSingleCpuIO = /* only master MPI process does I/O */
(PID.TID 0000.0001)                   F
(PID.TID 0000.0001)     ;
(PID.TID 0000.0001)  useSingleCpuInput = /* only master process reads input */
(PID.TID 0000.0001)                   T
(PID.TID 0000.0001)     ;
(PID.TID 0000.0001) /* debLev[*]  : level of debug & auxiliary message printing */
(PID.TID 0000.0001) debLevZero =  0 ; /* level of disabled aux. msg printing */
(PID.TID 0000.0001)    debLevA =  1 ; /* level of minimum  aux. msg printing */
(PID.TID 0000.0001)    debLevB =  2 ; /* level of low aux. print (report read-file opening)*/
(PID.TID 0000.0001)    debLevC =  3 ; /* level of moderate debug prt (most pkgs debug msg) */
(PID.TID 0000.0001)    debLevD =  4 ; /* level of enhanced debug prt (add DEBUG_STATS prt) */
(PID.TID 0000.0001)    debLevE =  5 ; /* level of extensive debug printing */
(PID.TID 0000.0001) debugLevel =  /* select debug printing level */
(PID.TID 0000.0001)                       2
(PID.TID 0000.0001)     ;
(PID.TID 0000.0001)  plotLevel =  /* select PLOT_FIELD printing level */
(PID.TID 0000.0001)                       2
(PID.TID 0000.0001)     ;
(PID.TID 0000.0001) //
(PID.TID 0000.0001) // Elliptic solver(s) paramters ( PARM02 in namelist )
(PID.TID 0000.0001) //
(PID.TID 0000.0001) cg2dMaxIters =   /* Upper limit on 2d con. grad iterations  */
(PID.TID 0000.0001)                     100
(PID.TID 0000.0001)     ;
(PID.TID 0000.0001) cg2dChkResFreq =   /* 2d con. grad convergence test frequency */
(PID.TID 0000.0001)                       1
(PID.TID 0000.0001)     ;
(PID.TID 0000.0001) cg2dUseMinResSol= /* use cg2d last-iter(=0) / min-resid.(=1) solution */
(PID.TID 0000.0001)                       0
(PID.TID 0000.0001)     ;
(PID.TID 0000.0001) cg2dTargetResidual =   /* 2d con. grad target residual  */
(PID.TID 0000.0001)                 1.000000000000000E-05
(PID.TID 0000.0001)     ;
(PID.TID 0000.0001) cg2dTargetResWunit =   /* CG2d target residual [W units] */
(PID.TID 0000.0001)                -1.000000000000000E+00
(PID.TID 0000.0001)     ;
(PID.TID 0000.0001) cg2dPreCondFreq =   /* Freq. for updating cg2d preconditioner */
(PID.TID 0000.0001)                       1
(PID.TID 0000.0001)     ;
(PID.TID 0000.0001) useSRCGSolver =  /* use single reduction CG solver(s) */
(PID.TID 0000.0001)                   F
(PID.TID 0000.0001)     ;
(PID.TID 0000.0001) printResidualFreq = /* Freq. for printing CG residual */
(PID.TID 0000.0001)                       0
(PID.TID 0000.0001)     ;
(PID.TID 0000.0001) //
(PID.TID 0000.0001) // Time stepping paramters ( PARM03 in namelist )
(PID.TID 0000.0001) //
(PID.TID 0000.0001) deltaTMom =   /* Momentum equation timestep ( s ) */
(PID.TID 0000.0001)                 9.000000000000000E+02
(PID.TID 0000.0001)     ;
(PID.TID 0000.0001) deltaTFreeSurf = /* FreeSurface equation timestep ( s ) */
(PID.TID 0000.0001)                 9.000000000000000E+02
(PID.TID 0000.0001)     ;
(PID.TID 0000.0001) dTtracerLev =  /* Tracer equation timestep ( s ) */
(PID.TID 0000.0001)    50 @  9.000000000000000E+02              /* K =  1: 50 */
(PID.TID 0000.0001)     ;
(PID.TID 0000.0001) deltaTClock  =   /* Model clock timestep ( s ) */
(PID.TID 0000.0001)                 9.000000000000000E+02
(PID.TID 0000.0001)     ;
(PID.TID 0000.0001) cAdjFreq =   /* Convective adjustment interval ( s ) */
(PID.TID 0000.0001)                 0.000000000000000E+00
(PID.TID 0000.0001)     ;
(PID.TID 0000.0001) momForcingOutAB = /* =1: take Momentum Forcing out of Adams-Bash. stepping */
(PID.TID 0000.0001)                       1
(PID.TID 0000.0001)     ;
(PID.TID 0000.0001) tracForcingOutAB = /* =1: take T,S,pTr Forcing out of Adams-Bash. stepping */
(PID.TID 0000.0001)                       1
(PID.TID 0000.0001)     ;
(PID.TID 0000.0001) momDissip_In_AB = /* put Dissipation Tendency in Adams-Bash. stepping */
(PID.TID 0000.0001)                   F
(PID.TID 0000.0001)     ;
(PID.TID 0000.0001) doAB_onGtGs = /* apply AB on Tendencies (rather than on T,S)*/
(PID.TID 0000.0001)                   T
(PID.TID 0000.0001)     ;
(PID.TID 0000.0001) abEps =   /* Adams-Bashforth-2 stabilizing weight */
(PID.TID 0000.0001)                 1.000000000000000E-01
(PID.TID 0000.0001)     ;
(PID.TID 0000.0001) applyExchUV_early = /* Apply EXCH to U,V earlier in time-step */
(PID.TID 0000.0001)                   F
(PID.TID 0000.0001)     ;
(PID.TID 0000.0001) pickupStrictlyMatch= /* stop if pickup do not strictly match */
(PID.TID 0000.0001)                   T
(PID.TID 0000.0001)     ;
(PID.TID 0000.0001) nIter0   =   /* Run starting timestep number */
(PID.TID 0000.0001)                       1
(PID.TID 0000.0001)     ;
(PID.TID 0000.0001) nTimeSteps = /* Number of timesteps */
(PID.TID 0000.0001)                      96
(PID.TID 0000.0001)     ;
(PID.TID 0000.0001) nEndIter =   /* Run ending timestep number */
(PID.TID 0000.0001)                      97
(PID.TID 0000.0001)     ;
(PID.TID 0000.0001) baseTime =   /* Model base time ( s ) */
(PID.TID 0000.0001)                 0.000000000000000E+00
(PID.TID 0000.0001)     ;
(PID.TID 0000.0001) startTime =  /* Run start time ( s ) */
(PID.TID 0000.0001)                 9.000000000000000E+02
(PID.TID 0000.0001)     ;
(PID.TID 0000.0001) endTime  =   /* Integration ending time ( s ) */
(PID.TID 0000.0001)                 8.730000000000000E+04
(PID.TID 0000.0001)     ;
(PID.TID 0000.0001) pChkPtFreq = /* Permanent restart/pickup file interval ( s ) */
(PID.TID 0000.0001)                 0.000000000000000E+00
(PID.TID 0000.0001)     ;
(PID.TID 0000.0001) chkPtFreq  = /* Rolling restart/pickup file interval ( s ) */
(PID.TID 0000.0001)                 8.640000000000000E+04
(PID.TID 0000.0001)     ;
(PID.TID 0000.0001) pickup_write_mdsio =   /* Model IO flag. */
(PID.TID 0000.0001)                   T
(PID.TID 0000.0001)     ;
(PID.TID 0000.0001) pickup_read_mdsio =   /* Model IO flag. */
(PID.TID 0000.0001)                   T
(PID.TID 0000.0001)     ;
(PID.TID 0000.0001) writePickupAtEnd =   /* Model IO flag. */
(PID.TID 0000.0001)                   T
(PID.TID 0000.0001)     ;
(PID.TID 0000.0001) dumpFreq =   /* Model state write out interval ( s ). */
(PID.TID 0000.0001)                 3.600000000000000E+03
(PID.TID 0000.0001)     ;
(PID.TID 0000.0001) dumpInitAndLast= /* write out Initial & Last iter. model state */
(PID.TID 0000.0001)                   F
(PID.TID 0000.0001)     ;
(PID.TID 0000.0001) snapshot_mdsio =   /* Model IO flag. */
(PID.TID 0000.0001)                   T
(PID.TID 0000.0001)     ;
(PID.TID 0000.0001) monitorFreq =   /* Monitor output interval ( s ). */
(PID.TID 0000.0001)                 7.200000000000000E+03
(PID.TID 0000.0001)     ;
(PID.TID 0000.0001) monitorSelect = /* select group of variables to monitor */
(PID.TID 0000.0001)                       3
(PID.TID 0000.0001)     ;
(PID.TID 0000.0001) monitor_stdio =   /* Model IO flag. */
(PID.TID 0000.0001)                   T
(PID.TID 0000.0001)     ;
(PID.TID 0000.0001) externForcingPeriod =   /* forcing period (s) */
(PID.TID 0000.0001)                 0.000000000000000E+00
(PID.TID 0000.0001)     ;
(PID.TID 0000.0001) externForcingCycle =   /* period of the cyle (s). */
(PID.TID 0000.0001)                 0.000000000000000E+00
(PID.TID 0000.0001)     ;
(PID.TID 0000.0001) tauThetaClimRelax =   /* relaxation time scale (s) */
(PID.TID 0000.0001)                 0.000000000000000E+00
(PID.TID 0000.0001)     ;
(PID.TID 0000.0001) tauSaltClimRelax =   /* relaxation time scale (s) */
(PID.TID 0000.0001)                 0.000000000000000E+00
(PID.TID 0000.0001)     ;
(PID.TID 0000.0001) latBandClimRelax =   /* max. Lat. where relaxation */
(PID.TID 0000.0001)                 1.800000000000000E+02
(PID.TID 0000.0001)     ;
(PID.TID 0000.0001) //
(PID.TID 0000.0001) // Gridding paramters ( PARM04 in namelist )
(PID.TID 0000.0001) //
(PID.TID 0000.0001) usingCartesianGrid = /* Cartesian coordinates flag ( True/False ) */
(PID.TID 0000.0001)                   F
(PID.TID 0000.0001)     ;
(PID.TID 0000.0001) usingCylindricalGrid = /* Cylindrical coordinates flag ( True/False ) */
(PID.TID 0000.0001)                   F
(PID.TID 0000.0001)     ;
(PID.TID 0000.0001) usingSphericalPolarGrid = /* Spherical coordinates flag ( True/False ) */
(PID.TID 0000.0001)                   F
(PID.TID 0000.0001)     ;
(PID.TID 0000.0001) usingCurvilinearGrid = /* Curvilinear coordinates flag ( True/False ) */
(PID.TID 0000.0001)                   T
(PID.TID 0000.0001)     ;
(PID.TID 0000.0001) useMin4hFacEdges = /* set hFacW,S as minimum of adjacent hFacC factor */
(PID.TID 0000.0001)                   F
(PID.TID 0000.0001)     ;
(PID.TID 0000.0001) selectSigmaCoord = /* Hybrid-Sigma Vert. Coordinate option */
(PID.TID 0000.0001)                       0
(PID.TID 0000.0001)     ;
(PID.TID 0000.0001) rSigmaBnd = /* r/sigma transition ( units of r ==  m ) */
(PID.TID 0000.0001)                 1.234567000000000E+05
(PID.TID 0000.0001)     ;
(PID.TID 0000.0001) rkSign =   /* index orientation relative to vertical coordinate */
(PID.TID 0000.0001)                -1.000000000000000E+00
(PID.TID 0000.0001)     ;
(PID.TID 0000.0001) gravitySign = /* gravity orientation relative to vertical coordinate */
(PID.TID 0000.0001)                -1.000000000000000E+00
(PID.TID 0000.0001)     ;
(PID.TID 0000.0001) seaLev_Z =  /* reference height of sea-level [m] */
(PID.TID 0000.0001)                 0.000000000000000E+00
(PID.TID 0000.0001)     ;
(PID.TID 0000.0001) top_Pres =  /* reference pressure at the top [Pa] */
(PID.TID 0000.0001)                 0.000000000000000E+00
(PID.TID 0000.0001)     ;
(PID.TID 0000.0001) mass2rUnit = /* convert mass per unit area [kg/m2] to r-units [m] */
(PID.TID 0000.0001)                 9.732360097323601E-04
(PID.TID 0000.0001)     ;
(PID.TID 0000.0001) rUnit2mass = /* convert r-units [m] to mass per unit area [kg/m2] */
(PID.TID 0000.0001)                 1.027500000000000E+03
(PID.TID 0000.0001)     ;
(PID.TID 0000.0001) drC =   /* C spacing ( units of r ) */
(PID.TID 0000.0001)                 5.000000000000000E+00,      /* K =  1 */
(PID.TID 0000.0001)     6 @  1.000000000000000E+01,             /* K =  2:  7 */
(PID.TID 0000.0001)                 1.000500000000000E+01,      /* K =  8 */
(PID.TID 0000.0001)                 1.002000000000000E+01,      /* K =  9 */
(PID.TID 0000.0001)                 1.007000000000000E+01,      /* K = 10 */
(PID.TID 0000.0001)                 1.021500000000000E+01,      /* K = 11 */
(PID.TID 0000.0001)                 1.056000000000000E+01,      /* K = 12 */
(PID.TID 0000.0001)                 1.128000000000000E+01,      /* K = 13 */
(PID.TID 0000.0001)                 1.259000000000000E+01,      /* K = 14 */
(PID.TID 0000.0001)                 1.473000000000000E+01,      /* K = 15 */
(PID.TID 0000.0001)                 1.793000000000000E+01,      /* K = 16 */
(PID.TID 0000.0001)                 2.233500000000000E+01,      /* K = 17 */
(PID.TID 0000.0001)                 2.797500000000000E+01,      /* K = 18 */
(PID.TID 0000.0001)                 3.476000000000001E+01,      /* K = 19 */
(PID.TID 0000.0001)                 4.246000000000000E+01,      /* K = 20 */
(PID.TID 0000.0001)                 5.075000000000000E+01,      /* K = 21 */
(PID.TID 0000.0001)                 5.925000000000000E+01,      /* K = 22 */
(PID.TID 0000.0001)                 6.753999999999999E+01,      /* K = 23 */
(PID.TID 0000.0001)                 7.524000000000001E+01,      /* K = 24 */
(PID.TID 0000.0001)                 8.202500000000001E+01,      /* K = 25 */
(PID.TID 0000.0001)                 8.766500000000001E+01,      /* K = 26 */
(PID.TID 0000.0001)                 9.206999999999999E+01,      /* K = 27 */
(PID.TID 0000.0001)                 9.527000000000000E+01,      /* K = 28 */
(PID.TID 0000.0001)                 9.741499999999999E+01,      /* K = 29 */
(PID.TID 0000.0001)                 9.875000000000000E+01,      /* K = 30 */
(PID.TID 0000.0001)                 9.963000000000000E+01,      /* K = 31 */
(PID.TID 0000.0001)                 1.006700000000000E+02,      /* K = 32 */
(PID.TID 0000.0001)                 1.029450000000000E+02,      /* K = 33 */
(PID.TID 0000.0001)                 1.079450000000000E+02,      /* K = 34 */
(PID.TID 0000.0001)                 1.170800000000000E+02,      /* K = 35 */
(PID.TID 0000.0001)                 1.309600000000000E+02,      /* K = 36 */
(PID.TID 0000.0001)                 1.490150000000000E+02,      /* K = 37 */
(PID.TID 0000.0001)                 1.698850000000000E+02,      /* K = 38 */
(PID.TID 0000.0001)                 1.921900000000000E+02,      /* K = 39 */
(PID.TID 0000.0001)                 2.150250000000000E+02,      /* K = 40 */
(PID.TID 0000.0001)                 2.380000000000000E+02,      /* K = 41 */
(PID.TID 0000.0001)                 2.610000000000000E+02,      /* K = 42 */
(PID.TID 0000.0001)                 2.840000000000000E+02,      /* K = 43 */
(PID.TID 0000.0001)                 3.070000000000000E+02,      /* K = 44 */
(PID.TID 0000.0001)                 3.300000000000000E+02,      /* K = 45 */
(PID.TID 0000.0001)                 3.530000000000000E+02,      /* K = 46 */
(PID.TID 0000.0001)                 3.760000000000000E+02,      /* K = 47 */
(PID.TID 0000.0001)                 3.990000000000000E+02,      /* K = 48 */
(PID.TID 0000.0001)                 4.220000000000000E+02,      /* K = 49 */
(PID.TID 0000.0001)                 4.450000000000000E+02,      /* K = 50 */
(PID.TID 0000.0001)                 2.282500000000000E+02       /* K = 51 */
(PID.TID 0000.0001)     ;
(PID.TID 0000.0001) drF =   /* W spacing ( units of r ) */
(PID.TID 0000.0001)     7 @  1.000000000000000E+01,             /* K =  1:  7 */
(PID.TID 0000.0001)                 1.001000000000000E+01,      /* K =  8 */
(PID.TID 0000.0001)                 1.003000000000000E+01,      /* K =  9 */
(PID.TID 0000.0001)                 1.011000000000000E+01,      /* K = 10 */
(PID.TID 0000.0001)                 1.032000000000000E+01,      /* K = 11 */
(PID.TID 0000.0001)                 1.080000000000000E+01,      /* K = 12 */
(PID.TID 0000.0001)                 1.176000000000000E+01,      /* K = 13 */
(PID.TID 0000.0001)                 1.342000000000000E+01,      /* K = 14 */
(PID.TID 0000.0001)                 1.604000000000000E+01,      /* K = 15 */
(PID.TID 0000.0001)                 1.982000000000000E+01,      /* K = 16 */
(PID.TID 0000.0001)                 2.485000000000000E+01,      /* K = 17 */
(PID.TID 0000.0001)                 3.110000000000000E+01,      /* K = 18 */
(PID.TID 0000.0001)                 3.842000000000000E+01,      /* K = 19 */
(PID.TID 0000.0001)                 4.650000000000000E+01,      /* K = 20 */
(PID.TID 0000.0001)                 5.500000000000000E+01,      /* K = 21 */
(PID.TID 0000.0001)                 6.350000000000000E+01,      /* K = 22 */
(PID.TID 0000.0001)                 7.158000000000000E+01,      /* K = 23 */
(PID.TID 0000.0001)                 7.890000000000001E+01,      /* K = 24 */
(PID.TID 0000.0001)                 8.515000000000001E+01,      /* K = 25 */
(PID.TID 0000.0001)                 9.018000000000001E+01,      /* K = 26 */
(PID.TID 0000.0001)                 9.395999999999999E+01,      /* K = 27 */
(PID.TID 0000.0001)                 9.658000000000000E+01,      /* K = 28 */
(PID.TID 0000.0001)                 9.825000000000000E+01,      /* K = 29 */
(PID.TID 0000.0001)                 9.925000000000000E+01,      /* K = 30 */
(PID.TID 0000.0001)                 1.000100000000000E+02,      /* K = 31 */
(PID.TID 0000.0001)                 1.013300000000000E+02,      /* K = 32 */
(PID.TID 0000.0001)                 1.045600000000000E+02,      /* K = 33 */
(PID.TID 0000.0001)                 1.113300000000000E+02,      /* K = 34 */
(PID.TID 0000.0001)                 1.228300000000000E+02,      /* K = 35 */
(PID.TID 0000.0001)                 1.390900000000000E+02,      /* K = 36 */
(PID.TID 0000.0001)                 1.589400000000000E+02,      /* K = 37 */
(PID.TID 0000.0001)                 1.808300000000000E+02,      /* K = 38 */
(PID.TID 0000.0001)                 2.035500000000000E+02,      /* K = 39 */
(PID.TID 0000.0001)                 2.265000000000000E+02,      /* K = 40 */
(PID.TID 0000.0001)                 2.495000000000000E+02,      /* K = 41 */
(PID.TID 0000.0001)                 2.725000000000000E+02,      /* K = 42 */
(PID.TID 0000.0001)                 2.955000000000000E+02,      /* K = 43 */
(PID.TID 0000.0001)                 3.185000000000000E+02,      /* K = 44 */
(PID.TID 0000.0001)                 3.415000000000000E+02,      /* K = 45 */
(PID.TID 0000.0001)                 3.645000000000000E+02,      /* K = 46 */
(PID.TID 0000.0001)                 3.875000000000000E+02,      /* K = 47 */
(PID.TID 0000.0001)                 4.105000000000000E+02,      /* K = 48 */
(PID.TID 0000.0001)                 4.335000000000000E+02,      /* K = 49 */
(PID.TID 0000.0001)                 4.565000000000000E+02       /* K = 50 */
(PID.TID 0000.0001)     ;
(PID.TID 0000.0001) radius_fromHorizGrid = /* sphere Radius of input horiz. grid */
(PID.TID 0000.0001)                 6.370000000000000E+06
(PID.TID 0000.0001)     ;
(PID.TID 0000.0001) rSphere =  /* Radius ( ignored - cartesian, m - spherical ) */
(PID.TID 0000.0001)                 6.370000000000000E+06
(PID.TID 0000.0001)     ;
(PID.TID 0000.0001) deepAtmosphere = /* Deep/Shallow Atmosphere flag (True/False) */
(PID.TID 0000.0001)                   F
(PID.TID 0000.0001)     ;
(PID.TID 0000.0001) xC =  /* xC(:,1,:,1) : P-point X coord ( deg. or m if cartesian) */
(PID.TID 0000.0001)                -4.081468768806280E+01,      /* I =  1 */
(PID.TID 0000.0001)                -3.957104986057077E+01,      /* I =  2 */
(PID.TID 0000.0001)                -3.832217028656162E+01,      /* I =  3 */
(PID.TID 0000.0001)                -3.706844413107324E+01,      /* I =  4 */
(PID.TID 0000.0001)                -3.581028225779612E+01,      /* I =  5 */
(PID.TID 0000.0001)                -3.454811012006861E+01,      /* I =  6 */
(PID.TID 0000.0001)                -3.328236654497336E+01,      /* I =  7 */
(PID.TID 0000.0001)                -3.201350241727823E+01,      /* I =  8 */
(PID.TID 0000.0001)                -3.074197927113779E+01,      /* I =  9 */
(PID.TID 0000.0001)                -2.946826779826338E+01,      /* I = 10 */
(PID.TID 0000.0001)                -2.819284628214859E+01,      /* I = 11 */
(PID.TID 0000.0001)                -2.691619896217756E+01,      /* I = 12 */
(PID.TID 0000.0001)                -2.563881425705264E+01,      /* I = 13 */
(PID.TID 0000.0001)                -2.436118574294736E+01,      /* I = 14 */
(PID.TID 0000.0001)                -2.308380103782244E+01,      /* I = 15 */
(PID.TID 0000.0001)                -2.180715371785141E+01,      /* I = 16 */
(PID.TID 0000.0001)                -2.053173220173662E+01,      /* I = 17 */
(PID.TID 0000.0001)                -1.925802072886221E+01,      /* I = 18 */
(PID.TID 0000.0001)                -1.798649758272177E+01,      /* I = 19 */
(PID.TID 0000.0001)                -1.671763345502664E+01,      /* I = 20 */
(PID.TID 0000.0001)                -1.545188987993139E+01,      /* I = 21 */
(PID.TID 0000.0001)                -1.418971774220388E+01,      /* I = 22 */
(PID.TID 0000.0001)                -1.293155586892676E+01,      /* I = 23 */
(PID.TID 0000.0001)                -1.167782971343838E+01,      /* I = 24 */
(PID.TID 0000.0001)                -1.042895013942923E+01,      /* I = 25 */
(PID.TID 0000.0001)                -9.185312311937196E+00,      /* I = 26 */
(PID.TID 0000.0001)                -7.947294700425999E+00,      /* I = 27 */
(PID.TID 0000.0001)                -6.715258197621779E+00,      /* I = 28 */
(PID.TID 0000.0001)                -5.489545357070952E+00,      /* I = 29 */
(PID.TID 0000.0001)                -4.270479749729759E+00       /* I = 30 */
(PID.TID 0000.0001)     ;
(PID.TID 0000.0001) yC =  /* yC(1,:,1,:) : P-point Y coord ( deg. or m if cartesian) */
(PID.TID 0000.0001)                -8.146222940368236E+01,      /* J =  1 */
(PID.TID 0000.0001)                -8.113083815286421E+01,      /* J =  2 */
(PID.TID 0000.0001)                -8.079504828233755E+01,      /* J =  3 */
(PID.TID 0000.0001)                -8.045491317322768E+01,      /* J =  4 */
(PID.TID 0000.0001)                -8.011048280590389E+01,      /* J =  5 */
(PID.TID 0000.0001)                -7.976180430515704E+01,      /* J =  6 */
(PID.TID 0000.0001)                -7.940892240526760E+01,      /* J =  7 */
(PID.TID 0000.0001)                -7.905187984845006E+01,      /* J =  8 */
(PID.TID 0000.0001)                -7.869071772754813E+01,      /* J =  9 */
(PID.TID 0000.0001)                -7.832547578199167E+01,      /* J = 10 */
(PID.TID 0000.0001)                -7.795619265432416E+01,      /* J = 11 */
(PID.TID 0000.0001)                -7.758290611340497E+01,      /* J = 12 */
(PID.TID 0000.0001)                -7.720565324926896E+01,      /* J = 13 */
(PID.TID 0000.0001)                -7.682447064385434E+01,      /* J = 14 */
(PID.TID 0000.0001)                -7.643939452107085E+01,      /* J = 15 */
(PID.TID 0000.0001)                -7.605046087901695E+01,      /* J = 16 */
(PID.TID 0000.0001)                -7.565770560699295E+01,      /* J = 17 */
(PID.TID 0000.0001)                -7.526116458910658E+01,      /* J = 18 */
(PID.TID 0000.0001)                -7.486087379640449E+01,      /* J = 19 */
(PID.TID 0000.0001)                -7.445686936886233E+01,      /* J = 20 */
(PID.TID 0000.0001)                -7.404918768854837E+01,      /* J = 21 */
(PID.TID 0000.0001)                -7.363786544493549E+01,      /* J = 22 */
(PID.TID 0000.0001)                -7.322293969328220E+01,      /* J = 23 */
(PID.TID 0000.0001)                -7.280444790682334E+01,      /* J = 24 */
(PID.TID 0000.0001)                -7.238242802328044E+01,      /* J = 25 */
(PID.TID 0000.0001)                -7.195691848614972E+01,      /* J = 26 */
(PID.TID 0000.0001)                -7.152795828082729E+01,      /* J = 27 */
(PID.TID 0000.0001)                -7.109558696482472E+01,      /* J = 28 */
(PID.TID 0000.0001)                -7.065984468855757E+01,      /* J = 29 */
(PID.TID 0000.0001)                -7.022077218177122E+01       /* J = 30 */
(PID.TID 0000.0001)     ;
(PID.TID 0000.0001) rcoord = /* P-point R coordinate (  units of r ) */
(PID.TID 0000.0001)                -5.000000000000000E+00,      /* K =  1 */
(PID.TID 0000.0001)                -1.500000000000000E+01,      /* K =  2 */
(PID.TID 0000.0001)                -2.500000000000000E+01,      /* K =  3 */
(PID.TID 0000.0001)                -3.500000000000000E+01,      /* K =  4 */
(PID.TID 0000.0001)                -4.500000000000000E+01,      /* K =  5 */
(PID.TID 0000.0001)                -5.500000000000000E+01,      /* K =  6 */
(PID.TID 0000.0001)                -6.500000000000000E+01,      /* K =  7 */
(PID.TID 0000.0001)                -7.500500000000000E+01,      /* K =  8 */
(PID.TID 0000.0001)                -8.502499999999999E+01,      /* K =  9 */
(PID.TID 0000.0001)                -9.509500000000000E+01,      /* K = 10 */
(PID.TID 0000.0001)                -1.053100000000000E+02,      /* K = 11 */
(PID.TID 0000.0001)                -1.158700000000000E+02,      /* K = 12 */
(PID.TID 0000.0001)                -1.271500000000000E+02,      /* K = 13 */
(PID.TID 0000.0001)                -1.397400000000000E+02,      /* K = 14 */
(PID.TID 0000.0001)                -1.544700000000000E+02,      /* K = 15 */
(PID.TID 0000.0001)                -1.724000000000000E+02,      /* K = 16 */
(PID.TID 0000.0001)                -1.947350000000000E+02,      /* K = 17 */
(PID.TID 0000.0001)                -2.227100000000000E+02,      /* K = 18 */
(PID.TID 0000.0001)                -2.574700000000000E+02,      /* K = 19 */
(PID.TID 0000.0001)                -2.999300000000000E+02,      /* K = 20 */
(PID.TID 0000.0001)                -3.506800000000000E+02,      /* K = 21 */
(PID.TID 0000.0001)                -4.099300000000000E+02,      /* K = 22 */
(PID.TID 0000.0001)                -4.774700000000000E+02,      /* K = 23 */
(PID.TID 0000.0001)                -5.527100000000000E+02,      /* K = 24 */
(PID.TID 0000.0001)                -6.347350000000000E+02,      /* K = 25 */
(PID.TID 0000.0001)                -7.224000000000000E+02,      /* K = 26 */
(PID.TID 0000.0001)                -8.144700000000000E+02,      /* K = 27 */
(PID.TID 0000.0001)                -9.097400000000000E+02,      /* K = 28 */
(PID.TID 0000.0001)                -1.007155000000000E+03,      /* K = 29 */
(PID.TID 0000.0001)                -1.105905000000000E+03,      /* K = 30 */
(PID.TID 0000.0001)                -1.205535000000000E+03,      /* K = 31 */
(PID.TID 0000.0001)                -1.306205000000000E+03,      /* K = 32 */
(PID.TID 0000.0001)                -1.409150000000000E+03,      /* K = 33 */
(PID.TID 0000.0001)                -1.517095000000000E+03,      /* K = 34 */
(PID.TID 0000.0001)                -1.634175000000000E+03,      /* K = 35 */
(PID.TID 0000.0001)                -1.765135000000000E+03,      /* K = 36 */
(PID.TID 0000.0001)                -1.914150000000000E+03,      /* K = 37 */
(PID.TID 0000.0001)                -2.084035000000000E+03,      /* K = 38 */
(PID.TID 0000.0001)                -2.276225000000000E+03,      /* K = 39 */
(PID.TID 0000.0001)                -2.491250000000000E+03,      /* K = 40 */
(PID.TID 0000.0001)                -2.729250000000000E+03,      /* K = 41 */
(PID.TID 0000.0001)                -2.990250000000000E+03,      /* K = 42 */
(PID.TID 0000.0001)                -3.274250000000000E+03,      /* K = 43 */
(PID.TID 0000.0001)                -3.581250000000000E+03,      /* K = 44 */
(PID.TID 0000.0001)                -3.911250000000000E+03,      /* K = 45 */
(PID.TID 0000.0001)                -4.264250000000000E+03,      /* K = 46 */
(PID.TID 0000.0001)                -4.640250000000000E+03,      /* K = 47 */
(PID.TID 0000.0001)                -5.039250000000000E+03,      /* K = 48 */
(PID.TID 0000.0001)                -5.461250000000000E+03,      /* K = 49 */
(PID.TID 0000.0001)                -5.906250000000000E+03       /* K = 50 */
(PID.TID 0000.0001)     ;
(PID.TID 0000.0001) rF =   /* W-Interf. R coordinate (  units of r ) */
(PID.TID 0000.0001)                 0.000000000000000E+00,      /* K =  1 */
(PID.TID 0000.0001)                -1.000000000000000E+01,      /* K =  2 */
(PID.TID 0000.0001)                -2.000000000000000E+01,      /* K =  3 */
(PID.TID 0000.0001)                -3.000000000000000E+01,      /* K =  4 */
(PID.TID 0000.0001)                -4.000000000000000E+01,      /* K =  5 */
(PID.TID 0000.0001)                -5.000000000000000E+01,      /* K =  6 */
(PID.TID 0000.0001)                -6.000000000000000E+01,      /* K =  7 */
(PID.TID 0000.0001)                -7.000000000000000E+01,      /* K =  8 */
(PID.TID 0000.0001)                -8.001000000000001E+01,      /* K =  9 */
(PID.TID 0000.0001)                -9.004000000000001E+01,      /* K = 10 */
(PID.TID 0000.0001)                -1.001500000000000E+02,      /* K = 11 */
(PID.TID 0000.0001)                -1.104700000000000E+02,      /* K = 12 */
(PID.TID 0000.0001)                -1.212700000000000E+02,      /* K = 13 */
(PID.TID 0000.0001)                -1.330300000000000E+02,      /* K = 14 */
(PID.TID 0000.0001)                -1.464500000000000E+02,      /* K = 15 */
(PID.TID 0000.0001)                -1.624900000000000E+02,      /* K = 16 */
(PID.TID 0000.0001)                -1.823100000000000E+02,      /* K = 17 */
(PID.TID 0000.0001)                -2.071600000000000E+02,      /* K = 18 */
(PID.TID 0000.0001)                -2.382600000000000E+02,      /* K = 19 */
(PID.TID 0000.0001)                -2.766799999999999E+02,      /* K = 20 */
(PID.TID 0000.0001)                -3.231799999999999E+02,      /* K = 21 */
(PID.TID 0000.0001)                -3.781799999999999E+02,      /* K = 22 */
(PID.TID 0000.0001)                -4.416799999999999E+02,      /* K = 23 */
(PID.TID 0000.0001)                -5.132600000000000E+02,      /* K = 24 */
(PID.TID 0000.0001)                -5.921600000000000E+02,      /* K = 25 */
(PID.TID 0000.0001)                -6.773099999999999E+02,      /* K = 26 */
(PID.TID 0000.0001)                -7.674900000000000E+02,      /* K = 27 */
(PID.TID 0000.0001)                -8.614500000000000E+02,      /* K = 28 */
(PID.TID 0000.0001)                -9.580300000000001E+02,      /* K = 29 */
(PID.TID 0000.0001)                -1.056280000000000E+03,      /* K = 30 */
(PID.TID 0000.0001)                -1.155530000000000E+03,      /* K = 31 */
(PID.TID 0000.0001)                -1.255540000000000E+03,      /* K = 32 */
(PID.TID 0000.0001)                -1.356870000000000E+03,      /* K = 33 */
(PID.TID 0000.0001)                -1.461430000000000E+03,      /* K = 34 */
(PID.TID 0000.0001)                -1.572760000000000E+03,      /* K = 35 */
(PID.TID 0000.0001)                -1.695590000000000E+03,      /* K = 36 */
(PID.TID 0000.0001)                -1.834680000000000E+03,      /* K = 37 */
(PID.TID 0000.0001)                -1.993620000000000E+03,      /* K = 38 */
(PID.TID 0000.0001)                -2.174450000000000E+03,      /* K = 39 */
(PID.TID 0000.0001)                -2.378000000000000E+03,      /* K = 40 */
(PID.TID 0000.0001)                -2.604500000000000E+03,      /* K = 41 */
(PID.TID 0000.0001)                -2.854000000000000E+03,      /* K = 42 */
(PID.TID 0000.0001)                -3.126500000000000E+03,      /* K = 43 */
(PID.TID 0000.0001)                -3.422000000000000E+03,      /* K = 44 */
(PID.TID 0000.0001)                -3.740500000000000E+03,      /* K = 45 */
(PID.TID 0000.0001)                -4.082000000000000E+03,      /* K = 46 */
(PID.TID 0000.0001)                -4.446500000000000E+03,      /* K = 47 */
(PID.TID 0000.0001)                -4.834000000000000E+03,      /* K = 48 */
(PID.TID 0000.0001)                -5.244500000000000E+03,      /* K = 49 */
(PID.TID 0000.0001)                -5.678000000000000E+03,      /* K = 50 */
(PID.TID 0000.0001)                -6.134500000000000E+03       /* K = 51 */
(PID.TID 0000.0001)     ;
(PID.TID 0000.0001) deepFacC = /* deep-model grid factor @ cell-Center (-) */
(PID.TID 0000.0001)    50 @  1.000000000000000E+00              /* K =  1: 50 */
(PID.TID 0000.0001)     ;
(PID.TID 0000.0001) deepFacF = /* deep-model grid factor @ W-Interface (-) */
(PID.TID 0000.0001)    51 @  1.000000000000000E+00              /* K =  1: 51 */
(PID.TID 0000.0001)     ;
(PID.TID 0000.0001) rVel2wUnit = /* convert units: rVel -> wSpeed (=1 if z-coord)*/
(PID.TID 0000.0001)    51 @  1.000000000000000E+00              /* K =  1: 51 */
(PID.TID 0000.0001)     ;
(PID.TID 0000.0001) wUnit2rVel = /* convert units: wSpeed -> rVel (=1 if z-coord)*/
(PID.TID 0000.0001)    51 @  1.000000000000000E+00              /* K =  1: 51 */
(PID.TID 0000.0001)     ;
(PID.TID 0000.0001) dBdrRef = /* Vertical grad. of reference buoyancy [(m/s/r)^2] */
(PID.TID 0000.0001)     3 @  0.000000000000000E+00,             /* K =  1:  3 */
(PID.TID 0000.0001)                 2.710009878211941E-04,      /* K =  4 */
(PID.TID 0000.0001)     2 @  0.000000000000000E+00,             /* K =  5:  6 */
(PID.TID 0000.0001)                 2.636625418269014E-04,      /* K =  7 */
(PID.TID 0000.0001)                 2.558031727841269E-04,      /* K =  8 */
(PID.TID 0000.0001)                 0.000000000000000E+00,      /* K =  9 */
(PID.TID 0000.0001)                 2.465097609409217E-04,      /* K = 10 */
(PID.TID 0000.0001)                 2.352100435611475E-04,      /* K = 11 */
(PID.TID 0000.0001)                 0.000000000000000E+00,      /* K = 12 */
(PID.TID 0000.0001)                 2.059824810681317E-04,      /* K = 13 */
(PID.TID 0000.0001)                 1.780333657351851E-04,      /* K = 14 */
(PID.TID 0000.0001)                 0.000000000000000E+00,      /* K = 15 */
(PID.TID 0000.0001)                 1.205267729858628E-04,      /* K = 16 */
(PID.TID 0000.0001)                 9.301885331159507E-05,      /* K = 17 */
(PID.TID 0000.0001)                 7.126049663232381E-05,      /* K = 18 */
(PID.TID 0000.0001)                 5.492180008088694E-05,      /* K = 19 */
(PID.TID 0000.0001)                 4.297011162312342E-05,      /* K = 20 */
(PID.TID 0000.0001)                 6.668082313416848E-05,      /* K = 21 */
(PID.TID 0000.0001)                 0.000000000000000E+00,      /* K = 22 */
(PID.TID 0000.0001)                 2.326903218052740E-05,      /* K = 23 */
(PID.TID 0000.0001)                 1.977341620137575E-05,      /* K = 24 */
(PID.TID 0000.0001)                 1.711721017074719E-05,      /* K = 25 */
(PID.TID 0000.0001)                 0.000000000000000E+00,      /* K = 26 */
(PID.TID 0000.0001)                 1.457272127111402E-05,      /* K = 27 */
(PID.TID 0000.0001)                 0.000000000000000E+00,      /* K = 28 */
(PID.TID 0000.0001)                 1.316856539126343E-05,      /* K = 29 */
(PID.TID 0000.0001)     2 @  0.000000000000000E+00,             /* K = 30: 31 */
(PID.TID 0000.0001)                 1.242324286947067E-05,      /* K = 32 */
(PID.TID 0000.0001)     2 @  0.000000000000000E+00,             /* K = 33: 34 */
(PID.TID 0000.0001)                 1.046164470422772E-05,      /* K = 35 */
(PID.TID 0000.0001)     3 @  0.000000000000000E+00,             /* K = 36: 38 */
(PID.TID 0000.0001)                 6.634176617958632E-06,      /* K = 39 */
(PID.TID 0000.0001)    11 @  0.000000000000000E+00              /* K = 40: 50 */
(PID.TID 0000.0001)     ;
(PID.TID 0000.0001) rotateGrid = /* use rotated grid ( True/False ) */
(PID.TID 0000.0001)                   F
(PID.TID 0000.0001)     ;
(PID.TID 0000.0001) phiEuler = /* Euler angle, rotation about original z-coordinate [rad] */
(PID.TID 0000.0001)                 0.000000000000000E+00
(PID.TID 0000.0001)     ;
(PID.TID 0000.0001) thetaEuler = /* Euler angle, rotation about new x-coordinate [rad] */
(PID.TID 0000.0001)                 0.000000000000000E+00
(PID.TID 0000.0001)     ;
(PID.TID 0000.0001) psiEuler = /* Euler angle, rotation about new z-coordinate [rad] */
(PID.TID 0000.0001)                 0.000000000000000E+00
(PID.TID 0000.0001)     ;
(PID.TID 0000.0001) dxF =  /* dxF(:,1,:,1) ( units: m ) */
(PID.TID 0000.0001)                 2.071152825743187E+04,      /* I =  1 */
(PID.TID 0000.0001)                 2.070365142756831E+04,      /* I =  2 */
(PID.TID 0000.0001)                 2.069635296570141E+04,      /* I =  3 */
(PID.TID 0000.0001)                 2.068965358413176E+04,      /* I =  4 */
(PID.TID 0000.0001)                 2.068357195583360E+04,      /* I =  5 */
(PID.TID 0000.0001)                 2.067812475356784E+04,      /* I =  6 */
(PID.TID 0000.0001)                 2.067332670125947E+04,      /* I =  7 */
(PID.TID 0000.0001)                 2.066919060389092E+04,      /* I =  8 */
(PID.TID 0000.0001)                 2.066572738985245E+04,      /* I =  9 */
(PID.TID 0000.0001)                 2.066294615597989E+04,      /* I = 10 */
(PID.TID 0000.0001)                 2.066085425372315E+04,      /* I = 11 */
(PID.TID 0000.0001)                 2.065945771525925E+04,      /* I = 12 */
(PID.TID 0000.0001)                 2.065874381268158E+04,      /* I = 13 */
(PID.TID 0000.0001)                 2.065874381268158E+04,      /* I = 14 */
(PID.TID 0000.0001)                 2.065945771525925E+04,      /* I = 15 */
(PID.TID 0000.0001)                 2.066085425372316E+04,      /* I = 16 */
(PID.TID 0000.0001)                 2.066294615597989E+04,      /* I = 17 */
(PID.TID 0000.0001)                 2.066572738985245E+04,      /* I = 18 */
(PID.TID 0000.0001)                 2.066919060389088E+04,      /* I = 19 */
(PID.TID 0000.0001)                 2.067332670125956E+04,      /* I = 20 */
(PID.TID 0000.0001)                 2.067812475356780E+04,      /* I = 21 */
(PID.TID 0000.0001)                 2.068357195583360E+04,      /* I = 22 */
(PID.TID 0000.0001)                 2.068965358413182E+04,      /* I = 23 */
(PID.TID 0000.0001)                 2.069635296570133E+04,      /* I = 24 */
(PID.TID 0000.0001)                 2.070365142756836E+04,      /* I = 25 */
(PID.TID 0000.0001)                 2.071152825743182E+04,      /* I = 26 */
(PID.TID 0000.0001)                 2.071996065138743E+04,      /* I = 27 */
(PID.TID 0000.0001)                 2.072892365863983E+04,      /* I = 28 */
(PID.TID 0000.0001)                 2.073839012765668E+04,      /* I = 29 */
(PID.TID 0000.0001)                 2.074833063718403E+04       /* I = 30 */
(PID.TID 0000.0001)     ;
(PID.TID 0000.0001) dxF =  /* dxF(1,:,1,:) ( units: m ) */
(PID.TID 0000.0001)                 2.071152825743187E+04,      /* J =  1 */
(PID.TID 0000.0001)                 2.109117491456033E+04,      /* J =  2 */
(PID.TID 0000.0001)                 2.148525648961724E+04,      /* J =  3 */
(PID.TID 0000.0001)                 2.189377348588603E+04,      /* J =  4 */
(PID.TID 0000.0001)                 2.231672440915243E+04,      /* J =  5 */
(PID.TID 0000.0001)                 2.275410689480659E+04,      /* J =  6 */
(PID.TID 0000.0001)                 2.320591873318126E+04,      /* J =  7 */
(PID.TID 0000.0001)                 2.367215879054831E+04,      /* J =  8 */
(PID.TID 0000.0001)                 2.415282782538908E+04,      /* J =  9 */
(PID.TID 0000.0001)                 2.464792920101809E+04,      /* J = 10 */
(PID.TID 0000.0001)                 2.515746949702995E+04,      /* J = 11 */
(PID.TID 0000.0001)                 2.568145902315334E+04,      /* J = 12 */
(PID.TID 0000.0001)                 2.621991223981432E+04,      /* J = 13 */
(PID.TID 0000.0001)                 2.677284809033052E+04,      /* J = 14 */
(PID.TID 0000.0001)                 2.734029025013979E+04,      /* J = 15 */
(PID.TID 0000.0001)                 2.792226729855568E+04,      /* J = 16 */
(PID.TID 0000.0001)                 2.851881281852892E+04,      /* J = 17 */
(PID.TID 0000.0001)                 2.912996543046302E+04,      /* J = 18 */
(PID.TID 0000.0001)                 2.975576876502299E+04,      /* J = 19 */
(PID.TID 0000.0001)                 3.039627138062681E+04,      /* J = 20 */
(PID.TID 0000.0001)                 3.105152663065675E+04,      /* J = 21 */
(PID.TID 0000.0001)                 3.172159248542454E+04,      /* J = 22 */
(PID.TID 0000.0001)                 3.240653131349731E+04,      /* J = 23 */
(PID.TID 0000.0001)                 3.310640962675057E+04,      /* J = 24 */
(PID.TID 0000.0001)                 3.382129779388320E+04,      /* J = 25 */
(PID.TID 0000.0001)                 3.455126972555294E+04,      /* J = 26 */
(PID.TID 0000.0001)                 3.529640253603521E+04,      /* J = 27 */
(PID.TID 0000.0001)                 3.605677618612848E+04,      /* J = 28 */
(PID.TID 0000.0001)                 3.683247311866502E+04,      /* J = 29 */
(PID.TID 0000.0001)                 3.762357793548112E+04       /* J = 30 */
(PID.TID 0000.0001)     ;
(PID.TID 0000.0001) dyF =  /* dyF(:,1,:,1) ( units: m ) */
(PID.TID 0000.0001)                 3.700742300337598E+04,      /* I =  1 */
(PID.TID 0000.0001)                 3.707905556394973E+04,      /* I =  2 */
(PID.TID 0000.0001)                 3.714471828319018E+04,      /* I =  3 */
(PID.TID 0000.0001)                 3.720441078960103E+04,      /* I =  4 */
(PID.TID 0000.0001)                 3.725813297080282E+04,      /* I =  5 */
(PID.TID 0000.0001)                 3.730588490725751E+04,      /* I =  6 */
(PID.TID 0000.0001)                 3.734766681359038E+04,      /* I =  7 */
(PID.TID 0000.0001)                 3.738347898712025E+04,      /* I =  8 */
(PID.TID 0000.0001)                 3.741332176340629E+04,      /* I =  9 */
(PID.TID 0000.0001)                 3.743719547859261E+04,      /* I = 10 */
(PID.TID 0000.0001)                 3.745510043824806E+04,      /* I = 11 */
(PID.TID 0000.0001)                 3.746703689267323E+04,      /* I = 12 */
(PID.TID 0000.0001)     2 @  3.747300501832417E+04,             /* I = 13: 14 */
(PID.TID 0000.0001)                 3.746703689267323E+04,      /* I = 15 */
(PID.TID 0000.0001)                 3.745510043824806E+04,      /* I = 16 */
(PID.TID 0000.0001)                 3.743719547859261E+04,      /* I = 17 */
(PID.TID 0000.0001)                 3.741332176340628E+04,      /* I = 18 */
(PID.TID 0000.0001)                 3.738347898712024E+04,      /* I = 19 */
(PID.TID 0000.0001)                 3.734766681359040E+04,      /* I = 20 */
(PID.TID 0000.0001)                 3.730588490725750E+04,      /* I = 21 */
(PID.TID 0000.0001)                 3.725813297080281E+04,      /* I = 22 */
(PID.TID 0000.0001)                 3.720441078960103E+04,      /* I = 23 */
(PID.TID 0000.0001)                 3.714471828319017E+04,      /* I = 24 */
(PID.TID 0000.0001)                 3.707905556394973E+04,      /* I = 25 */
(PID.TID 0000.0001)                 3.700742300337599E+04,      /* I = 26 */
(PID.TID 0000.0001)                 3.692982130617692E+04,      /* I = 27 */
(PID.TID 0000.0001)                 3.684625159269555E+04,      /* I = 28 */
(PID.TID 0000.0001)                 3.675671548992459E+04,      /* I = 29 */
(PID.TID 0000.0001)                 3.666121523181524E+04       /* I = 30 */
(PID.TID 0000.0001)     ;
(PID.TID 0000.0001) dyF =  /* dyF(1,:,1,:) ( units: m ) */
(PID.TID 0000.0001)                 3.700742300337598E+04,      /* J =  1 */
(PID.TID 0000.0001)                 3.745555642044499E+04,      /* J =  2 */
(PID.TID 0000.0001)                 3.790206217653974E+04,      /* J =  3 */
(PID.TID 0000.0001)                 3.834684105117956E+04,      /* J =  4 */
(PID.TID 0000.0001)                 3.878979459357282E+04,      /* J =  5 */
(PID.TID 0000.0001)                 3.923082521328924E+04,      /* J =  6 */
(PID.TID 0000.0001)                 3.966983623246408E+04,      /* J =  7 */
(PID.TID 0000.0001)                 4.010673190475840E+04,      /* J =  8 */
(PID.TID 0000.0001)                 4.054141740950450E+04,      /* J =  9 */
(PID.TID 0000.0001)                 4.097379882434454E+04,      /* J = 10 */
(PID.TID 0000.0001)                 4.140378308084428E+04,      /* J = 11 */
(PID.TID 0000.0001)                 4.183127790875583E+04,      /* J = 12 */
(PID.TID 0000.0001)                 4.225619177206317E+04,      /* J = 13 */
(PID.TID 0000.0001)                 4.267843379867976E+04,      /* J = 14 */
(PID.TID 0000.0001)                 4.309791371221616E+04,      /* J = 15 */
(PID.TID 0000.0001)                 4.351454176087940E+04,      /* J = 16 */
(PID.TID 0000.0001)                 4.392822864881465E+04,      /* J = 17 */
(PID.TID 0000.0001)                 4.433888547805120E+04,      /* J = 18 */
(PID.TID 0000.0001)                 4.474642369096899E+04,      /* J = 19 */
(PID.TID 0000.0001)                 4.515075502217317E+04,      /* J = 20 */
(PID.TID 0000.0001)                 4.555179145554101E+04,      /* J = 21 */
(PID.TID 0000.0001)                 4.594944520275577E+04,      /* J = 22 */
(PID.TID 0000.0001)                 4.634362867401398E+04,      /* J = 23 */
(PID.TID 0000.0001)                 4.673425447947427E+04,      /* J = 24 */
(PID.TID 0000.0001)                 4.712123544873745E+04,      /* J = 25 */
(PID.TID 0000.0001)                 4.750448467975499E+04,      /* J = 26 */
(PID.TID 0000.0001)                 4.788391567392174E+04,      /* J = 27 */
(PID.TID 0000.0001)                 4.825944271092693E+04,      /* J = 28 */
(PID.TID 0000.0001)                 4.863098220111143E+04,      /* J = 29 */
(PID.TID 0000.0001)                 4.899845499569884E+04       /* J = 30 */
(PID.TID 0000.0001)     ;
(PID.TID 0000.0001) dxG =  /* dxG(:,1,:,1) ( units: m ) */
(PID.TID 0000.0001)                 2.052711702021451E+04,      /* I =  1 */
(PID.TID 0000.0001)                 2.051953983526162E+04,      /* I =  2 */
(PID.TID 0000.0001)                 2.051251425926268E+04,      /* I =  3 */
(PID.TID 0000.0001)                 2.050606148013825E+04,      /* I =  4 */
(PID.TID 0000.0001)                 2.050020059906299E+04,      /* I =  5 */
(PID.TID 0000.0001)                 2.049494867086169E+04,      /* I =  6 */
(PID.TID 0000.0001)                 2.049032075633103E+04,      /* I =  7 */
(PID.TID 0000.0001)                 2.048632995314923E+04,      /* I =  8 */
(PID.TID 0000.0001)                 2.048298743895549E+04,      /* I =  9 */
(PID.TID 0000.0001)                 2.048030251694177E+04,      /* I = 10 */
(PID.TID 0000.0001)                 2.047828270203973E+04,      /* I = 11 */
(PID.TID 0000.0001)                 2.047693414389448E+04,      /* I = 12 */
(PID.TID 0000.0001)     2 @  2.047624433858785E+04,             /* I = 13: 14 */
(PID.TID 0000.0001)                 2.047693414389443E+04,      /* I = 15 */
(PID.TID 0000.0001)                 2.047828270203978E+04,      /* I = 16 */
(PID.TID 0000.0001)                 2.048030251694177E+04,      /* I = 17 */
(PID.TID 0000.0001)                 2.048298743895548E+04,      /* I = 18 */
(PID.TID 0000.0001)                 2.048632995314927E+04,      /* I = 19 */
(PID.TID 0000.0001)                 2.049032075633093E+04,      /* I = 20 */
(PID.TID 0000.0001)                 2.049494867086174E+04,      /* I = 21 */
(PID.TID 0000.0001)                 2.050020059906297E+04,      /* I = 22 */
(PID.TID 0000.0001)                 2.050606148013830E+04,      /* I = 23 */
(PID.TID 0000.0001)                 2.051251425926268E+04,      /* I = 24 */
(PID.TID 0000.0001)                 2.051953983526163E+04,      /* I = 25 */
(PID.TID 0000.0001)                 2.052711702021443E+04,      /* I = 26 */
(PID.TID 0000.0001)                 2.053522248594683E+04,      /* I = 27 */
(PID.TID 0000.0001)                 2.054383070727552E+04,      /* I = 28 */
(PID.TID 0000.0001)                 2.055291390664790E+04,      /* I = 29 */
(PID.TID 0000.0001)                 2.056244198352907E+04       /* I = 30 */
(PID.TID 0000.0001)     ;
(PID.TID 0000.0001) dxG =  /* dxG(1,:,1,:) ( units: m ) */
(PID.TID 0000.0001)                 2.052711702021451E+04,      /* J =  1 */
(PID.TID 0000.0001)                 2.089954736357391E+04,      /* J =  2 */
(PID.TID 0000.0001)                 2.128641124518697E+04,      /* J =  3 */
(PID.TID 0000.0001)                 2.168771062037700E+04,      /* J =  4 */
(PID.TID 0000.0001)                 2.210344484655194E+04,      /* J =  5 */
(PID.TID 0000.0001)                 2.253361185972884E+04,      /* J =  6 */
(PID.TID 0000.0001)                 2.297820925105574E+04,      /* J =  7 */
(PID.TID 0000.0001)                 2.343723524028478E+04,      /* J =  8 */
(PID.TID 0000.0001)                 2.391068954427550E+04,      /* J =  9 */
(PID.TID 0000.0001)                 2.439857414125275E+04,      /* J = 10 */
(PID.TID 0000.0001)                 2.490089393241153E+04,      /* J = 11 */
(PID.TID 0000.0001)                 2.541765730414359E+04,      /* J = 12 */
(PID.TID 0000.0001)                 2.594887659459613E+04,      /* J = 13 */
(PID.TID 0000.0001)                 2.649456846940333E+04,      /* J = 14 */
(PID.TID 0000.0001)                 2.705475421181358E+04,      /* J = 15 */
(PID.TID 0000.0001)                 2.762945993231310E+04,      /* J = 16 */
(PID.TID 0000.0001)                 2.821871670385097E+04,      /* J = 17 */
(PID.TID 0000.0001)                 2.882256062780631E+04,      /* J = 18 */
(PID.TID 0000.0001)                 2.944103283669238E+04,      /* J = 19 */
(PID.TID 0000.0001)                 3.007417943861200E+04,      /* J = 20 */
(PID.TID 0000.0001)                 3.072205140902393E+04,      /* J = 21 */
(PID.TID 0000.0001)                 3.138470443467240E+04,      /* J = 22 */
(PID.TID 0000.0001)                 3.206219871470027E+04,      /* J = 23 */
(PID.TID 0000.0001)                 3.275459872326910E+04,      /* J = 24 */
(PID.TID 0000.0001)                 3.346197293831744E+04,      /* J = 25 */
(PID.TID 0000.0001)                 3.418439354048331E+04,      /* J = 26 */
(PID.TID 0000.0001)                 3.492193608585089E+04,      /* J = 27 */
(PID.TID 0000.0001)                 3.567467915738818E+04,      /* J = 28 */
(PID.TID 0000.0001)                 3.644270400216877E+04,      /* J = 29 */
(PID.TID 0000.0001)                 3.722609417427087E+04       /* J = 30 */
(PID.TID 0000.0001)     ;
(PID.TID 0000.0001) dyG =  /* dyG(:,1,:,1) ( units: m ) */
(PID.TID 0000.0001)                 3.696936823759973E+04,      /* I =  1 */
(PID.TID 0000.0001)                 3.704398547852144E+04,      /* I =  2 */
(PID.TID 0000.0001)                 3.711263318385338E+04,      /* I =  3 */
(PID.TID 0000.0001)                 3.717531082528212E+04,      /* I =  4 */
(PID.TID 0000.0001)                 3.723201816961422E+04,      /* I =  5 */
(PID.TID 0000.0001)                 3.728275520872145E+04,      /* I =  6 */
(PID.TID 0000.0001)                 3.732752209699158E+04,      /* I =  7 */
(PID.TID 0000.0001)                 3.736631909640826E+04,      /* I =  8 */
(PID.TID 0000.0001)                 3.739914652852553E+04,      /* I =  9 */
(PID.TID 0000.0001)                 3.742600473350589E+04,      /* I = 10 */
(PID.TID 0000.0001)                 3.744689403567852E+04,      /* I = 11 */
(PID.TID 0000.0001)                 3.746181471567877E+04,      /* I = 12 */
(PID.TID 0000.0001)                 3.747076698884368E+04,      /* I = 13 */
(PID.TID 0000.0001)                 3.747376174977726E+04,      /* I = 14 */
(PID.TID 0000.0001)                 3.747076698884368E+04,      /* I = 15 */
(PID.TID 0000.0001)                 3.746181471567877E+04,      /* I = 16 */
(PID.TID 0000.0001)                 3.744689403567852E+04,      /* I = 17 */
(PID.TID 0000.0001)                 3.742600473350589E+04,      /* I = 18 */
(PID.TID 0000.0001)                 3.739914652852552E+04,      /* I = 19 */
(PID.TID 0000.0001)                 3.736631909640826E+04,      /* I = 20 */
(PID.TID 0000.0001)                 3.732752209699157E+04,      /* I = 21 */
(PID.TID 0000.0001)                 3.728275520872146E+04,      /* I = 22 */
(PID.TID 0000.0001)                 3.723201816961422E+04,      /* I = 23 */
(PID.TID 0000.0001)                 3.717531082528211E+04,      /* I = 24 */
(PID.TID 0000.0001)                 3.711263318385338E+04,      /* I = 25 */
(PID.TID 0000.0001)                 3.704398547852145E+04,      /* I = 26 */
(PID.TID 0000.0001)                 3.696936823759972E+04,      /* I = 27 */
(PID.TID 0000.0001)                 3.688878236278851E+04,      /* I = 28 */
(PID.TID 0000.0001)                 3.680222921581766E+04,      /* I = 29 */
(PID.TID 0000.0001)                 3.670971071402137E+04       /* I = 30 */
(PID.TID 0000.0001)     ;
(PID.TID 0000.0001) dyG =  /* dyG(1,:,1,:) ( units: m ) */
(PID.TID 0000.0001)                 3.696936823759973E+04,      /* J =  1 */
(PID.TID 0000.0001)                 3.741746190559281E+04,      /* J =  2 */
(PID.TID 0000.0001)                 3.786390067184393E+04,      /* J =  3 */
(PID.TID 0000.0001)                 3.830858172733455E+04,      /* J =  4 */
(PID.TID 0000.0001)                 3.875140319955796E+04,      /* J =  5 */
(PID.TID 0000.0001)                 3.919226424948571E+04,      /* J =  6 */
(PID.TID 0000.0001)                 3.963106512715793E+04,      /* J =  7 */
(PID.TID 0000.0001)                 4.006770719102380E+04,      /* J =  8 */
(PID.TID 0000.0001)                 4.050209290047463E+04,      /* J =  9 */
(PID.TID 0000.0001)                 4.093412578484027E+04,      /* J = 10 */
(PID.TID 0000.0001)                 4.136371039407872E+04,      /* J = 11 */
(PID.TID 0000.0001)                 4.179075223673176E+04,      /* J = 12 */
(PID.TID 0000.0001)                 4.221515770920290E+04,      /* J = 13 */
(PID.TID 0000.0001)                 4.263683401805614E+04,      /* J = 14 */
(PID.TID 0000.0001)                 4.305568910412182E+04,      /* J = 15 */
(PID.TID 0000.0001)                 4.347163156363047E+04,      /* J = 16 */
(PID.TID 0000.0001)                 4.388457057225752E+04,      /* J = 17 */
(PID.TID 0000.0001)                 4.429441581934092E+04,      /* J = 18 */
(PID.TID 0000.0001)                 4.470107744374240E+04,      /* J = 19 */
(PID.TID 0000.0001)                 4.510446597891348E+04,      /* J = 20 */
(PID.TID 0000.0001)                 4.550449230395439E+04,      /* J = 21 */
(PID.TID 0000.0001)                 4.590106761654920E+04,      /* J = 22 */
(PID.TID 0000.0001)                 4.629410339849156E+04,      /* J = 23 */
(PID.TID 0000.0001)                 4.668351141269982E+04,      /* J = 24 */
(PID.TID 0000.0001)                 4.706920371856177E+04,      /* J = 25 */
(PID.TID 0000.0001)                 4.745109271730031E+04,      /* J = 26 */
(PID.TID 0000.0001)                 4.782909128417812E+04,      /* J = 27 */
(PID.TID 0000.0001)                 4.820311314005602E+04,      /* J = 28 */
(PID.TID 0000.0001)                 4.857307420014453E+04,      /* J = 29 */
(PID.TID 0000.0001)                 4.893889490827491E+04       /* J = 30 */
(PID.TID 0000.0001)     ;
(PID.TID 0000.0001) dxC =  /* dxC(:,1,:,1) ( units: m ) */
(PID.TID 0000.0001)                 2.071567651695695E+04,      /* I =  1 */
(PID.TID 0000.0001)                 2.070751892245589E+04,      /* I =  2 */
(PID.TID 0000.0001)                 2.069992855779408E+04,      /* I =  3 */
(PID.TID 0000.0001)                 2.069292717562287E+04,      /* I =  4 */
(PID.TID 0000.0001)                 2.068653446229046E+04,      /* I =  5 */
(PID.TID 0000.0001)                 2.068076808552306E+04,      /* I =  6 */
(PID.TID 0000.0001)                 2.067564373903614E+04,      /* I =  7 */
(PID.TID 0000.0001)                 2.067117518190149E+04,      /* I =  8 */
(PID.TID 0000.0001)                 2.066737427558298E+04,      /* I =  9 */
(PID.TID 0000.0001)                 2.066425102685107E+04,      /* I = 10 */
(PID.TID 0000.0001)                 2.066181364132844E+04,      /* I = 11 */
(PID.TID 0000.0001)                 2.066006869803818E+04,      /* I = 12 */
(PID.TID 0000.0001)                 2.065902266229015E+04,      /* I = 13 */
(PID.TID 0000.0001)                 2.065863826775786E+04,      /* I = 14 */
(PID.TID 0000.0001)                 2.065902266229016E+04,      /* I = 15 */
(PID.TID 0000.0001)                 2.066006869803813E+04,      /* I = 16 */
(PID.TID 0000.0001)                 2.066181364132850E+04,      /* I = 17 */
(PID.TID 0000.0001)                 2.066425102685108E+04,      /* I = 18 */
(PID.TID 0000.0001)                 2.066737427558298E+04,      /* I = 19 */
(PID.TID 0000.0001)                 2.067117518190149E+04,      /* I = 20 */
(PID.TID 0000.0001)                 2.067564373903615E+04,      /* I = 21 */
(PID.TID 0000.0001)                 2.068076808552304E+04,      /* I = 22 */
(PID.TID 0000.0001)                 2.068653446229045E+04,      /* I = 23 */
(PID.TID 0000.0001)                 2.069292717562287E+04,      /* I = 24 */
(PID.TID 0000.0001)                 2.069992855779413E+04,      /* I = 25 */
(PID.TID 0000.0001)                 2.070751892245584E+04,      /* I = 26 */
(PID.TID 0000.0001)                 2.071567651695691E+04,      /* I = 27 */
(PID.TID 0000.0001)                 2.072437747324421E+04,      /* I = 28 */
(PID.TID 0000.0001)                 2.073359574551806E+04,      /* I = 29 */
(PID.TID 0000.0001)                 2.074330305575613E+04       /* I = 30 */
(PID.TID 0000.0001)     ;
(PID.TID 0000.0001) dxC =  /* dxC(1,:,1,:) ( units: m ) */
(PID.TID 0000.0001)                 2.071567651695695E+04,      /* J =  1 */
(PID.TID 0000.0001)                 2.109563672137949E+04,      /* J =  2 */
(PID.TID 0000.0001)                 2.149002149497106E+04,      /* J =  3 */
(PID.TID 0000.0001)                 2.189882927482529E+04,      /* J =  4 */
(PID.TID 0000.0001)                 2.232205646389843E+04,      /* J =  5 */
(PID.TID 0000.0001)                 2.275969855854128E+04,      /* J =  6 */
(PID.TID 0000.0001)                 2.321175117362029E+04,      /* J =  7 */
(PID.TID 0000.0001)                 2.367821096276529E+04,      /* J =  8 */
(PID.TID 0000.0001)                 2.415907643347346E+04,      /* J =  9 */
(PID.TID 0000.0001)                 2.465434865814045E+04,      /* J = 10 */
(PID.TID 0000.0001)                 2.516403188365780E+04,      /* J = 11 */
(PID.TID 0000.0001)                 2.568813404310613E+04,      /* J = 12 */
(PID.TID 0000.0001)                 2.622666717399572E+04,      /* J = 13 */
(PID.TID 0000.0001)                 2.677964774799169E+04,      /* J = 14 */
(PID.TID 0000.0001)                 2.734709691757753E+04,      /* J = 15 */
(PID.TID 0000.0001)                 2.792904068517491E+04,      /* J = 16 */
(PID.TID 0000.0001)                 2.852551000032625E+04,      /* J = 17 */
(PID.TID 0000.0001)                 2.913654079081990E+04,      /* J = 18 */
(PID.TID 0000.0001)                 2.976217393306023E+04,      /* J = 19 */
(PID.TID 0000.0001)                 3.040245516699173E+04,      /* J = 20 */
(PID.TID 0000.0001)                 3.105743496108396E+04,      /* J = 21 */
(PID.TID 0000.0001)                 3.172716833208323E+04,      /* J = 22 */
(PID.TID 0000.0001)                 3.241171462422546E+04,      /* J = 23 */
(PID.TID 0000.0001)                 3.311113725244482E+04,      /* J = 24 */
(PID.TID 0000.0001)                 3.382550341391024E+04,      /* J = 25 */
(PID.TID 0000.0001)                 3.455488377140061E+04,      /* J = 26 */
(PID.TID 0000.0001)                 3.529935211332738E+04,      /* J = 27 */
(PID.TID 0000.0001)                 3.605898499520765E+04,      /* J = 28 */
(PID.TID 0000.0001)                 3.683386137397906E+04,      /* J = 29 */
(PID.TID 0000.0001)                 3.762406228407349E+04       /* J = 30 */
(PID.TID 0000.0001)     ;
(PID.TID 0000.0001) dyC =  /* dyC(:,1,:,1) ( units: m ) */
(PID.TID 0000.0001)                 3.678277710845771E+04,      /* I =  1 */
(PID.TID 0000.0001)                 3.685438685866048E+04,      /* I =  2 */
(PID.TID 0000.0001)                 3.692002588020908E+04,      /* I =  3 */
(PID.TID 0000.0001)                 3.697969453541307E+04,      /* I =  4 */
(PID.TID 0000.0001)                 3.703339337607873E+04,      /* I =  5 */
(PID.TID 0000.0001)                 3.708112307814123E+04,      /* I =  6 */
(PID.TID 0000.0001)                 3.712288438364359E+04,      /* I =  7 */
(PID.TID 0000.0001)                 3.715867804995441E+04,      /* I =  8 */
(PID.TID 0000.0001)                 3.718850480589901E+04,      /* I =  9 */
(PID.TID 0000.0001)                 3.721236531452968E+04,      /* I = 10 */
(PID.TID 0000.0001)                 3.723026014246432E+04,      /* I = 11 */
(PID.TID 0000.0001)                 3.724218973548726E+04,      /* I = 12 */
(PID.TID 0000.0001)     2 @  3.724815440020872E+04,             /* I = 13: 14 */
(PID.TID 0000.0001)                 3.724218973548726E+04,      /* I = 15 */
(PID.TID 0000.0001)                 3.723026014246432E+04,      /* I = 16 */
(PID.TID 0000.0001)                 3.721236531452968E+04,      /* I = 17 */
(PID.TID 0000.0001)                 3.718850480589901E+04,      /* I = 18 */
(PID.TID 0000.0001)                 3.715867804995440E+04,      /* I = 19 */
(PID.TID 0000.0001)                 3.712288438364359E+04,      /* I = 20 */
(PID.TID 0000.0001)                 3.708112307814122E+04,      /* I = 21 */
(PID.TID 0000.0001)                 3.703339337607873E+04,      /* I = 22 */
(PID.TID 0000.0001)                 3.697969453541307E+04,      /* I = 23 */
(PID.TID 0000.0001)                 3.692002588020908E+04,      /* I = 24 */
(PID.TID 0000.0001)                 3.685438685866047E+04,      /* I = 25 */
(PID.TID 0000.0001)                 3.678277710845772E+04,      /* I = 26 */
(PID.TID 0000.0001)                 3.670519653011381E+04,      /* I = 27 */
(PID.TID 0000.0001)                 3.662164536844059E+04,      /* I = 28 */
(PID.TID 0000.0001)                 3.653212430257830E+04,      /* I = 29 */
(PID.TID 0000.0001)                 3.643663454523116E+04       /* I = 30 */
(PID.TID 0000.0001)     ;
(PID.TID 0000.0001) dyC =  /* dyC(1,:,1,:) ( units: m ) */
(PID.TID 0000.0001)                 3.678277710845771E+04,      /* J =  1 */
(PID.TID 0000.0001)                 3.723168694115569E+04,      /* J =  2 */
(PID.TID 0000.0001)                 3.767901897410101E+04,      /* J =  3 */
(PID.TID 0000.0001)                 3.812467364657602E+04,      /* J =  4 */
(PID.TID 0000.0001)                 3.856855210935249E+04,      /* J =  5 */
(PID.TID 0000.0001)                 3.901055633269680E+04,      /* J =  6 */
(PID.TID 0000.0001)                 3.945058917911859E+04,      /* J =  7 */
(PID.TID 0000.0001)                 3.988855443472220E+04,      /* J =  8 */
(PID.TID 0000.0001)                 4.032435681898361E+04,      /* J =  9 */
(PID.TID 0000.0001)                 4.075790196435841E+04,      /* J = 10 */
(PID.TID 0000.0001)                 4.118909638222960E+04,      /* J = 11 */
(PID.TID 0000.0001)                 4.161784741043697E+04,      /* J = 12 */
(PID.TID 0000.0001)                 4.204406315499045E+04,      /* J = 13 */
(PID.TID 0000.0001)                 4.246765242091182E+04,      /* J = 14 */
(PID.TID 0000.0001)                 4.288852464034393E+04,      /* J = 15 */
(PID.TID 0000.0001)                 4.330658981118225E+04,      /* J = 16 */
(PID.TID 0000.0001)                 4.372175841431943E+04,      /* J = 17 */
(PID.TID 0000.0001)                 4.413394136293020E+04,      /* J = 18 */
(PID.TID 0000.0001)                 4.454304993440304E+04,      /* J = 19 */
(PID.TID 0000.0001)                 4.494899572325061E+04,      /* J = 20 */
(PID.TID 0000.0001)                 4.535169059286820E+04,      /* J = 21 */
(PID.TID 0000.0001)                 4.575104664412256E+04,      /* J = 22 */
(PID.TID 0000.0001)                 4.614697618947234E+04,      /* J = 23 */
(PID.TID 0000.0001)                 4.653939173844085E+04,      /* J = 24 */
(PID.TID 0000.0001)                 4.692820600744408E+04,      /* J = 25 */
(PID.TID 0000.0001)                 4.731333194957835E+04,      /* J = 26 */
(PID.TID 0000.0001)                 4.769468283927006E+04,      /* J = 27 */
(PID.TID 0000.0001)                 4.807217249390641E+04,      /* J = 28 */
(PID.TID 0000.0001)                 4.844571593362943E+04,      /* J = 29 */
(PID.TID 0000.0001)                 4.881523285497380E+04       /* J = 30 */
(PID.TID 0000.0001)     ;
(PID.TID 0000.0001) dxV =  /* dxV(:,1,:,1) ( units: m ) */
(PID.TID 0000.0001)                 2.053110526075532E+04,      /* I =  1 */
(PID.TID 0000.0001)                 2.052326088418283E+04,      /* I =  2 */
(PID.TID 0000.0001)                 2.051595672244828E+04,      /* I =  3 */
(PID.TID 0000.0001)                 2.050921502797681E+04,      /* I =  4 */
(PID.TID 0000.0001)                 2.050305593886370E+04,      /* I =  5 */
(PID.TID 0000.0001)                 2.049749752783181E+04,      /* I =  6 */
(PID.TID 0000.0001)                 2.049255584793284E+04,      /* I =  7 */
(PID.TID 0000.0001)                 2.048824497292525E+04,      /* I =  8 */
(PID.TID 0000.0001)                 2.048457703515834E+04,      /* I =  9 */
(PID.TID 0000.0001)                 2.048156226915133E+04,      /* I = 10 */
(PID.TID 0000.0001)                 2.047920906551970E+04,      /* I = 11 */
(PID.TID 0000.0001)                 2.047752414469434E+04,      /* I = 12 */
(PID.TID 0000.0001)                 2.047651405696554E+04,      /* I = 13 */
(PID.TID 0000.0001)                 2.047614194664622E+04,      /* I = 14 */
(PID.TID 0000.0001)                 2.047651405696559E+04,      /* I = 15 */
(PID.TID 0000.0001)                 2.047752414469430E+04,      /* I = 16 */
(PID.TID 0000.0001)                 2.047920906551971E+04,      /* I = 17 */
(PID.TID 0000.0001)                 2.048156226915138E+04,      /* I = 18 */
(PID.TID 0000.0001)                 2.048457703515829E+04,      /* I = 19 */
(PID.TID 0000.0001)                 2.048824497292535E+04,      /* I = 20 */
(PID.TID 0000.0001)                 2.049255584793274E+04,      /* I = 21 */
(PID.TID 0000.0001)                 2.049749752783187E+04,      /* I = 22 */
(PID.TID 0000.0001)                 2.050305593886373E+04,      /* I = 23 */
(PID.TID 0000.0001)                 2.050921502797675E+04,      /* I = 24 */
(PID.TID 0000.0001)                 2.051595672244826E+04,      /* I = 25 */
(PID.TID 0000.0001)                 2.052326088418290E+04,      /* I = 26 */
(PID.TID 0000.0001)                 2.053110526075532E+04,      /* I = 27 */
(PID.TID 0000.0001)                 2.053946543494557E+04,      /* I = 28 */
(PID.TID 0000.0001)                 2.054831476098181E+04,      /* I = 29 */
(PID.TID 0000.0001)                 2.055762430839241E+04       /* I = 30 */
(PID.TID 0000.0001)     ;
(PID.TID 0000.0001) dxV =  /* dxV(1,:,1,:) ( units: m ) */
(PID.TID 0000.0001)                 2.053110526075532E+04,      /* J =  1 */
(PID.TID 0000.0001)                 2.090385356266093E+04,      /* J =  2 */
(PID.TID 0000.0001)                 2.129102607314009E+04,      /* J =  3 */
(PID.TID 0000.0001)                 2.169262269996662E+04,      /* J =  4 */
(PID.TID 0000.0001)                 2.210864071595607E+04,      /* J =  5 */
(PID.TID 0000.0001)                 2.253907593617405E+04,      /* J =  6 */
(PID.TID 0000.0001)                 2.298392379458377E+04,      /* J =  7 */
(PID.TID 0000.0001)                 2.344318031700113E+04,      /* J =  8 */
(PID.TID 0000.0001)                 2.391684298864163E+04,      /* J =  9 */
(PID.TID 0000.0001)                 2.440491151699962E+04,      /* J = 10 */
(PID.TID 0000.0001)                 2.490738849171163E+04,      /* J = 11 */
(PID.TID 0000.0001)                 2.542427994477456E+04,      /* J = 12 */
(PID.TID 0000.0001)                 2.595559581485789E+04,      /* J = 13 */
(PID.TID 0000.0001)                 2.650135032062733E+04,      /* J = 14 */
(PID.TID 0000.0001)                 2.706156224833991E+04,      /* J = 15 */
(PID.TID 0000.0001)                 2.763625515890197E+04,      /* J = 16 */
(PID.TID 0000.0001)                 2.822545752042790E+04,      /* J = 17 */
(PID.TID 0000.0001)                 2.882920277162976E+04,      /* J = 18 */
(PID.TID 0000.0001)                 2.944752932187136E+04,      /* J = 19 */
(PID.TID 0000.0001)                 3.008048049319959E+04,      /* J = 20 */
(PID.TID 0000.0001)                 3.072810440966728E+04,      /* J = 21 */
(PID.TID 0000.0001)                 3.139045383903842E+04,      /* J = 22 */
(PID.TID 0000.0001)                 3.206758599174654E+04,      /* J = 23 */
(PID.TID 0000.0001)                 3.275956228156967E+04,      /* J = 24 */
(PID.TID 0000.0001)                 3.346644805244220E+04,      /* J = 25 */
(PID.TID 0000.0001)                 3.418831227550044E+04,      /* J = 26 */
(PID.TID 0000.0001)                 3.492522722017510E+04,      /* J = 27 */
(PID.TID 0000.0001)                 3.567726810399632E+04,      /* J = 28 */
(PID.TID 0000.0001)                 3.644451272859776E+04,      /* J = 29 */
(PID.TID 0000.0001)                 3.722704112152557E+04       /* J = 30 */
(PID.TID 0000.0001)     ;
(PID.TID 0000.0001) dyU =  /* dyU(:,1,:,1) ( units: m ) */
(PID.TID 0000.0001)                 3.674473316658630E+04,      /* I =  1 */
(PID.TID 0000.0001)                 3.681932833792822E+04,      /* I =  2 */
(PID.TID 0000.0001)                 3.688795269313092E+04,      /* I =  3 */
(PID.TID 0000.0001)                 3.695060647275718E+04,      /* I =  4 */
(PID.TID 0000.0001)                 3.700729014250917E+04,      /* I =  5 */
(PID.TID 0000.0001)                 3.705800432398131E+04,      /* I =  6 */
(PID.TID 0000.0001)                 3.710274973294064E+04,      /* I =  7 */
(PID.TID 0000.0001)                 3.714152712500728E+04,      /* I =  8 */
(PID.TID 0000.0001)                 3.717433724834998E+04,      /* I =  9 */
(PID.TID 0000.0001)                 3.720118080314009E+04,      /* I = 10 */
(PID.TID 0000.0001)                 3.722205840764935E+04,      /* I = 11 */
(PID.TID 0000.0001)                 3.723697057073888E+04,      /* I = 12 */
(PID.TID 0000.0001)                 3.724591767054543E+04,      /* I = 13 */
(PID.TID 0000.0001)                 3.724891083990022E+04,      /* I = 14 */
(PID.TID 0000.0001)                 3.724591767054542E+04,      /* I = 15 */
(PID.TID 0000.0001)                 3.723697057073889E+04,      /* I = 16 */
(PID.TID 0000.0001)                 3.722205840764935E+04,      /* I = 17 */
(PID.TID 0000.0001)                 3.720118080314008E+04,      /* I = 18 */
(PID.TID 0000.0001)                 3.717433724834998E+04,      /* I = 19 */
(PID.TID 0000.0001)                 3.714152712500728E+04,      /* I = 20 */
(PID.TID 0000.0001)                 3.710274973294063E+04,      /* I = 21 */
(PID.TID 0000.0001)                 3.705800432398131E+04,      /* I = 22 */
(PID.TID 0000.0001)                 3.700729014250917E+04,      /* I = 23 */
(PID.TID 0000.0001)                 3.695060647275716E+04,      /* I = 24 */
(PID.TID 0000.0001)                 3.688795269313094E+04,      /* I = 25 */
(PID.TID 0000.0001)                 3.681932833792821E+04,      /* I = 26 */
(PID.TID 0000.0001)                 3.674473316658630E+04,      /* I = 27 */
(PID.TID 0000.0001)                 3.666416724104654E+04,      /* I = 28 */
(PID.TID 0000.0001)                 3.657763101146962E+04,      /* I = 29 */
(PID.TID 0000.0001)                 3.648512541079492E+04       /* I = 30 */
(PID.TID 0000.0001)     ;
(PID.TID 0000.0001) dyU =  /* dyU(1,:,1,:) ( units: m ) */
(PID.TID 0000.0001)                 3.674473316658630E+04,      /* J =  1 */
(PID.TID 0000.0001)                 3.719361547538896E+04,      /* J =  2 */
(PID.TID 0000.0001)                 3.764089459751266E+04,      /* J =  3 */
(PID.TID 0000.0001)                 3.808646730382765E+04,      /* J =  4 */
(PID.TID 0000.0001)                 3.853023123895088E+04,      /* J =  5 */
(PID.TID 0000.0001)                 3.897208503739593E+04,      /* J =  6 */
(PID.TID 0000.0001)                 3.941192840112046E+04,      /* J =  7 */
(PID.TID 0000.0001)                 3.984966213263487E+04,      /* J =  8 */
(PID.TID 0000.0001)                 4.028518814419441E+04,      /* J =  9 */
(PID.TID 0000.0001)                 4.071840943468107E+04,      /* J = 10 */
(PID.TID 0000.0001)                 4.114923005120406E+04,      /* J = 11 */
(PID.TID 0000.0001)                 4.157755503103340E+04,      /* J = 12 */
(PID.TID 0000.0001)                 4.200329033666767E+04,      /* J = 13 */
(PID.TID 0000.0001)                 4.242634277960793E+04,      /* J = 14 */
(PID.TID 0000.0001)                 4.284661994092684E+04,      /* J = 15 */
(PID.TID 0000.0001)                 4.326403010205203E+04,      /* J = 16 */
(PID.TID 0000.0001)                 4.367848215462093E+04,      /* J = 17 */
(PID.TID 0000.0001)                 4.408988554208750E+04,      /* J = 18 */
(PID.TID 0000.0001)                 4.449815018464295E+04,      /* J = 19 */
(PID.TID 0000.0001)                 4.490318642518511E+04,      /* J = 20 */
(PID.TID 0000.0001)                 4.530490497491705E+04,      /* J = 21 */
(PID.TID 0000.0001)                 4.570321687598708E+04,      /* J = 22 */
(PID.TID 0000.0001)                 4.609803347024994E+04,      /* J = 23 */
(PID.TID 0000.0001)                 4.648926637992392E+04,      /* J = 24 */
(PID.TID 0000.0001)                 4.687682751321772E+04,      /* J = 25 */
(PID.TID 0000.0001)                 4.726062909013533E+04,      /* J = 26 */
(PID.TID 0000.0001)                 4.764058372401170E+04,      /* J = 27 */
(PID.TID 0000.0001)                 4.801660464021451E+04,      /* J = 28 */
(PID.TID 0000.0001)                 4.838860633247659E+04,      /* J = 29 */
(PID.TID 0000.0001)                 4.875650803021456E+04       /* J = 30 */
(PID.TID 0000.0001)     ;
(PID.TID 0000.0001) rA  =  /* rA (:,1,:,1) ( units: m^2 ) */
(PID.TID 0000.0001)                 7.665113621396177E+08,      /* I =  1 */
(PID.TID 0000.0001)                 7.677029697239892E+08,      /* I =  2 */
(PID.TID 0000.0001)                 7.687913877455838E+08,      /* I =  3 */
(PID.TID 0000.0001)                 7.697775979751738E+08,      /* I =  4 */
(PID.TID 0000.0001)                 7.706625466485583E+08,      /* I =  5 */
(PID.TID 0000.0001)                 7.714470546020026E+08,      /* I =  6 */
(PID.TID 0000.0001)                 7.721318586456149E+08,      /* I =  7 */
(PID.TID 0000.0001)                 7.727176271684608E+08,      /* I =  8 */
(PID.TID 0000.0001)                 7.732049082776864E+08,      /* I =  9 */
(PID.TID 0000.0001)                 7.735941717305043E+08,      /* I = 10 */
(PID.TID 0000.0001)                 7.738858051500469E+08,      /* I = 11 */
(PID.TID 0000.0001)                 7.740801100790358E+08,      /* I = 12 */
(PID.TID 0000.0001)                 7.741766386182301E+08,      /* I = 13 */
(PID.TID 0000.0001)                 7.741766369784317E+08,      /* I = 14 */
(PID.TID 0000.0001)                 7.740801094843833E+08,      /* I = 15 */
(PID.TID 0000.0001)                 7.738858062852919E+08,      /* I = 16 */
(PID.TID 0000.0001)                 7.735941726495122E+08,      /* I = 17 */
(PID.TID 0000.0001)                 7.732049061873938E+08,      /* I = 18 */
(PID.TID 0000.0001)                 7.727176277450933E+08,      /* I = 19 */
(PID.TID 0000.0001)                 7.721318658895597E+08,      /* I = 20 */
(PID.TID 0000.0001)                 7.714470531424019E+08,      /* I = 21 */
(PID.TID 0000.0001)                 7.706625470810328E+08,      /* I = 22 */
(PID.TID 0000.0001)                 7.697776024260553E+08,      /* I = 23 */
(PID.TID 0000.0001)                 7.687913844659867E+08,      /* I = 24 */
(PID.TID 0000.0001)                 7.677029712196296E+08,      /* I = 25 */
(PID.TID 0000.0001)                 7.665113646083255E+08,      /* I = 26 */
(PID.TID 0000.0001)                 7.652154604170089E+08,      /* I = 27 */
(PID.TID 0000.0001)                 7.638140926048064E+08,      /* I = 28 */
(PID.TID 0000.0001)                 7.623059927966076E+08,      /* I = 29 */
(PID.TID 0000.0001)                 7.606898330980235E+08       /* I = 30 */
(PID.TID 0000.0001)     ;
(PID.TID 0000.0001) rA  =  /* rA (1,:,1,:) ( units: m^2 ) */
(PID.TID 0000.0001)                 7.665113621396177E+08,      /* J =  1 */
(PID.TID 0000.0001)                 7.900134359449342E+08,      /* J =  2 */
(PID.TID 0000.0001)                 8.143679155417176E+08,      /* J =  3 */
(PID.TID 0000.0001)                 8.395900636155584E+08,      /* J =  4 */
(PID.TID 0000.0001)                 8.656947784023314E+08,      /* J =  5 */
(PID.TID 0000.0001)                 8.926966010402582E+08,      /* J =  6 */
(PID.TID 0000.0001)                 9.206097737377057E+08,      /* J =  7 */
(PID.TID 0000.0001)                 9.494482582794807E+08,      /* J =  8 */
(PID.TID 0000.0001)                 9.792257431806778E+08,      /* J =  9 */
(PID.TID 0000.0001)                 1.009955679131553E+09,      /* J = 10 */
(PID.TID 0000.0001)                 1.041651296044221E+09,      /* J = 11 */
(PID.TID 0000.0001)                 1.074325614369065E+09,      /* J = 12 */
(PID.TID 0000.0001)                 1.107991467925779E+09,      /* J = 13 */
(PID.TID 0000.0001)                 1.142661498173082E+09,      /* J = 14 */
(PID.TID 0000.0001)                 1.178348167164929E+09,      /* J = 15 */
(PID.TID 0000.0001)                 1.215063762235644E+09,      /* J = 16 */
(PID.TID 0000.0001)                 1.252820414073754E+09,      /* J = 17 */
(PID.TID 0000.0001)                 1.291630043617734E+09,      /* J = 18 */
(PID.TID 0000.0001)                 1.331504416619858E+09,      /* J = 19 */
(PID.TID 0000.0001)                 1.372455096362339E+09,      /* J = 20 */
(PID.TID 0000.0001)                 1.414493440828222E+09,      /* J = 21 */
(PID.TID 0000.0001)                 1.457630613639386E+09,      /* J = 22 */
(PID.TID 0000.0001)                 1.501877517761831E+09,      /* J = 23 */
(PID.TID 0000.0001)                 1.547244834049951E+09,      /* J = 24 */
(PID.TID 0000.0001)                 1.593742963439136E+09,      /* J = 25 */
(PID.TID 0000.0001)                 1.641382020566774E+09,      /* J = 26 */
(PID.TID 0000.0001)                 1.690171807481416E+09,      /* J = 27 */
(PID.TID 0000.0001)                 1.740121820832662E+09,      /* J = 28 */
(PID.TID 0000.0001)                 1.791241246411172E+09,      /* J = 29 */
(PID.TID 0000.0001)                 1.843539059771026E+09       /* J = 30 */
(PID.TID 0000.0001)     ;
(PID.TID 0000.0001) rAw =  /* rAw(:,1,:,1) ( units: m^2 ) */
(PID.TID 0000.0001)                 7.658765213139513E+08,      /* I =  1 */
(PID.TID 0000.0001)                 7.671201328724998E+08,      /* I =  2 */
(PID.TID 0000.0001)                 7.682600121490355E+08,      /* I =  3 */
(PID.TID 0000.0001)                 7.692972101823016E+08,      /* I =  4 */
(PID.TID 0000.0001)                 7.702326756407654E+08,      /* I =  5 */
(PID.TID 0000.0001)                 7.710673044850856E+08,      /* I =  6 */
(PID.TID 0000.0001)                 7.718018764844863E+08,      /* I =  7 */
(PID.TID 0000.0001)                 7.724370884091616E+08,      /* I =  8 */
(PID.TID 0000.0001)                 7.729735468223690E+08,      /* I =  9 */
(PID.TID 0000.0001)                 7.734117650170708E+08,      /* I = 10 */
(PID.TID 0000.0001)                 7.737521718456172E+08,      /* I = 11 */
(PID.TID 0000.0001)                 7.739951054308500E+08,      /* I = 12 */
(PID.TID 0000.0001)                 7.741408739107244E+08,      /* I = 13 */
(PID.TID 0000.0001)                 7.741880730050739E+08,      /* I = 14 */
(PID.TID 0000.0001)                 7.741408710636016E+08,      /* I = 15 */
(PID.TID 0000.0001)                 7.739951071427275E+08,      /* I = 16 */
(PID.TID 0000.0001)                 7.737521718095777E+08,      /* I = 17 */
(PID.TID 0000.0001)                 7.734117675938969E+08,      /* I = 18 */
(PID.TID 0000.0001)                 7.729735457051437E+08,      /* I = 19 */
(PID.TID 0000.0001)                 7.724370889497546E+08,      /* I = 20 */
(PID.TID 0000.0001)                 7.718018793856685E+08,      /* I = 21 */
(PID.TID 0000.0001)                 7.710673053320146E+08,      /* I = 22 */
(PID.TID 0000.0001)                 7.702326816053071E+08,      /* I = 23 */
(PID.TID 0000.0001)                 7.692972065242898E+08,      /* I = 24 */
(PID.TID 0000.0001)                 7.682600115363635E+08,      /* I = 25 */
(PID.TID 0000.0001)                 7.671201363863536E+08,      /* I = 26 */
(PID.TID 0000.0001)                 7.658765213499908E+08,      /* I = 27 */
(PID.TID 0000.0001)                 7.645280345158333E+08,      /* I = 28 */
(PID.TID 0000.0001)                 7.630734673343852E+08,      /* I = 29 */
(PID.TID 0000.0001)                 7.615115062009304E+08       /* I = 30 */
(PID.TID 0000.0001)     ;
(PID.TID 0000.0001) rAw =  /* rAw(1,:,1,:) ( units: m^2 ) */
(PID.TID 0000.0001)                 7.658765213139513E+08,      /* J =  1 */
(PID.TID 0000.0001)                 7.893768970448780E+08,      /* J =  2 */
(PID.TID 0000.0001)                 8.137283914516071E+08,      /* J =  3 */
(PID.TID 0000.0001)                 8.389460603348250E+08,      /* J =  4 */
(PID.TID 0000.0001)                 8.650445848102766E+08,      /* J =  5 */
(PID.TID 0000.0001)                 8.920382782103341E+08,      /* J =  6 */
(PID.TID 0000.0001)                 9.199411445401106E+08,      /* J =  7 */
(PID.TID 0000.0001)                 9.487668893433769E+08,      /* J =  8 */
(PID.TID 0000.0001)                 9.785289545527842E+08,      /* J =  9 */
(PID.TID 0000.0001)                 1.009240515336406E+09,      /* J = 10 */
(PID.TID 0000.0001)                 1.040914522930714E+09,      /* J = 11 */
(PID.TID 0000.0001)                 1.073563715488477E+09,      /* J = 12 */
(PID.TID 0000.0001)                 1.107200612276400E+09,      /* J = 13 */
(PID.TID 0000.0001)                 1.141837554111466E+09,      /* J = 14 */
(PID.TID 0000.0001)                 1.177486672294872E+09,      /* J = 15 */
(PID.TID 0000.0001)                 1.214159933192917E+09,      /* J = 16 */
(PID.TID 0000.0001)                 1.251869095602249E+09,      /* J = 17 */
(PID.TID 0000.0001)                 1.290625742284441E+09,      /* J = 18 */
(PID.TID 0000.0001)                 1.330441258846839E+09,      /* J = 19 */
(PID.TID 0000.0001)                 1.371326820624166E+09,      /* J = 20 */
(PID.TID 0000.0001)                 1.413293399742275E+09,      /* J = 21 */
(PID.TID 0000.0001)                 1.456351737475827E+09,      /* J = 22 */
(PID.TID 0000.0001)                 1.500512320083793E+09,      /* J = 23 */
(PID.TID 0000.0001)                 1.545785394792978E+09,      /* J = 24 */
(PID.TID 0000.0001)                 1.592180902277974E+09,      /* J = 25 */
(PID.TID 0000.0001)                 1.639708504465653E+09,      /* J = 26 */
(PID.TID 0000.0001)                 1.688377519501836E+09,      /* J = 27 */
(PID.TID 0000.0001)                 1.738196956421325E+09,      /* J = 28 */
(PID.TID 0000.0001)                 1.789175499722981E+09,      /* J = 29 */
(PID.TID 0000.0001)                 1.841321602441802E+09       /* J = 30 */
(PID.TID 0000.0001)     ;
(PID.TID 0000.0001) rAs =  /* rAs(:,1,:,1) ( units: m^2 ) */
(PID.TID 0000.0001)                 7.550751050606852E+08,      /* I =  1 */
(PID.TID 0000.0001)                 7.562658447772087E+08,      /* I =  2 */
(PID.TID 0000.0001)                 7.573533970032284E+08,      /* I =  3 */
(PID.TID 0000.0001)                 7.583387692957978E+08,      /* I =  4 */
(PID.TID 0000.0001)                 7.592229121974397E+08,      /* I =  5 */
(PID.TID 0000.0001)                 7.600066705467438E+08,      /* I =  6 */
(PID.TID 0000.0001)                 7.606907923080522E+08,      /* I =  7 */
(PID.TID 0000.0001)                 7.612759532224941E+08,      /* I =  8 */
(PID.TID 0000.0001)                 7.617627129118443E+08,      /* I =  9 */
(PID.TID 0000.0001)                 7.621515550445726E+08,      /* I = 10 */
(PID.TID 0000.0001)                 7.624428588466020E+08,      /* I = 11 */
(PID.TID 0000.0001)                 7.626369483673384E+08,      /* I = 12 */
(PID.TID 0000.0001)                 7.627333738515058E+08,      /* I = 13 */
(PID.TID 0000.0001)                 7.627333728604188E+08,      /* I = 14 */
(PID.TID 0000.0001)                 7.626369508901051E+08,      /* I = 15 */
(PID.TID 0000.0001)                 7.624428655319341E+08,      /* I = 16 */
(PID.TID 0000.0001)                 7.621515526659639E+08,      /* I = 17 */
(PID.TID 0000.0001)                 7.617627197953936E+08,      /* I = 18 */
(PID.TID 0000.0001)                 7.612759510961621E+08,      /* I = 19 */
(PID.TID 0000.0001)                 7.606907969030919E+08,      /* I = 20 */
(PID.TID 0000.0001)                 7.600066694295187E+08,      /* I = 21 */
(PID.TID 0000.0001)                 7.592229103594238E+08,      /* I = 22 */
(PID.TID 0000.0001)                 7.583387684488690E+08,      /* I = 23 */
(PID.TID 0000.0001)                 7.573533915792797E+08,      /* I = 24 */
(PID.TID 0000.0001)                 7.562658465071062E+08,      /* I = 25 */
(PID.TID 0000.0001)                 7.550751079979067E+08,      /* I = 26 */
(PID.TID 0000.0001)                 7.537800585200102E+08,      /* I = 27 */
(PID.TID 0000.0001)                 7.523795064624999E+08,      /* I = 28 */
(PID.TID 0000.0001)                 7.508721675027735E+08,      /* I = 29 */
(PID.TID 0000.0001)                 7.492566800675046E+08       /* I = 30 */
(PID.TID 0000.0001)     ;
(PID.TID 0000.0001) rAs =  /* rAs(1,:,1,:) ( units: m^2 ) */
(PID.TID 0000.0001)                 7.550751050606852E+08,      /* J =  1 */
(PID.TID 0000.0001)                 7.781568160584769E+08,      /* J =  2 */
(PID.TID 0000.0001)                 8.020831616625657E+08,      /* J =  3 */
(PID.TID 0000.0001)                 8.268695937660589E+08,      /* J =  4 */
(PID.TID 0000.0001)                 8.525311818286231E+08,      /* J =  5 */
(PID.TID 0000.0001)                 8.790826547724357E+08,      /* J =  6 */
(PID.TID 0000.0001)                 9.065383887828039E+08,      /* J =  7 */
(PID.TID 0000.0001)                 9.349124897125442E+08,      /* J =  8 */
(PID.TID 0000.0001)                 9.642187819277472E+08,      /* J =  9 */
(PID.TID 0000.0001)                 9.944708240750725E+08,      /* J = 10 */
(PID.TID 0000.0001)                 1.025681954725808E+09,      /* J = 11 */
(PID.TID 0000.0001)                 1.057865313008499E+09,      /* J = 12 */
(PID.TID 0000.0001)                 1.091033805921100E+09,      /* J = 13 */
(PID.TID 0000.0001)                 1.125200178247652E+09,      /* J = 14 */
(PID.TID 0000.0001)                 1.160376979600140E+09,      /* J = 15 */
(PID.TID 0000.0001)                 1.196576586510721E+09,      /* J = 16 */
(PID.TID 0000.0001)                 1.233811208089928E+09,      /* J = 17 */
(PID.TID 0000.0001)                 1.272092866313053E+09,      /* J = 18 */
(PID.TID 0000.0001)                 1.311433405822894E+09,      /* J = 19 */
(PID.TID 0000.0001)                 1.351844507714875E+09,      /* J = 20 */
(PID.TID 0000.0001)                 1.393337606051485E+09,      /* J = 21 */
(PID.TID 0000.0001)                 1.435923987908001E+09,      /* J = 22 */
(PID.TID 0000.0001)                 1.479614675036705E+09,      /* J = 23 */
(PID.TID 0000.0001)                 1.524420466465598E+09,      /* J = 24 */
(PID.TID 0000.0001)                 1.570351910729954E+09,      /* J = 25 */
(PID.TID 0000.0001)                 1.617419255741331E+09,      /* J = 26 */
(PID.TID 0000.0001)                 1.665632470339211E+09,      /* J = 27 */
(PID.TID 0000.0001)                 1.715001205152071E+09,      /* J = 28 */
(PID.TID 0000.0001)                 1.765534790867491E+09,      /* J = 29 */
(PID.TID 0000.0001)                 1.817242347954489E+09       /* J = 30 */
(PID.TID 0000.0001)     ;
(PID.TID 0000.0001) globalArea = /* Integrated horizontal Area (m^2) */
(PID.TID 0000.0001)                 3.580138611494433E+14
(PID.TID 0000.0001)     ;
(PID.TID 0000.0001) hasWetCSCorners = /* Domain contains CS corners (True/False) */
(PID.TID 0000.0001)                   F
(PID.TID 0000.0001)     ;
(PID.TID 0000.0001) // =======================================================
(PID.TID 0000.0001) // End of Model config. summary
(PID.TID 0000.0001) // =======================================================
(PID.TID 0000.0001) 
(PID.TID 0000.0001) == Packages configuration : Check & print summary ==
(PID.TID 0000.0001) 
(PID.TID 0000.0001) KPP_CHECK: #define ALLOW_KPP
(PID.TID 0000.0001) GAD_CHECK: #define ALLOW_GENERIC_ADVDIFF
(PID.TID 0000.0001) // =======================================================
(PID.TID 0000.0001) // Check Model config. (CONFIG_CHECK):
(PID.TID 0000.0001) // CONFIG_CHECK : Normal End
(PID.TID 0000.0001) // =======================================================
(PID.TID 0000.0001) 
(PID.TID 0000.0001)  MDS_READ_META: opening file: pickup.0000000001.meta
(PID.TID 0000.0001)  nRecords = 403 ; filePrec =  64 ; fileIter =     26280
(PID.TID 0000.0001)     nDims =   2 , dims:
(PID.TID 0000.0001)    1:  90   1  90
(PID.TID 0000.0001)    2:1170   11170
(PID.TID 0000.0001)     nFlds =  11 , nFl3D =   8 , fields:
(PID.TID 0000.0001)  >Uvel    < >Vvel    < >Theta   < >Salt    < >GuNm1   < >GuNm2   < >GvNm1   < >GvNm2   < >EtaN    < >dEtaHdt < >EtaH    <
(PID.TID 0000.0001) missingVal=  1.00000000000000E+00 ; nTimRec =   1 , timeList:
(PID.TID 0000.0001)   9.460800000000E+07
(PID.TID 0000.0001) READ_MFLDS_3D_RL: read field: "Uvel    ", #   1 in fldList, rec=   1
(PID.TID 0000.0001)  MDS_READ_FIELD: opening global file: pickup.0000000001.data
(PID.TID 0000.0001) READ_MFLDS_3D_RL: read field: "Vvel    ", #   2 in fldList, rec=   2
(PID.TID 0000.0001)  MDS_READ_FIELD: opening global file: pickup.0000000001.data
(PID.TID 0000.0001) READ_MFLDS_3D_RL: read field: "Theta   ", #   3 in fldList, rec=   3
(PID.TID 0000.0001)  MDS_READ_FIELD: opening global file: pickup.0000000001.data
(PID.TID 0000.0001) READ_MFLDS_3D_RL: read field: "Salt    ", #   4 in fldList, rec=   4
(PID.TID 0000.0001)  MDS_READ_FIELD: opening global file: pickup.0000000001.data
(PID.TID 0000.0001) READ_MFLDS_3D_RL: read field: "GuNm1   ", #   5 in fldList, rec=   5
(PID.TID 0000.0001)  MDS_READ_FIELD: opening global file: pickup.0000000001.data
(PID.TID 0000.0001) READ_MFLDS_3D_RL: read field: "GvNm1   ", #   7 in fldList, rec=   7
(PID.TID 0000.0001)  MDS_READ_FIELD: opening global file: pickup.0000000001.data
(PID.TID 0000.0001) READ_MFLDS_3D_RL: read field: "EtaN    ", #   9 in fldList, rec= 401
(PID.TID 0000.0001)  MDS_READ_FIELD: opening global file: pickup.0000000001.data
(PID.TID 0000.0001) READ_MFLDS_3D_RL: read field: "dEtaHdt ", #  10 in fldList, rec= 402
(PID.TID 0000.0001)  MDS_READ_FIELD: opening global file: pickup.0000000001.data
(PID.TID 0000.0001) READ_MFLDS_CHECK: - normal end ; reset MFLDS file-name: pickup.0000000001
(PID.TID 0000.0001) // =======================================================
(PID.TID 0000.0001) // Model current state
(PID.TID 0000.0001) // =======================================================
(PID.TID 0000.0001) 
(PID.TID 0000.0001) SOLVE_FOR_PRESSURE: putPmEinXvector =    F
 cg2d: Sum(rhs),rhsMax =   4.28025205629351E+01  3.11536434780056E+00
 cg2d: Sum(rhs),rhsMax =   2.72883009879631E+01  4.83703660614956E+00
 cg2d: Sum(rhs),rhsMax =   2.64898282656661E+01  4.91246432618730E+00
 cg2d: Sum(rhs),rhsMax =   4.14389915838151E+01  3.10412829017089E+00
 cg2d: Sum(rhs),rhsMax =   3.32612155019942E+01  3.83429208146320E+00
 cg2d: Sum(rhs),rhsMax =   3.69525289282476E+01  3.42894149043079E+00
 cg2d: Sum(rhs),rhsMax =   3.54092408868794E+01  3.55949356074924E+00
(PID.TID 0000.0001)      cg2d_init_res =   2.89556481800323E+00
(PID.TID 0000.0001)      cg2d_iters(min,last) =      -1      26
(PID.TID 0000.0001)      cg2d_last_res =   6.62462705455950E-06
(PID.TID 0000.0001) // =======================================================
(PID.TID 0000.0001) // Begin MONITOR dynamic field statistics
(PID.TID 0000.0001) // =======================================================
(PID.TID 0000.0001) %MON time_tsnumber                =                     8
(PID.TID 0000.0001) %MON time_secondsf                =   7.2000000000000E+03
(PID.TID 0000.0001) %MON dynstat_eta_max              =   1.5242467746850E+00
(PID.TID 0000.0001) %MON dynstat_eta_min              =  -4.5718977014952E+00
(PID.TID 0000.0001) %MON dynstat_eta_mean             =  -1.4353254008687E-03
(PID.TID 0000.0001) %MON dynstat_eta_sd               =   7.4107441553254E-01
(PID.TID 0000.0001) %MON dynstat_eta_del2             =   2.7137378931864E-04
(PID.TID 0000.0001) %MON dynstat_uvel_max             =   1.1283347331780E+00
(PID.TID 0000.0001) %MON dynstat_uvel_min             =  -1.1762309190261E+00
(PID.TID 0000.0001) %MON dynstat_uvel_mean            =   2.1016541569211E-03
(PID.TID 0000.0001) %MON dynstat_uvel_sd              =   2.4061016504698E-02
(PID.TID 0000.0001) %MON dynstat_uvel_del2            =   2.7604385988471E-05
(PID.TID 0000.0001) %MON dynstat_vvel_max             =   8.4379492924032E-01
(PID.TID 0000.0001) %MON dynstat_vvel_min             =  -1.1051482354452E+00
(PID.TID 0000.0001) %MON dynstat_vvel_mean            =   1.1476147358964E-03
(PID.TID 0000.0001) %MON dynstat_vvel_sd              =   2.5208160868687E-02
(PID.TID 0000.0001) %MON dynstat_vvel_del2            =   2.6982604564818E-05
(PID.TID 0000.0001) %MON dynstat_wvel_max             =   1.4979197891610E-02
(PID.TID 0000.0001) %MON dynstat_wvel_min             =  -1.1160595666005E-02
(PID.TID 0000.0001) %MON dynstat_wvel_mean            =   6.2459144321985E-22
(PID.TID 0000.0001) %MON dynstat_wvel_sd              =   3.1011217124588E-04
(PID.TID 0000.0001) %MON dynstat_wvel_del2            =   6.4832586359736E-07
(PID.TID 0000.0001) %MON dynstat_theta_max            =   3.2662012400894E+01
(PID.TID 0000.0001) %MON dynstat_theta_min            =  -2.7359910152836E+00
(PID.TID 0000.0001) %MON dynstat_theta_mean           =   3.5901867842880E+00
(PID.TID 0000.0001) %MON dynstat_theta_sd             =   4.4236204642663E+00
(PID.TID 0000.0001) %MON dynstat_theta_del2           =   2.8656298534913E-04
(PID.TID 0000.0001) %MON dynstat_salt_max             =   4.0711525065400E+01
(PID.TID 0000.0001) %MON dynstat_salt_min             =   1.8852143398399E+01
(PID.TID 0000.0001) %MON dynstat_salt_mean            =   3.4725635888204E+01
(PID.TID 0000.0001) %MON dynstat_salt_sd              =   3.6841858172374E-01
(PID.TID 0000.0001) %MON dynstat_salt_del2            =   1.2379806085907E-04
(PID.TID 0000.0001) %MON dynstat_sst_max              =   3.2655481981236E+01
(PID.TID 0000.0001) %MON dynstat_sst_min              =  -2.7359910152836E+00
(PID.TID 0000.0001) %MON dynstat_sst_mean             =   1.8271586804635E+01
(PID.TID 0000.0001) %MON dynstat_sst_sd               =   1.0219132488029E+01
(PID.TID 0000.0001) %MON dynstat_sst_del2             =   2.6424731308395E-03
(PID.TID 0000.0001) %MON dynstat_sss_max              =   3.9661584287508E+01
(PID.TID 0000.0001) %MON dynstat_sss_min              =   1.8908649012288E+01
(PID.TID 0000.0001) %MON dynstat_sss_mean             =   3.4816840924027E+01
(PID.TID 0000.0001) %MON dynstat_sss_sd               =   1.0086929312819E+00
(PID.TID 0000.0001) %MON dynstat_sss_del2             =   1.9867221983695E-03
(PID.TID 0000.0001) %MON forcing_qnet_max             =   1.4842519581021E+03
(PID.TID 0000.0001) %MON forcing_qnet_min             =  -8.3993390052780E+03
(PID.TID 0000.0001) %MON forcing_qnet_mean            =  -1.1429158444475E+02
(PID.TID 0000.0001) %MON forcing_qnet_sd              =   4.2471280511360E+02
(PID.TID 0000.0001) %MON forcing_qnet_del2            =   1.7507884883524E+00
(PID.TID 0000.0001) %MON forcing_qsw_max              =   0.0000000000000E+00
(PID.TID 0000.0001) %MON forcing_qsw_min              =  -5.4511060094120E+02
(PID.TID 0000.0001) %MON forcing_qsw_mean             =  -1.1044320560552E+02
(PID.TID 0000.0001) %MON forcing_qsw_sd               =   1.5152856592446E+02
(PID.TID 0000.0001) %MON forcing_qsw_del2             =   2.5666327716482E-01
(PID.TID 0000.0001) %MON forcing_empmr_max            =   3.8347712252289E-03
(PID.TID 0000.0001) %MON forcing_empmr_min            =  -8.4626965224743E-02
(PID.TID 0000.0001) %MON forcing_empmr_mean           =  -8.1532665128692E-06
(PID.TID 0000.0001) %MON forcing_empmr_sd             =   3.8144749769410E-04
(PID.TID 0000.0001) %MON forcing_empmr_del2           =   2.6544458891697E-06
(PID.TID 0000.0001) %MON forcing_fu_max               =   1.3817960023880E+00
(PID.TID 0000.0001) %MON forcing_fu_min               =  -1.4561327695847E+00
(PID.TID 0000.0001) %MON forcing_fu_mean              =   1.2663277292583E-02
(PID.TID 0000.0001) %MON forcing_fu_sd                =   1.2056429655215E-01
(PID.TID 0000.0001) %MON forcing_fu_del2              =   1.8021793728067E-04
(PID.TID 0000.0001) %MON forcing_fv_max               =   8.6435621976852E-01
(PID.TID 0000.0001) %MON forcing_fv_min               =  -8.4940835655055E-01
(PID.TID 0000.0001) %MON forcing_fv_mean              =  -5.3906913538079E-03
(PID.TID 0000.0001) %MON forcing_fv_sd                =   1.1672064009164E-01
(PID.TID 0000.0001) %MON forcing_fv_del2              =   1.4455961417536E-04
(PID.TID 0000.0001) %MON trAdv_CFL_u_max              =   2.3872140932451E-02
(PID.TID 0000.0001) %MON trAdv_CFL_v_max              =   2.4081173062517E-02
(PID.TID 0000.0001) %MON trAdv_CFL_w_max              =   1.1358865790475E-01
(PID.TID 0000.0001) %MON advcfl_uvel_max              =   2.3733738075518E-02
(PID.TID 0000.0001) %MON advcfl_vvel_max              =   2.4218682380443E-02
(PID.TID 0000.0001) %MON advcfl_wvel_max              =   2.2717731580951E-01
(PID.TID 0000.0001) %MON advcfl_W_hf_max              =   1.1052047789666E-01
(PID.TID 0000.0001) %MON pe_b_mean                    =   7.2240503379032E-04
(PID.TID 0000.0001) %MON ke_max                       =   7.4364305065512E-01
(PID.TID 0000.0001) %MON ke_mean                      =   5.8833570027279E-04
(PID.TID 0000.0001) %MON ke_vol                       =   1.3350064351420E+18
(PID.TID 0000.0001) %MON vort_r_min                   =  -5.2869195214349E-05
(PID.TID 0000.0001) %MON vort_r_max                   =   3.6820361627636E-05
(PID.TID 0000.0001) %MON vort_a_mean                  =  -1.9725213241026E-05
(PID.TID 0000.0001) %MON vort_a_sd                    =   7.4538291643661E-05
(PID.TID 0000.0001) %MON vort_p_mean                  =  -2.1669263470803E-05
(PID.TID 0000.0001) %MON vort_p_sd                    =   9.3604948490780E-05
(PID.TID 0000.0001) %MON surfExpan_theta_mean         =   8.1567706429810E-06
(PID.TID 0000.0001) %MON surfExpan_salt_mean          =  -1.3408640783009E-07
(PID.TID 0000.0001) // =======================================================
(PID.TID 0000.0001) // End MONITOR dynamic field statistics
(PID.TID 0000.0001) // =======================================================
 cg2d: Sum(rhs),rhsMax =   3.69549151082731E+01  3.39588068495785E+00
 cg2d: Sum(rhs),rhsMax =   3.75443443720078E+01  3.33093835156464E+00
 cg2d: Sum(rhs),rhsMax =   3.53111132531119E+01  3.53121008572813E+00
 cg2d: Sum(rhs),rhsMax =   3.64301339112099E+01  3.41390810105412E+00
 cg2d: Sum(rhs),rhsMax =   3.56969738957480E+01  3.47626425687575E+00
 cg2d: Sum(rhs),rhsMax =   3.51968476035818E+01  3.51896255985385E+00
 cg2d: Sum(rhs),rhsMax =   3.48560095176495E+01  3.54674945771567E+00
 cg2d: Sum(rhs),rhsMax =   3.45564064186158E+01  3.57111826686855E+00
(PID.TID 0000.0001)      cg2d_init_res =   1.62452037018617E+00
(PID.TID 0000.0001)      cg2d_iters(min,last) =      -1      25
(PID.TID 0000.0001)      cg2d_last_res =   7.24765669767168E-06
(PID.TID 0000.0001) // =======================================================
(PID.TID 0000.0001) // Begin MONITOR dynamic field statistics
(PID.TID 0000.0001) // =======================================================
(PID.TID 0000.0001) %MON time_tsnumber                =                    16
(PID.TID 0000.0001) %MON time_secondsf                =   1.4400000000000E+04
(PID.TID 0000.0001) %MON dynstat_eta_max              =   1.3322215421755E+00
(PID.TID 0000.0001) %MON dynstat_eta_min              =  -4.1415287362155E+00
(PID.TID 0000.0001) %MON dynstat_eta_mean             =  -1.4053301022866E-03
(PID.TID 0000.0001) %MON dynstat_eta_sd               =   7.3501846984022E-01
(PID.TID 0000.0001) %MON dynstat_eta_del2             =   2.4834541660691E-04
(PID.TID 0000.0001) %MON dynstat_uvel_max             =   9.6060777266599E-01
(PID.TID 0000.0001) %MON dynstat_uvel_min             =  -1.3693542254608E+00
(PID.TID 0000.0001) %MON dynstat_uvel_mean            =   2.2523176326790E-03
(PID.TID 0000.0001) %MON dynstat_uvel_sd              =   2.9949112284408E-02
(PID.TID 0000.0001) %MON dynstat_uvel_del2            =   4.6301731694533E-05
(PID.TID 0000.0001) %MON dynstat_vvel_max             =   1.1449172332978E+00
(PID.TID 0000.0001) %MON dynstat_vvel_min             =  -1.3297663573655E+00
(PID.TID 0000.0001) %MON dynstat_vvel_mean            =   8.1218817610750E-04
(PID.TID 0000.0001) %MON dynstat_vvel_sd              =   2.9987154119260E-02
(PID.TID 0000.0001) %MON dynstat_vvel_del2            =   4.3103300625984E-05
(PID.TID 0000.0001) %MON dynstat_wvel_max             =   2.7081031739824E-02
(PID.TID 0000.0001) %MON dynstat_wvel_min             =  -2.2330307594318E-02
(PID.TID 0000.0001) %MON dynstat_wvel_mean            =   6.5582101538084E-21
(PID.TID 0000.0001) %MON dynstat_wvel_sd              =   6.1720983471953E-04
(PID.TID 0000.0001) %MON dynstat_wvel_del2            =   1.2896387612715E-06
(PID.TID 0000.0001) %MON dynstat_theta_max            =   3.2663058744550E+01
(PID.TID 0000.0001) %MON dynstat_theta_min            =  -2.7285631811744E+00
(PID.TID 0000.0001) %MON dynstat_theta_mean           =   3.5902172656688E+00
(PID.TID 0000.0001) %MON dynstat_theta_sd             =   4.4236603172704E+00
(PID.TID 0000.0001) %MON dynstat_theta_del2           =   2.8263374750547E-04
(PID.TID 0000.0001) %MON dynstat_salt_max             =   4.0711518065338E+01
(PID.TID 0000.0001) %MON dynstat_salt_min             =   1.8857227089251E+01
(PID.TID 0000.0001) %MON dynstat_salt_mean            =   3.4725574564706E+01
(PID.TID 0000.0001) %MON dynstat_salt_sd              =   3.6821872130849E-01
(PID.TID 0000.0001) %MON dynstat_salt_del2            =   1.1945193282559E-04
(PID.TID 0000.0001) %MON dynstat_sst_max              =   3.2652279558630E+01
(PID.TID 0000.0001) %MON dynstat_sst_min              =  -2.7285631811744E+00
(PID.TID 0000.0001) %MON dynstat_sst_mean             =   1.8277437265342E+01
(PID.TID 0000.0001) %MON dynstat_sst_sd               =   1.0219474829363E+01
(PID.TID 0000.0001) %MON dynstat_sst_del2             =   2.5681890807335E-03
(PID.TID 0000.0001) %MON dynstat_sss_max              =   3.9608542026378E+01
(PID.TID 0000.0001) %MON dynstat_sss_min              =   1.8900325257750E+01
(PID.TID 0000.0001) %MON dynstat_sss_mean             =   3.4796363422375E+01
(PID.TID 0000.0001) %MON dynstat_sss_sd               =   9.9185091502976E-01
(PID.TID 0000.0001) %MON dynstat_sss_del2             =   1.9534670654908E-03
(PID.TID 0000.0001) %MON forcing_qnet_max             =   2.4129337927804E+03
(PID.TID 0000.0001) %MON forcing_qnet_min             =  -5.9622954149336E+03
(PID.TID 0000.0001) %MON forcing_qnet_mean            =  -6.6181097355196E+01
(PID.TID 0000.0001) %MON forcing_qnet_sd              =   3.0993765966910E+02
(PID.TID 0000.0001) %MON forcing_qnet_del2            =   1.2571595765750E+00
(PID.TID 0000.0001) %MON forcing_qsw_max              =   0.0000000000000E+00
(PID.TID 0000.0001) %MON forcing_qsw_min              =  -5.4909278970192E+02
(PID.TID 0000.0001) %MON forcing_qsw_mean             =  -1.0468955972120E+02
(PID.TID 0000.0001) %MON forcing_qsw_sd               =   1.4975153100959E+02
(PID.TID 0000.0001) %MON forcing_qsw_del2             =   2.5714781807046E-01
(PID.TID 0000.0001) %MON forcing_empmr_max            =   4.7950576990843E-03
(PID.TID 0000.0001) %MON forcing_empmr_min            =  -6.2708541750908E-02
(PID.TID 0000.0001) %MON forcing_empmr_mean           =  -2.7236748753503E-06
(PID.TID 0000.0001) %MON forcing_empmr_sd             =   3.1114964738274E-04
(PID.TID 0000.0001) %MON forcing_empmr_del2           =   2.2673925532024E-06
(PID.TID 0000.0001) %MON forcing_fu_max               =   1.3453710079193E+00
(PID.TID 0000.0001) %MON forcing_fu_min               =  -1.2893382310867E+00
(PID.TID 0000.0001) %MON forcing_fu_mean              =   1.2053966485485E-02
(PID.TID 0000.0001) %MON forcing_fu_sd                =   1.1662630659298E-01
(PID.TID 0000.0001) %MON forcing_fu_del2              =   1.7243232717771E-04
(PID.TID 0000.0001) %MON forcing_fv_max               =   7.7165529131889E-01
(PID.TID 0000.0001) %MON forcing_fv_min               =  -8.4222981083892E-01
(PID.TID 0000.0001) %MON forcing_fv_mean              =  -5.7267792398320E-03
(PID.TID 0000.0001) %MON forcing_fv_sd                =   1.1076355988274E-01
(PID.TID 0000.0001) %MON forcing_fv_del2              =   1.3772967946685E-04
(PID.TID 0000.0001) %MON trAdv_CFL_u_max              =   2.8993081219535E-02
(PID.TID 0000.0001) %MON trAdv_CFL_v_max              =   2.8975600518903E-02
(PID.TID 0000.0001) %MON trAdv_CFL_w_max              =   1.9713810464214E-01
(PID.TID 0000.0001) %MON advcfl_uvel_max              =   2.8824988827510E-02
(PID.TID 0000.0001) %MON advcfl_vvel_max              =   2.9141058200450E-02
(PID.TID 0000.0001) %MON advcfl_wvel_max              =   2.2293620485054E-01
(PID.TID 0000.0001) %MON advcfl_W_hf_max              =   2.1124300690168E-01
(PID.TID 0000.0001) %MON pe_b_mean                    =   7.1064644257393E-04
(PID.TID 0000.0001) %MON ke_max                       =   9.2800162413080E-01
(PID.TID 0000.0001) %MON ke_mean                      =   8.6886626387626E-04
(PID.TID 0000.0001) %MON ke_vol                       =   1.3350064351420E+18
(PID.TID 0000.0001) %MON vort_r_min                   =  -6.3909563416926E-05
(PID.TID 0000.0001) %MON vort_r_max                   =   5.7655522257042E-05
(PID.TID 0000.0001) %MON vort_a_mean                  =  -1.9725213241026E-05
(PID.TID 0000.0001) %MON vort_a_sd                    =   7.4538624951679E-05
(PID.TID 0000.0001) %MON vort_p_mean                  =  -2.1669263470803E-05
(PID.TID 0000.0001) %MON vort_p_sd                    =   9.3610073481145E-05
(PID.TID 0000.0001) %MON surfExpan_theta_mean         =   1.4271103309725E-06
(PID.TID 0000.0001) %MON surfExpan_salt_mean          =  -5.6977178822505E-07
(PID.TID 0000.0001) // =======================================================
(PID.TID 0000.0001) // End MONITOR dynamic field statistics
(PID.TID 0000.0001) // =======================================================
 cg2d: Sum(rhs),rhsMax =   3.46567261796295E+01  3.55418487917293E+00
 cg2d: Sum(rhs),rhsMax =   3.48103307713718E+01  3.53169878817090E+00
 cg2d: Sum(rhs),rhsMax =   3.51064695763862E+01  3.49471020284960E+00
 cg2d: Sum(rhs),rhsMax =   3.52613966736628E+01  3.47184392974404E+00
 cg2d: Sum(rhs),rhsMax =   3.52826426989825E+01  3.46142628554468E+00
 cg2d: Sum(rhs),rhsMax =   3.51866000918387E+01  3.46194029035927E+00
 cg2d: Sum(rhs),rhsMax =   3.39805768110371E+01  3.57529505524888E+00
 cg2d: Sum(rhs),rhsMax =   3.28936826002666E+01  3.68369629345223E+00
(PID.TID 0000.0001)      cg2d_init_res =   1.23170473185192E+00
(PID.TID 0000.0001)      cg2d_iters(min,last) =      -1      24
(PID.TID 0000.0001)      cg2d_last_res =   8.55470116299735E-06
(PID.TID 0000.0001) // =======================================================
(PID.TID 0000.0001) // Begin MONITOR dynamic field statistics
(PID.TID 0000.0001) // =======================================================
(PID.TID 0000.0001) %MON time_tsnumber                =                    24
(PID.TID 0000.0001) %MON time_secondsf                =   2.1600000000000E+04
(PID.TID 0000.0001) %MON dynstat_eta_max              =   1.1951150024240E+00
(PID.TID 0000.0001) %MON dynstat_eta_min              =  -4.8976629036748E+00
(PID.TID 0000.0001) %MON dynstat_eta_mean             =  -1.3798817068795E-03
(PID.TID 0000.0001) %MON dynstat_eta_sd               =   7.3055249408415E-01
(PID.TID 0000.0001) %MON dynstat_eta_del2             =   2.3051241163085E-04
(PID.TID 0000.0001) %MON dynstat_uvel_max             =   1.0463495127458E+00
(PID.TID 0000.0001) %MON dynstat_uvel_min             =  -1.5221708086547E+00
(PID.TID 0000.0001) %MON dynstat_uvel_mean            =   2.1172030062290E-03
(PID.TID 0000.0001) %MON dynstat_uvel_sd              =   3.4538864493791E-02
(PID.TID 0000.0001) %MON dynstat_uvel_del2            =   6.0826141609687E-05
(PID.TID 0000.0001) %MON dynstat_vvel_max             =   1.2120482402951E+00
(PID.TID 0000.0001) %MON dynstat_vvel_min             =  -1.3495286839485E+00
(PID.TID 0000.0001) %MON dynstat_vvel_mean            =   8.9828733117384E-04
(PID.TID 0000.0001) %MON dynstat_vvel_sd              =   3.5929904145453E-02
(PID.TID 0000.0001) %MON dynstat_vvel_del2            =   5.6970495182864E-05
(PID.TID 0000.0001) %MON dynstat_wvel_max             =   2.9490304476276E-02
(PID.TID 0000.0001) %MON dynstat_wvel_min             =  -2.6944890440905E-02
(PID.TID 0000.0001) %MON dynstat_wvel_mean            =  -1.3879809849330E-21
(PID.TID 0000.0001) %MON dynstat_wvel_sd              =   7.5495655867643E-04
(PID.TID 0000.0001) %MON dynstat_wvel_del2            =   1.5892033545956E-06
(PID.TID 0000.0001) %MON dynstat_theta_max            =   3.2666696094459E+01
(PID.TID 0000.0001) %MON dynstat_theta_min            =  -2.7202173079714E+00
(PID.TID 0000.0001) %MON dynstat_theta_mean           =   3.5902406534952E+00
(PID.TID 0000.0001) %MON dynstat_theta_sd             =   4.4236855070280E+00
(PID.TID 0000.0001) %MON dynstat_theta_del2           =   2.7649436580971E-04
(PID.TID 0000.0001) %MON dynstat_salt_max             =   4.0711511967021E+01
(PID.TID 0000.0001) %MON dynstat_salt_min             =   1.8858745114268E+01
(PID.TID 0000.0001) %MON dynstat_salt_mean            =   3.4725537178539E+01
(PID.TID 0000.0001) %MON dynstat_salt_sd              =   3.6808484985776E-01
(PID.TID 0000.0001) %MON dynstat_salt_del2            =   1.1586115418104E-04
(PID.TID 0000.0001) %MON dynstat_sst_max              =   3.2657609602260E+01
(PID.TID 0000.0001) %MON dynstat_sst_min              =  -2.7202173079714E+00
(PID.TID 0000.0001) %MON dynstat_sst_mean             =   1.8278308466786E+01
(PID.TID 0000.0001) %MON dynstat_sst_sd               =   1.0221222572766E+01
(PID.TID 0000.0001) %MON dynstat_sst_del2             =   2.4740094987885E-03
(PID.TID 0000.0001) %MON dynstat_sss_max              =   3.9558436254635E+01
(PID.TID 0000.0001) %MON dynstat_sss_min              =   1.8897465654578E+01
(PID.TID 0000.0001) %MON dynstat_sss_mean             =   3.4786927053634E+01
(PID.TID 0000.0001) %MON dynstat_sss_sd               =   9.8353345583198E-01
(PID.TID 0000.0001) %MON dynstat_sss_del2             =   1.9027934281195E-03
(PID.TID 0000.0001) %MON forcing_qnet_max             =   3.4257462192459E+03
(PID.TID 0000.0001) %MON forcing_qnet_min             =  -5.9025365702077E+03
(PID.TID 0000.0001) %MON forcing_qnet_mean            =  -2.6885311528079E+01
(PID.TID 0000.0001) %MON forcing_qnet_sd              =   2.6027104447886E+02
(PID.TID 0000.0001) %MON forcing_qnet_del2            =   1.2007354197016E+00
(PID.TID 0000.0001) %MON forcing_qsw_max              =   0.0000000000000E+00
(PID.TID 0000.0001) %MON forcing_qsw_min              =  -5.5449435770628E+02
(PID.TID 0000.0001) %MON forcing_qsw_mean             =  -9.1188421156218E+01
(PID.TID 0000.0001) %MON forcing_qsw_sd               =   1.3515078336298E+02
(PID.TID 0000.0001) %MON forcing_qsw_del2             =   2.3950609326485E-01
(PID.TID 0000.0001) %MON forcing_empmr_max            =   5.9719509445131E-03
(PID.TID 0000.0001) %MON forcing_empmr_min            =  -6.2645167112350E-02
(PID.TID 0000.0001) %MON forcing_empmr_mean           =  -4.0895435574378E-06
(PID.TID 0000.0001) %MON forcing_empmr_sd             =   2.9072850424362E-04
(PID.TID 0000.0001) %MON forcing_empmr_del2           =   2.2436676514034E-06
(PID.TID 0000.0001) %MON forcing_fu_max               =   1.1695768237114E+00
(PID.TID 0000.0001) %MON forcing_fu_min               =  -1.1202011108398E+00
(PID.TID 0000.0001) %MON forcing_fu_mean              =   1.2136402988419E-02
(PID.TID 0000.0001) %MON forcing_fu_sd                =   1.1263739417517E-01
(PID.TID 0000.0001) %MON forcing_fu_del2              =   1.6540514156921E-04
(PID.TID 0000.0001) %MON forcing_fv_max               =   7.6341468095779E-01
(PID.TID 0000.0001) %MON forcing_fv_min               =  -8.0202739103353E-01
(PID.TID 0000.0001) %MON forcing_fv_mean              =  -6.6291266266852E-03
(PID.TID 0000.0001) %MON forcing_fv_sd                =   1.0767684973493E-01
(PID.TID 0000.0001) %MON forcing_fv_del2              =   1.3192104029952E-04
(PID.TID 0000.0001) %MON trAdv_CFL_u_max              =   2.9540417971358E-02
(PID.TID 0000.0001) %MON trAdv_CFL_v_max              =   2.9406221490190E-02
(PID.TID 0000.0001) %MON trAdv_CFL_w_max              =   2.3911898601648E-01
(PID.TID 0000.0001) %MON advcfl_uvel_max              =   2.9457807511976E-02
(PID.TID 0000.0001) %MON advcfl_vvel_max              =   2.9574138121552E-02
(PID.TID 0000.0001) %MON advcfl_wvel_max              =   2.4584362932630E-01
(PID.TID 0000.0001) %MON advcfl_W_hf_max              =   2.5677001285192E-01
(PID.TID 0000.0001) %MON pe_b_mean                    =   7.0203683393824E-04
(PID.TID 0000.0001) %MON ke_max                       =   1.1740376693122E+00
(PID.TID 0000.0001) %MON ke_mean                      =   1.2002667444912E-03
(PID.TID 0000.0001) %MON ke_vol                       =   1.3350064351420E+18
(PID.TID 0000.0001) %MON vort_r_min                   =  -6.4770241742249E-05
(PID.TID 0000.0001) %MON vort_r_max                   =   6.2832000866112E-05
(PID.TID 0000.0001) %MON vort_a_mean                  =  -1.9725213241026E-05
(PID.TID 0000.0001) %MON vort_a_sd                    =   7.4539524689681E-05
(PID.TID 0000.0001) %MON vort_p_mean                  =  -2.1669263470803E-05
(PID.TID 0000.0001) %MON vort_p_sd                    =   9.3617521416948E-05
(PID.TID 0000.0001) %MON surfExpan_theta_mean         =  -2.6015103525146E-06
(PID.TID 0000.0001) %MON surfExpan_salt_mean          =  -9.5525265070456E-07
(PID.TID 0000.0001) // =======================================================
(PID.TID 0000.0001) // End MONITOR dynamic field statistics
(PID.TID 0000.0001) // =======================================================
 cg2d: Sum(rhs),rhsMax =   3.19644555830096E+01  3.77972545290254E+00
 cg2d: Sum(rhs),rhsMax =   3.11643396596544E+01  3.86587396448668E+00
 cg2d: Sum(rhs),rhsMax =   3.01145863578288E+01  3.99027502383476E+00
 cg2d: Sum(rhs),rhsMax =   2.91099944092009E+01  4.11651668477626E+00
 cg2d: Sum(rhs),rhsMax =   2.82229740394105E+01  4.23334477525596E+00
 cg2d: Sum(rhs),rhsMax =   2.74649368848841E+01  4.33584586530841E+00
 cg2d: Sum(rhs),rhsMax =   2.68318777299903E+01  4.42319828678226E+00
 cg2d: Sum(rhs),rhsMax =   2.62864793189460E+01  4.49883995373323E+00
(PID.TID 0000.0001)      cg2d_init_res =   9.02470771628213E-01
(PID.TID 0000.0001)      cg2d_iters(min,last) =      -1      24
(PID.TID 0000.0001)      cg2d_last_res =   7.05487180106588E-06
(PID.TID 0000.0001) // =======================================================
(PID.TID 0000.0001) // Begin MONITOR dynamic field statistics
(PID.TID 0000.0001) // =======================================================
(PID.TID 0000.0001) %MON time_tsnumber                =                    32
(PID.TID 0000.0001) %MON time_secondsf                =   2.8800000000000E+04
(PID.TID 0000.0001) %MON dynstat_eta_max              =   1.1776473511275E+00
(PID.TID 0000.0001) %MON dynstat_eta_min              =  -3.7426932912935E+00
(PID.TID 0000.0001) %MON dynstat_eta_mean             =  -1.3467237179577E-03
(PID.TID 0000.0001) %MON dynstat_eta_sd               =   7.2963628843379E-01
(PID.TID 0000.0001) %MON dynstat_eta_del2             =   2.2348220510834E-04
(PID.TID 0000.0001) %MON dynstat_uvel_max             =   1.2786233533558E+00
(PID.TID 0000.0001) %MON dynstat_uvel_min             =  -1.6781095267086E+00
(PID.TID 0000.0001) %MON dynstat_uvel_mean            =   2.0119934975293E-03
(PID.TID 0000.0001) %MON dynstat_uvel_sd              =   3.6721556237237E-02
(PID.TID 0000.0001) %MON dynstat_uvel_del2            =   6.9958128965213E-05
(PID.TID 0000.0001) %MON dynstat_vvel_max             =   1.3098992639485E+00
(PID.TID 0000.0001) %MON dynstat_vvel_min             =  -1.2295666651226E+00
(PID.TID 0000.0001) %MON dynstat_vvel_mean            =   1.1536461448315E-03
(PID.TID 0000.0001) %MON dynstat_vvel_sd              =   4.0930494915210E-02
(PID.TID 0000.0001) %MON dynstat_vvel_del2            =   6.7293151137082E-05
(PID.TID 0000.0001) %MON dynstat_wvel_max             =   2.6657204937176E-02
(PID.TID 0000.0001) %MON dynstat_wvel_min             =  -2.5920734447324E-02
(PID.TID 0000.0001) %MON dynstat_wvel_mean            =  -2.7412624452427E-21
(PID.TID 0000.0001) %MON dynstat_wvel_sd              =   7.5064073098656E-04
(PID.TID 0000.0001) %MON dynstat_wvel_del2            =   1.6275770428522E-06
(PID.TID 0000.0001) %MON dynstat_theta_max            =   3.2669989736943E+01
(PID.TID 0000.0001) %MON dynstat_theta_min            =  -2.7125137867305E+00
(PID.TID 0000.0001) %MON dynstat_theta_mean           =   3.5902501094526E+00
(PID.TID 0000.0001) %MON dynstat_theta_sd             =   4.4236810542694E+00
(PID.TID 0000.0001) %MON dynstat_theta_del2           =   2.6855355371458E-04
(PID.TID 0000.0001) %MON dynstat_salt_max             =   4.0711506889401E+01
(PID.TID 0000.0001) %MON dynstat_salt_min             =   1.8860546498030E+01
(PID.TID 0000.0001) %MON dynstat_salt_mean            =   3.4725509875268E+01
(PID.TID 0000.0001) %MON dynstat_salt_sd              =   3.6798288833590E-01
(PID.TID 0000.0001) %MON dynstat_salt_del2            =   1.1242904844293E-04
(PID.TID 0000.0001) %MON dynstat_sst_max              =   3.2665276895732E+01
(PID.TID 0000.0001) %MON dynstat_sst_min              =  -2.7125137867305E+00
(PID.TID 0000.0001) %MON dynstat_sst_mean             =   1.8275102311462E+01
(PID.TID 0000.0001) %MON dynstat_sst_sd               =   1.0221932244523E+01
(PID.TID 0000.0001) %MON dynstat_sst_del2             =   2.3755847882948E-03
(PID.TID 0000.0001) %MON dynstat_sss_max              =   3.9510259793452E+01
(PID.TID 0000.0001) %MON dynstat_sss_min              =   1.8896289653337E+01
(PID.TID 0000.0001) %MON dynstat_sss_mean             =   3.4782385723203E+01
(PID.TID 0000.0001) %MON dynstat_sss_sd               =   9.7959420482313E-01
(PID.TID 0000.0001) %MON dynstat_sss_del2             =   1.8522707337716E-03
(PID.TID 0000.0001) %MON forcing_qnet_max             =   1.8225196533203E+03
(PID.TID 0000.0001) %MON forcing_qnet_min             =  -3.7753129489123E+03
(PID.TID 0000.0001) %MON forcing_qnet_mean            =   3.5793082252102E+00
(PID.TID 0000.0001) %MON forcing_qnet_sd              =   2.3946439547046E+02
(PID.TID 0000.0001) %MON forcing_qnet_del2            =   9.6631608767105E-01
(PID.TID 0000.0001) %MON forcing_qsw_max              =   0.0000000000000E+00
(PID.TID 0000.0001) %MON forcing_qsw_min              =  -5.4427905793010E+02
(PID.TID 0000.0001) %MON forcing_qsw_mean             =  -7.9885754169627E+01
(PID.TID 0000.0001) %MON forcing_qsw_sd               =   1.2640994707611E+02
(PID.TID 0000.0001) %MON forcing_qsw_del2             =   2.2603750801248E-01
(PID.TID 0000.0001) %MON forcing_empmr_max            =   5.2379015833139E-03
(PID.TID 0000.0001) %MON forcing_empmr_min            =  -7.0865325629711E-02
(PID.TID 0000.0001) %MON forcing_empmr_mean           =  -5.8098274550550E-06
(PID.TID 0000.0001) %MON forcing_empmr_sd             =   3.3760973468709E-04
(PID.TID 0000.0001) %MON forcing_empmr_del2           =   2.7789518514102E-06
(PID.TID 0000.0001) %MON forcing_fu_max               =   1.0827930569649E+00
(PID.TID 0000.0001) %MON forcing_fu_min               =  -1.0094782710075E+00
(PID.TID 0000.0001) %MON forcing_fu_mean              =   1.2298132191096E-02
(PID.TID 0000.0001) %MON forcing_fu_sd                =   1.0948129332014E-01
(PID.TID 0000.0001) %MON forcing_fu_del2              =   1.6004541924880E-04
(PID.TID 0000.0001) %MON forcing_fv_max               =   7.4772223830223E-01
(PID.TID 0000.0001) %MON forcing_fv_min               =  -6.9471499803754E-01
(PID.TID 0000.0001) %MON forcing_fv_mean              =  -7.9460737978206E-03
(PID.TID 0000.0001) %MON forcing_fv_sd                =   1.0599877324188E-01
(PID.TID 0000.0001) %MON forcing_fv_del2              =   1.2750473048251E-04
(PID.TID 0000.0001) %MON trAdv_CFL_u_max              =   3.0536108652096E-02
(PID.TID 0000.0001) %MON trAdv_CFL_v_max              =   2.6103476594908E-02
(PID.TID 0000.0001) %MON trAdv_CFL_w_max              =   2.6673247519207E-01
(PID.TID 0000.0001) %MON advcfl_uvel_max              =   3.0450713720787E-02
(PID.TID 0000.0001) %MON advcfl_vvel_max              =   2.6161326974398E-02
(PID.TID 0000.0001) %MON advcfl_wvel_max              =   2.7723233782828E-01
(PID.TID 0000.0001) %MON advcfl_W_hf_max              =   2.8955377506509E-01
(PID.TID 0000.0001) %MON pe_b_mean                    =   7.0027693870255E-04
(PID.TID 0000.0001) %MON ke_max                       =   1.3496134824203E+00
(PID.TID 0000.0001) %MON ke_mean                      =   1.4606535623643E-03
(PID.TID 0000.0001) %MON ke_vol                       =   1.3350064351420E+18
(PID.TID 0000.0001) %MON vort_r_min                   =  -5.6836576793739E-05
(PID.TID 0000.0001) %MON vort_r_max                   =   6.3226658051044E-05
(PID.TID 0000.0001) %MON vort_a_mean                  =  -1.9725213241026E-05
(PID.TID 0000.0001) %MON vort_a_sd                    =   7.4540805650822E-05
(PID.TID 0000.0001) %MON vort_p_mean                  =  -2.1669263470803E-05
(PID.TID 0000.0001) %MON vort_p_sd                    =   9.3624349551776E-05
(PID.TID 0000.0001) %MON surfExpan_theta_mean         =  -3.6623524612506E-06
(PID.TID 0000.0001) %MON surfExpan_salt_mean          =  -4.2997728570021E-07
(PID.TID 0000.0001) // =======================================================
(PID.TID 0000.0001) // End MONITOR dynamic field statistics
(PID.TID 0000.0001) // =======================================================
 cg2d: Sum(rhs),rhsMax =   2.58081384447803E+01  4.56467441013755E+00
 cg2d: Sum(rhs),rhsMax =   2.53974619044766E+01  4.61948026569887E+00
 cg2d: Sum(rhs),rhsMax =   2.50432897091905E+01  4.66414219174006E+00
 cg2d: Sum(rhs),rhsMax =   2.47512454432515E+01  4.69753155586853E+00
 cg2d: Sum(rhs),rhsMax =   2.45022596990805E+01  4.72198840340258E+00
 cg2d: Sum(rhs),rhsMax =   2.41968346060912E+01  4.75706965640569E+00
 cg2d: Sum(rhs),rhsMax =   2.39329783132298E+01  4.78354001126096E+00
 cg2d: Sum(rhs),rhsMax =   2.37112107850385E+01  4.80142673779728E+00
(PID.TID 0000.0001)      cg2d_init_res =   7.70284624070305E-01
(PID.TID 0000.0001)      cg2d_iters(min,last) =      -1      23
(PID.TID 0000.0001)      cg2d_last_res =   8.35811834556441E-06
(PID.TID 0000.0001) // =======================================================
(PID.TID 0000.0001) // Begin MONITOR dynamic field statistics
(PID.TID 0000.0001) // =======================================================
(PID.TID 0000.0001) %MON time_tsnumber                =                    40
(PID.TID 0000.0001) %MON time_secondsf                =   3.6000000000000E+04
(PID.TID 0000.0001) %MON dynstat_eta_max              =   1.1887866126618E+00
(PID.TID 0000.0001) %MON dynstat_eta_min              =  -4.2719461828451E+00
(PID.TID 0000.0001) %MON dynstat_eta_mean             =  -1.2964912215364E-03
(PID.TID 0000.0001) %MON dynstat_eta_sd               =   7.2798966529523E-01
(PID.TID 0000.0001) %MON dynstat_eta_del2             =   2.2056642835331E-04
(PID.TID 0000.0001) %MON dynstat_uvel_max             =   1.4803184502367E+00
(PID.TID 0000.0001) %MON dynstat_uvel_min             =  -1.6937895739886E+00
(PID.TID 0000.0001) %MON dynstat_uvel_mean            =   1.7724191685464E-03
(PID.TID 0000.0001) %MON dynstat_uvel_sd              =   3.7489815308155E-02
(PID.TID 0000.0001) %MON dynstat_uvel_del2            =   7.5362435410837E-05
(PID.TID 0000.0001) %MON dynstat_vvel_max             =   1.3501927383402E+00
(PID.TID 0000.0001) %MON dynstat_vvel_min             =  -1.4193040149880E+00
(PID.TID 0000.0001) %MON dynstat_vvel_mean            =   1.5258275803570E-03
(PID.TID 0000.0001) %MON dynstat_vvel_sd              =   4.3545549021957E-02
(PID.TID 0000.0001) %MON dynstat_vvel_del2            =   7.4479666336526E-05
(PID.TID 0000.0001) %MON dynstat_wvel_max             =   2.2286250560092E-02
(PID.TID 0000.0001) %MON dynstat_wvel_min             =  -2.1869172710539E-02
(PID.TID 0000.0001) %MON dynstat_wvel_mean            =   1.4342470177641E-21
(PID.TID 0000.0001) %MON dynstat_wvel_sd              =   6.7980589532219E-04
(PID.TID 0000.0001) %MON dynstat_wvel_del2            =   1.5390328381811E-06
(PID.TID 0000.0001) %MON dynstat_theta_max            =   3.2672213465337E+01
(PID.TID 0000.0001) %MON dynstat_theta_min            =  -2.7080099818301E+00
(PID.TID 0000.0001) %MON dynstat_theta_mean           =   3.5902548677833E+00
(PID.TID 0000.0001) %MON dynstat_theta_sd             =   4.4236598866515E+00
(PID.TID 0000.0001) %MON dynstat_theta_del2           =   2.5983832415187E-04
(PID.TID 0000.0001) %MON dynstat_salt_max             =   4.0711502902356E+01
(PID.TID 0000.0001) %MON dynstat_salt_min             =   1.8861089057179E+01
(PID.TID 0000.0001) %MON dynstat_salt_mean            =   3.4725490006726E+01
(PID.TID 0000.0001) %MON dynstat_salt_sd              =   3.6790405590869E-01
(PID.TID 0000.0001) %MON dynstat_salt_del2            =   1.0908458784218E-04
(PID.TID 0000.0001) %MON dynstat_sst_max              =   3.2671104725127E+01
(PID.TID 0000.0001) %MON dynstat_sst_min              =  -2.7080099818301E+00
(PID.TID 0000.0001) %MON dynstat_sst_mean             =   1.8269971900195E+01
(PID.TID 0000.0001) %MON dynstat_sst_sd               =   1.0221835214623E+01
(PID.TID 0000.0001) %MON dynstat_sst_del2             =   2.2831043355490E-03
(PID.TID 0000.0001) %MON dynstat_sss_max              =   3.9464757574868E+01
(PID.TID 0000.0001) %MON dynstat_sss_min              =   1.8893074809182E+01
(PID.TID 0000.0001) %MON dynstat_sss_mean             =   3.4780757353290E+01
(PID.TID 0000.0001) %MON dynstat_sss_sd               =   9.7856363836131E-01
(PID.TID 0000.0001) %MON dynstat_sss_del2             =   1.8017849413544E-03
(PID.TID 0000.0001) %MON forcing_qnet_max             =   1.2533060302734E+03
(PID.TID 0000.0001) %MON forcing_qnet_min             =  -5.9717535691406E+03
(PID.TID 0000.0001) %MON forcing_qnet_mean            =   2.6631241431675E+01
(PID.TID 0000.0001) %MON forcing_qnet_sd              =   2.3129870665195E+02
(PID.TID 0000.0001) %MON forcing_qnet_del2            =   9.5047301114730E-01
(PID.TID 0000.0001) %MON forcing_qsw_max              =   0.0000000000000E+00
(PID.TID 0000.0001) %MON forcing_qsw_min              =  -5.4412182270420E+02
(PID.TID 0000.0001) %MON forcing_qsw_mean             =  -6.9249516712114E+01
(PID.TID 0000.0001) %MON forcing_qsw_sd               =   1.2764970722742E+02
(PID.TID 0000.0001) %MON forcing_qsw_del2             =   2.2128503999401E-01
(PID.TID 0000.0001) %MON forcing_empmr_max            =   7.8561743721366E-03
(PID.TID 0000.0001) %MON forcing_empmr_min            =  -1.0491960495710E-01
(PID.TID 0000.0001) %MON forcing_empmr_mean           =  -8.2552072883222E-06
(PID.TID 0000.0001) %MON forcing_empmr_sd             =   4.2907105944572E-04
(PID.TID 0000.0001) %MON forcing_empmr_del2           =   4.1772994562564E-06
(PID.TID 0000.0001) %MON forcing_fu_max               =   1.0643136501312E+00
(PID.TID 0000.0001) %MON forcing_fu_min               =  -9.1190609335899E-01
(PID.TID 0000.0001) %MON forcing_fu_mean              =   1.2261595017265E-02
(PID.TID 0000.0001) %MON forcing_fu_sd                =   1.0760234323545E-01
(PID.TID 0000.0001) %MON forcing_fu_del2              =   1.5566603762621E-04
(PID.TID 0000.0001) %MON forcing_fv_max               =   7.6287925243378E-01
(PID.TID 0000.0001) %MON forcing_fv_min               =  -6.8745654468238E-01
(PID.TID 0000.0001) %MON forcing_fv_mean              =  -9.1767539075960E-03
(PID.TID 0000.0001) %MON forcing_fv_sd                =   1.0524925084871E-01
(PID.TID 0000.0001) %MON forcing_fv_del2              =   1.2380208814013E-04
(PID.TID 0000.0001) %MON trAdv_CFL_u_max              =   2.8064494305525E-02
(PID.TID 0000.0001) %MON trAdv_CFL_v_max              =   2.6998396309859E-02
(PID.TID 0000.0001) %MON trAdv_CFL_w_max              =   2.6323839608500E-01
(PID.TID 0000.0001) %MON advcfl_uvel_max              =   2.8023605307677E-02
(PID.TID 0000.0001) %MON advcfl_vvel_max              =   2.7107848615623E-02
(PID.TID 0000.0001) %MON advcfl_wvel_max              =   2.7396451802078E-01
(PID.TID 0000.0001) %MON advcfl_W_hf_max              =   2.8614071882171E-01
(PID.TID 0000.0001) %MON pe_b_mean                    =   6.9711960980398E-04
(PID.TID 0000.0001) %MON ke_max                       =   1.3453236590222E+00
(PID.TID 0000.0001) %MON ke_mean                      =   1.5947203502006E-03
(PID.TID 0000.0001) %MON ke_vol                       =   1.3350064351420E+18
(PID.TID 0000.0001) %MON vort_r_min                   =  -4.9527793629089E-05
(PID.TID 0000.0001) %MON vort_r_max                   =   5.7362221750170E-05
(PID.TID 0000.0001) %MON vort_a_mean                  =  -1.9725213241026E-05
(PID.TID 0000.0001) %MON vort_a_sd                    =   7.4541936498452E-05
(PID.TID 0000.0001) %MON vort_p_mean                  =  -2.1669263470803E-05
(PID.TID 0000.0001) %MON vort_p_sd                    =   9.3628250265753E-05
(PID.TID 0000.0001) %MON surfExpan_theta_mean         =  -9.1488346960092E-06
(PID.TID 0000.0001) %MON surfExpan_salt_mean          =  -6.4103082367204E-07
(PID.TID 0000.0001) // =======================================================
(PID.TID 0000.0001) // End MONITOR dynamic field statistics
(PID.TID 0000.0001) // =======================================================
 cg2d: Sum(rhs),rhsMax =   2.35404677612678E+01  4.80934029948063E+00
 cg2d: Sum(rhs),rhsMax =   2.34176139064875E+01  4.80647045050172E+00
 cg2d: Sum(rhs),rhsMax =   2.33448611696342E+01  4.79313330532108E+00
 cg2d: Sum(rhs),rhsMax =   2.33175028971921E+01  4.77023567013283E+00
 cg2d: Sum(rhs),rhsMax =   2.33222781148354E+01  4.73913808511041E+00
 cg2d: Sum(rhs),rhsMax =   2.33614843176497E+01  4.70022702680341E+00
 cg2d: Sum(rhs),rhsMax =   2.34424300780581E+01  4.65427039533047E+00
 cg2d: Sum(rhs),rhsMax =   2.35581333308330E+01  4.60253589980387E+00
(PID.TID 0000.0001)      cg2d_init_res =   6.99527080049755E-01
(PID.TID 0000.0001)      cg2d_iters(min,last) =      -1      22
(PID.TID 0000.0001)      cg2d_last_res =   6.77662973103121E-06
(PID.TID 0000.0001) // =======================================================
(PID.TID 0000.0001) // Begin MONITOR dynamic field statistics
(PID.TID 0000.0001) // =======================================================
(PID.TID 0000.0001) %MON time_tsnumber                =                    48
(PID.TID 0000.0001) %MON time_secondsf                =   4.3200000000000E+04
(PID.TID 0000.0001) %MON dynstat_eta_max              =   1.3552473459080E+00
(PID.TID 0000.0001) %MON dynstat_eta_min              =  -3.4911833469481E+00
(PID.TID 0000.0001) %MON dynstat_eta_mean             =  -1.2347629871873E-03
(PID.TID 0000.0001) %MON dynstat_eta_sd               =   7.2138209878116E-01
(PID.TID 0000.0001) %MON dynstat_eta_del2             =   2.1252350704304E-04
(PID.TID 0000.0001) %MON dynstat_uvel_max             =   1.6317039749281E+00
(PID.TID 0000.0001) %MON dynstat_uvel_min             =  -1.6960251937614E+00
(PID.TID 0000.0001) %MON dynstat_uvel_mean            =   1.6838790277090E-03
(PID.TID 0000.0001) %MON dynstat_uvel_sd              =   3.7882578380679E-02
(PID.TID 0000.0001) %MON dynstat_uvel_del2            =   7.8388356175035E-05
(PID.TID 0000.0001) %MON dynstat_vvel_max             =   1.3974027492716E+00
(PID.TID 0000.0001) %MON dynstat_vvel_min             =  -1.5936623769064E+00
(PID.TID 0000.0001) %MON dynstat_vvel_mean            =   1.8528087860581E-03
(PID.TID 0000.0001) %MON dynstat_vvel_sd              =   4.3421598341686E-02
(PID.TID 0000.0001) %MON dynstat_vvel_del2            =   7.8851893235805E-05
(PID.TID 0000.0001) %MON dynstat_wvel_max             =   1.8689821712596E-02
(PID.TID 0000.0001) %MON dynstat_wvel_min             =  -1.7946198286579E-02
(PID.TID 0000.0001) %MON dynstat_wvel_mean            =   2.6834299042038E-21
(PID.TID 0000.0001) %MON dynstat_wvel_sd              =   6.1264780423792E-04
(PID.TID 0000.0001) %MON dynstat_wvel_del2            =   1.4209688198266E-06
(PID.TID 0000.0001) %MON dynstat_theta_max            =   3.2672827588368E+01
(PID.TID 0000.0001) %MON dynstat_theta_min            =  -2.7074991600364E+00
(PID.TID 0000.0001) %MON dynstat_theta_mean           =   3.5902603628861E+00
(PID.TID 0000.0001) %MON dynstat_theta_sd             =   4.4236321056836E+00
(PID.TID 0000.0001) %MON dynstat_theta_del2           =   2.5136151662352E-04
(PID.TID 0000.0001) %MON dynstat_salt_max             =   4.0711500076859E+01
(PID.TID 0000.0001) %MON dynstat_salt_min             =   1.8861310928348E+01
(PID.TID 0000.0001) %MON dynstat_salt_mean            =   3.4725475775824E+01
(PID.TID 0000.0001) %MON dynstat_salt_sd              =   3.6784282225289E-01
(PID.TID 0000.0001) %MON dynstat_salt_del2            =   1.0597812421794E-04
(PID.TID 0000.0001) %MON dynstat_sst_max              =   3.2668741746616E+01
(PID.TID 0000.0001) %MON dynstat_sst_min              =  -2.7074991600364E+00
(PID.TID 0000.0001) %MON dynstat_sst_mean             =   1.8264526596178E+01
(PID.TID 0000.0001) %MON dynstat_sst_sd               =   1.0221513565724E+01
(PID.TID 0000.0001) %MON dynstat_sst_del2             =   2.2143748633909E-03
(PID.TID 0000.0001) %MON dynstat_sss_max              =   3.9421185301819E+01
(PID.TID 0000.0001) %MON dynstat_sss_min              =   1.8887521190409E+01
(PID.TID 0000.0001) %MON dynstat_sss_mean             =   3.4780140392615E+01
(PID.TID 0000.0001) %MON dynstat_sss_sd               =   9.7873249300847E-01
(PID.TID 0000.0001) %MON dynstat_sss_del2             =   1.7580076130292E-03
(PID.TID 0000.0001) %MON forcing_qnet_max             =   3.3004779194578E+03
(PID.TID 0000.0001) %MON forcing_qnet_min             =  -3.8372267457182E+03
(PID.TID 0000.0001) %MON forcing_qnet_mean            =   3.4229998638359E+01
(PID.TID 0000.0001) %MON forcing_qnet_sd              =   2.1816509761452E+02
(PID.TID 0000.0001) %MON forcing_qnet_del2            =   8.5897453824337E-01
(PID.TID 0000.0001) %MON forcing_qsw_max              =   0.0000000000000E+00
(PID.TID 0000.0001) %MON forcing_qsw_min              =  -5.4498503312086E+02
(PID.TID 0000.0001) %MON forcing_qsw_mean             =  -6.6195076713196E+01
(PID.TID 0000.0001) %MON forcing_qsw_sd               =   1.2214951687879E+02
(PID.TID 0000.0001) %MON forcing_qsw_del2             =   2.1152898813345E-01
(PID.TID 0000.0001) %MON forcing_empmr_max            =   5.4901801049709E-03
(PID.TID 0000.0001) %MON forcing_empmr_min            =  -1.1775795370340E-01
(PID.TID 0000.0001) %MON forcing_empmr_mean           =  -8.8588907110186E-06
(PID.TID 0000.0001) %MON forcing_empmr_sd             =   4.6743895046276E-04
(PID.TID 0000.0001) %MON forcing_empmr_del2           =   5.0868401966782E-06
(PID.TID 0000.0001) %MON forcing_fu_max               =   1.1378732919693E+00
(PID.TID 0000.0001) %MON forcing_fu_min               =  -8.4811270236969E-01
(PID.TID 0000.0001) %MON forcing_fu_mean              =   1.1826283764600E-02
(PID.TID 0000.0001) %MON forcing_fu_sd                =   1.0609719107157E-01
(PID.TID 0000.0001) %MON forcing_fu_del2              =   1.5128870183977E-04
(PID.TID 0000.0001) %MON forcing_fv_max               =   8.1374689936638E-01
(PID.TID 0000.0001) %MON forcing_fv_min               =  -7.5891046214631E-01
(PID.TID 0000.0001) %MON forcing_fv_mean              =  -9.9969129742406E-03
(PID.TID 0000.0001) %MON forcing_fv_sd                =   1.0436504707987E-01
(PID.TID 0000.0001) %MON forcing_fv_del2              =   1.2119973782746E-04
(PID.TID 0000.0001) %MON trAdv_CFL_u_max              =   2.7945225859009E-02
(PID.TID 0000.0001) %MON trAdv_CFL_v_max              =   3.1728562895895E-02
(PID.TID 0000.0001) %MON trAdv_CFL_w_max              =   2.3996975552550E-01
(PID.TID 0000.0001) %MON advcfl_uvel_max              =   2.8060593447818E-02
(PID.TID 0000.0001) %MON advcfl_vvel_max              =   3.1841838066087E-02
(PID.TID 0000.0001) %MON advcfl_wvel_max              =   2.4985122171712E-01
(PID.TID 0000.0001) %MON advcfl_W_hf_max              =   2.6095572046010E-01
(PID.TID 0000.0001) %MON pe_b_mean                    =   6.8452212278177E-04
(PID.TID 0000.0001) %MON ke_max                       =   1.5577868497423E+00
(PID.TID 0000.0001) %MON ke_mean                      =   1.6041796768692E-03
(PID.TID 0000.0001) %MON ke_vol                       =   1.3350064351420E+18
(PID.TID 0000.0001) %MON vort_r_min                   =  -5.7073373780695E-05
(PID.TID 0000.0001) %MON vort_r_max                   =   5.0560700441687E-05
(PID.TID 0000.0001) %MON vort_a_mean                  =  -1.9725213241026E-05
(PID.TID 0000.0001) %MON vort_a_sd                    =   7.4542585183589E-05
(PID.TID 0000.0001) %MON vort_p_mean                  =  -2.1669263470803E-05
(PID.TID 0000.0001) %MON vort_p_sd                    =   9.3628741159122E-05
(PID.TID 0000.0001) %MON surfExpan_theta_mean         =  -1.1420600225725E-05
(PID.TID 0000.0001) %MON surfExpan_salt_mean          =  -7.7481212473415E-07
(PID.TID 0000.0001) // =======================================================
(PID.TID 0000.0001) // End MONITOR dynamic field statistics
(PID.TID 0000.0001) // =======================================================
 cg2d: Sum(rhs),rhsMax =   2.37017684985676E+01  4.54616774863642E+00
 cg2d: Sum(rhs),rhsMax =   2.38695146040841E+01  4.48594867126199E+00
 cg2d: Sum(rhs),rhsMax =   2.40598924037824E+01  4.42209657983614E+00
 cg2d: Sum(rhs),rhsMax =   2.42828868571487E+01  4.35467884271511E+00
 cg2d: Sum(rhs),rhsMax =   2.45404120410496E+01  4.28349799665839E+00
 cg2d: Sum(rhs),rhsMax =   2.48281166608945E+01  4.20795821860490E+00
 cg2d: Sum(rhs),rhsMax =   2.51557271858037E+01  4.12769110896290E+00
 cg2d: Sum(rhs),rhsMax =   2.55283187035184E+01  4.04212598642034E+00
(PID.TID 0000.0001)      cg2d_init_res =   7.31537157834424E-01
(PID.TID 0000.0001)      cg2d_iters(min,last) =      -1      23
(PID.TID 0000.0001)      cg2d_last_res =   8.12045522869266E-06
(PID.TID 0000.0001) // =======================================================
(PID.TID 0000.0001) // Begin MONITOR dynamic field statistics
(PID.TID 0000.0001) // =======================================================
(PID.TID 0000.0001) %MON time_tsnumber                =                    56
(PID.TID 0000.0001) %MON time_secondsf                =   5.0400000000000E+04
(PID.TID 0000.0001) %MON dynstat_eta_max              =   1.1419890007157E+00
(PID.TID 0000.0001) %MON dynstat_eta_min              =  -3.3773450320797E+00
(PID.TID 0000.0001) %MON dynstat_eta_mean             =  -1.1751075088194E-03
(PID.TID 0000.0001) %MON dynstat_eta_sd               =   7.1454968576679E-01
(PID.TID 0000.0001) %MON dynstat_eta_del2             =   2.0240012495253E-04
(PID.TID 0000.0001) %MON dynstat_uvel_max             =   1.8383245007036E+00
(PID.TID 0000.0001) %MON dynstat_uvel_min             =  -1.6915553024430E+00
(PID.TID 0000.0001) %MON dynstat_uvel_mean            =   1.5867209393901E-03
(PID.TID 0000.0001) %MON dynstat_uvel_sd              =   3.7846388784596E-02
(PID.TID 0000.0001) %MON dynstat_uvel_del2            =   7.9550074673013E-05
(PID.TID 0000.0001) %MON dynstat_vvel_max             =   1.5045100295216E+00
(PID.TID 0000.0001) %MON dynstat_vvel_min             =  -1.7958915496134E+00
(PID.TID 0000.0001) %MON dynstat_vvel_mean            =   2.0477287143747E-03
(PID.TID 0000.0001) %MON dynstat_vvel_sd              =   4.1430158561224E-02
(PID.TID 0000.0001) %MON dynstat_vvel_del2            =   8.0731544423661E-05
(PID.TID 0000.0001) %MON dynstat_wvel_max             =   1.5945221020726E-02
(PID.TID 0000.0001) %MON dynstat_wvel_min             =  -1.6464856227843E-02
(PID.TID 0000.0001) %MON dynstat_wvel_mean            =  -7.1712350888205E-22
(PID.TID 0000.0001) %MON dynstat_wvel_sd              =   5.7618076402973E-04
(PID.TID 0000.0001) %MON dynstat_wvel_del2            =   1.3159479527049E-06
(PID.TID 0000.0001) %MON dynstat_theta_max            =   3.2664262694297E+01
(PID.TID 0000.0001) %MON dynstat_theta_min            =  -2.7025287769091E+00
(PID.TID 0000.0001) %MON dynstat_theta_mean           =   3.5902660652463E+00
(PID.TID 0000.0001) %MON dynstat_theta_sd             =   4.4235959862582E+00
(PID.TID 0000.0001) %MON dynstat_theta_del2           =   2.4395589493164E-04
(PID.TID 0000.0001) %MON dynstat_salt_max             =   4.0711497878852E+01
(PID.TID 0000.0001) %MON dynstat_salt_min             =   1.8861434789853E+01
(PID.TID 0000.0001) %MON dynstat_salt_mean            =   3.4725466205558E+01
(PID.TID 0000.0001) %MON dynstat_salt_sd              =   3.6780211006062E-01
(PID.TID 0000.0001) %MON dynstat_salt_del2            =   1.0332728915451E-04
(PID.TID 0000.0001) %MON dynstat_sst_max              =   3.2633284290310E+01
(PID.TID 0000.0001) %MON dynstat_sst_min              =  -2.7025287769091E+00
(PID.TID 0000.0001) %MON dynstat_sst_mean             =   1.8260878762521E+01
(PID.TID 0000.0001) %MON dynstat_sst_sd               =   1.0221381874252E+01
(PID.TID 0000.0001) %MON dynstat_sst_del2             =   2.1619231148383E-03
(PID.TID 0000.0001) %MON dynstat_sss_max              =   3.9380167481686E+01
(PID.TID 0000.0001) %MON dynstat_sss_min              =   1.8882565925520E+01
(PID.TID 0000.0001) %MON dynstat_sss_mean             =   3.4779647730149E+01
(PID.TID 0000.0001) %MON dynstat_sss_sd               =   9.7915235876230E-01
(PID.TID 0000.0001) %MON dynstat_sss_del2             =   1.7250811753989E-03
(PID.TID 0000.0001) %MON forcing_qnet_max             =   1.7414700927734E+03
(PID.TID 0000.0001) %MON forcing_qnet_min             =  -3.2935141450493E+03
(PID.TID 0000.0001) %MON forcing_qnet_mean            =   2.3113761246792E+01
(PID.TID 0000.0001) %MON forcing_qnet_sd              =   2.0826066411295E+02
(PID.TID 0000.0001) %MON forcing_qnet_del2            =   7.9747271394617E-01
(PID.TID 0000.0001) %MON forcing_qsw_max              =   0.0000000000000E+00
(PID.TID 0000.0001) %MON forcing_qsw_min              =  -5.0902815015106E+02
(PID.TID 0000.0001) %MON forcing_qsw_mean             =  -7.1557084014533E+01
(PID.TID 0000.0001) %MON forcing_qsw_sd               =   1.2050540372394E+02
(PID.TID 0000.0001) %MON forcing_qsw_del2             =   2.1281265404057E-01
(PID.TID 0000.0001) %MON forcing_empmr_max            =   5.9487763792276E-03
(PID.TID 0000.0001) %MON forcing_empmr_min            =  -1.0694620758295E-01
(PID.TID 0000.0001) %MON forcing_empmr_mean           =  -8.5439785497557E-06
(PID.TID 0000.0001) %MON forcing_empmr_sd             =   4.1632463227809E-04
(PID.TID 0000.0001) %MON forcing_empmr_del2           =   4.6792389913035E-06
(PID.TID 0000.0001) %MON forcing_fu_max               =   1.1118809580803E+00
(PID.TID 0000.0001) %MON forcing_fu_min               =  -7.8594318032265E-01
(PID.TID 0000.0001) %MON forcing_fu_mean              =   1.1097491591493E-02
(PID.TID 0000.0001) %MON forcing_fu_sd                =   1.0410423357205E-01
(PID.TID 0000.0001) %MON forcing_fu_del2              =   1.4611866964678E-04
(PID.TID 0000.0001) %MON forcing_fv_max               =   8.3599573373795E-01
(PID.TID 0000.0001) %MON forcing_fv_min               =  -8.2502148429304E-01
(PID.TID 0000.0001) %MON forcing_fv_mean              =  -1.0269787961078E-02
(PID.TID 0000.0001) %MON forcing_fv_sd                =   1.0306706682207E-01
(PID.TID 0000.0001) %MON forcing_fv_del2              =   1.1995950736802E-04
(PID.TID 0000.0001) %MON trAdv_CFL_u_max              =   3.5119734346990E-02
(PID.TID 0000.0001) %MON trAdv_CFL_v_max              =   3.6331515782064E-02
(PID.TID 0000.0001) %MON trAdv_CFL_w_max              =   2.0599473031179E-01
(PID.TID 0000.0001) %MON advcfl_uvel_max              =   3.4768479562830E-02
(PID.TID 0000.0001) %MON advcfl_vvel_max              =   3.6461224103461E-02
(PID.TID 0000.0001) %MON advcfl_wvel_max              =   2.1435570992211E-01
(PID.TID 0000.0001) %MON advcfl_W_hf_max              =   2.2388263036309E-01
(PID.TID 0000.0001) %MON pe_b_mean                    =   6.7161677306267E-04
(PID.TID 0000.0001) %MON ke_max                       =   2.2631173812853E+00
(PID.TID 0000.0001) %MON ke_mean                      =   1.5215814162316E-03
(PID.TID 0000.0001) %MON ke_vol                       =   1.3350064351420E+18
(PID.TID 0000.0001) %MON vort_r_min                   =  -6.2819622439836E-05
(PID.TID 0000.0001) %MON vort_r_max                   =   6.4799475884333E-05
(PID.TID 0000.0001) %MON vort_a_mean                  =  -1.9725213241026E-05
(PID.TID 0000.0001) %MON vort_a_sd                    =   7.4542713779230E-05
(PID.TID 0000.0001) %MON vort_p_mean                  =  -2.1669263470803E-05
(PID.TID 0000.0001) %MON vort_p_sd                    =   9.3627192994217E-05
(PID.TID 0000.0001) %MON surfExpan_theta_mean         =  -8.3921439164542E-06
(PID.TID 0000.0001) %MON surfExpan_salt_mean          =  -1.2165231500572E-06
(PID.TID 0000.0001) // =======================================================
(PID.TID 0000.0001) // End MONITOR dynamic field statistics
(PID.TID 0000.0001) // =======================================================
 cg2d: Sum(rhs),rhsMax =   2.59463223362266E+01  3.95104135114256E+00
 cg2d: Sum(rhs),rhsMax =   2.64194601770566E+01  3.85430695647208E+00
 cg2d: Sum(rhs),rhsMax =   2.69517921870276E+01  3.75205449056213E+00
 cg2d: Sum(rhs),rhsMax =   2.75393992131085E+01  3.64666720317651E+00
 cg2d: Sum(rhs),rhsMax =   2.78626510396632E+01  3.57929880629823E+00
 cg2d: Sum(rhs),rhsMax =   2.82361533918308E+01  3.50689033728797E+00
 cg2d: Sum(rhs),rhsMax =   2.86617498268788E+01  3.42972354857992E+00
 cg2d: Sum(rhs),rhsMax =   2.91461189517447E+01  3.34787953124848E+00
(PID.TID 0000.0001)      cg2d_init_res =   8.51392220535535E-01
(PID.TID 0000.0001)      cg2d_iters(min,last) =      -1      23
(PID.TID 0000.0001)      cg2d_last_res =   9.23598083277933E-06
(PID.TID 0000.0001) // =======================================================
(PID.TID 0000.0001) // Begin MONITOR dynamic field statistics
(PID.TID 0000.0001) // =======================================================
(PID.TID 0000.0001) %MON time_tsnumber                =                    64
(PID.TID 0000.0001) %MON time_secondsf                =   5.7600000000000E+04
(PID.TID 0000.0001) %MON dynstat_eta_max              =   1.0935542988074E+00
(PID.TID 0000.0001) %MON dynstat_eta_min              =  -2.9692863250305E+00
(PID.TID 0000.0001) %MON dynstat_eta_mean             =  -1.1112098893324E-03
(PID.TID 0000.0001) %MON dynstat_eta_sd               =   7.0780910448021E-01
(PID.TID 0000.0001) %MON dynstat_eta_del2             =   1.9174120910269E-04
(PID.TID 0000.0001) %MON dynstat_uvel_max             =   1.7826344318722E+00
(PID.TID 0000.0001) %MON dynstat_uvel_min             =  -1.5747538321560E+00
(PID.TID 0000.0001) %MON dynstat_uvel_mean            =   1.4195517269736E-03
(PID.TID 0000.0001) %MON dynstat_uvel_sd              =   3.6989287522608E-02
(PID.TID 0000.0001) %MON dynstat_uvel_del2            =   7.9089802222048E-05
(PID.TID 0000.0001) %MON dynstat_vvel_max             =   1.5192821627180E+00
(PID.TID 0000.0001) %MON dynstat_vvel_min             =  -1.6110993443888E+00
(PID.TID 0000.0001) %MON dynstat_vvel_mean            =   1.9835969816588E-03
(PID.TID 0000.0001) %MON dynstat_vvel_sd              =   3.9035625036807E-02
(PID.TID 0000.0001) %MON dynstat_vvel_del2            =   8.0678866267808E-05
(PID.TID 0000.0001) %MON dynstat_wvel_max             =   1.6642358024050E-02
(PID.TID 0000.0001) %MON dynstat_wvel_min             =  -1.5426910288079E-02
(PID.TID 0000.0001) %MON dynstat_wvel_mean            =   3.0766911832682E-21
(PID.TID 0000.0001) %MON dynstat_wvel_sd              =   5.5365967113981E-04
(PID.TID 0000.0001) %MON dynstat_wvel_del2            =   1.2278248858857E-06
(PID.TID 0000.0001) %MON dynstat_theta_max            =   3.2646824458655E+01
(PID.TID 0000.0001) %MON dynstat_theta_min            =  -2.6987344258695E+00
(PID.TID 0000.0001) %MON dynstat_theta_mean           =   3.5902713989339E+00
(PID.TID 0000.0001) %MON dynstat_theta_sd             =   4.4235547314578E+00
(PID.TID 0000.0001) %MON dynstat_theta_del2           =   2.3792233600459E-04
(PID.TID 0000.0001) %MON dynstat_salt_max             =   4.0711495735744E+01
(PID.TID 0000.0001) %MON dynstat_salt_min             =   1.8861685349435E+01
(PID.TID 0000.0001) %MON dynstat_salt_mean            =   3.4725459204901E+01
(PID.TID 0000.0001) %MON dynstat_salt_sd              =   3.6777112646547E-01
(PID.TID 0000.0001) %MON dynstat_salt_del2            =   1.0097061696148E-04
(PID.TID 0000.0001) %MON dynstat_sst_max              =   3.2618295557051E+01
(PID.TID 0000.0001) %MON dynstat_sst_min              =  -2.6987344258695E+00
(PID.TID 0000.0001) %MON dynstat_sst_mean             =   1.8258997683014E+01
(PID.TID 0000.0001) %MON dynstat_sst_sd               =   1.0221226462677E+01
(PID.TID 0000.0001) %MON dynstat_sst_del2             =   2.1148175273936E-03
(PID.TID 0000.0001) %MON dynstat_sss_max              =   3.9339218562581E+01
(PID.TID 0000.0001) %MON dynstat_sss_min              =   1.8878284720440E+01
(PID.TID 0000.0001) %MON dynstat_sss_mean             =   3.4779251690867E+01
(PID.TID 0000.0001) %MON dynstat_sss_sd               =   9.7957367912036E-01
(PID.TID 0000.0001) %MON dynstat_sss_del2             =   1.6946785375320E-03
(PID.TID 0000.0001) %MON forcing_qnet_max             =   1.8526810302734E+03
(PID.TID 0000.0001) %MON forcing_qnet_min             =  -4.7866079101562E+03
(PID.TID 0000.0001) %MON forcing_qnet_mean            =   1.2024000472484E+01
(PID.TID 0000.0001) %MON forcing_qnet_sd              =   2.1985711404436E+02
(PID.TID 0000.0001) %MON forcing_qnet_del2            =   8.5343448629192E-01
(PID.TID 0000.0001) %MON forcing_qsw_max              =   0.0000000000000E+00
(PID.TID 0000.0001) %MON forcing_qsw_min              =  -5.2259271052818E+02
(PID.TID 0000.0001) %MON forcing_qsw_mean             =  -7.6645855004257E+01
(PID.TID 0000.0001) %MON forcing_qsw_sd               =   1.3442596355240E+02
(PID.TID 0000.0001) %MON forcing_qsw_del2             =   2.2276711803432E-01
(PID.TID 0000.0001) %MON forcing_empmr_max            =   8.9409723877907E-03
(PID.TID 0000.0001) %MON forcing_empmr_min            =  -8.0697193741798E-02
(PID.TID 0000.0001) %MON forcing_empmr_mean           =  -9.3955840911326E-06
(PID.TID 0000.0001) %MON forcing_empmr_sd             =   3.3110877126947E-04
(PID.TID 0000.0001) %MON forcing_empmr_del2           =   3.5065385290966E-06
(PID.TID 0000.0001) %MON forcing_fu_max               =   1.0637339949608E+00
(PID.TID 0000.0001) %MON forcing_fu_min               =  -6.8813648819923E-01
(PID.TID 0000.0001) %MON forcing_fu_mean              =   1.0474858690357E-02
(PID.TID 0000.0001) %MON forcing_fu_sd                =   1.0268180506019E-01
(PID.TID 0000.0001) %MON forcing_fu_del2              =   1.4289263317504E-04
(PID.TID 0000.0001) %MON forcing_fv_max               =   8.5607749223709E-01
(PID.TID 0000.0001) %MON forcing_fv_min               =  -8.1532267062991E-01
(PID.TID 0000.0001) %MON forcing_fv_mean              =  -1.0093480102125E-02
(PID.TID 0000.0001) %MON forcing_fv_sd                =   1.0208272033911E-01
(PID.TID 0000.0001) %MON forcing_fv_del2              =   1.1864133582881E-04
(PID.TID 0000.0001) %MON trAdv_CFL_u_max              =   3.3999419793093E-02
(PID.TID 0000.0001) %MON trAdv_CFL_v_max              =   3.2593104672570E-02
(PID.TID 0000.0001) %MON trAdv_CFL_w_max              =   1.9162378392610E-01
(PID.TID 0000.0001) %MON advcfl_uvel_max              =   3.3659369986822E-02
(PID.TID 0000.0001) %MON advcfl_vvel_max              =   3.2709466371365E-02
(PID.TID 0000.0001) %MON advcfl_wvel_max              =   1.8200741150976E-01
(PID.TID 0000.0001) %MON advcfl_W_hf_max              =   1.9162378392610E-01
(PID.TID 0000.0001) %MON pe_b_mean                    =   6.5900521850533E-04
(PID.TID 0000.0001) %MON ke_max                       =   1.9294706505334E+00
(PID.TID 0000.0001) %MON ke_mean                      =   1.3973699874801E-03
(PID.TID 0000.0001) %MON ke_vol                       =   1.3350064351420E+18
(PID.TID 0000.0001) %MON vort_r_min                   =  -5.2377346487400E-05
(PID.TID 0000.0001) %MON vort_r_max                   =   6.3782257305359E-05
(PID.TID 0000.0001) %MON vort_a_mean                  =  -1.9725213241026E-05
(PID.TID 0000.0001) %MON vort_a_sd                    =   7.4542489032729E-05
(PID.TID 0000.0001) %MON vort_p_mean                  =  -2.1669263470803E-05
(PID.TID 0000.0001) %MON vort_p_sd                    =   9.3624921605805E-05
(PID.TID 0000.0001) %MON surfExpan_theta_mean         =  -6.2656206294756E-06
(PID.TID 0000.0001) %MON surfExpan_salt_mean          =  -6.1645744219410E-07
(PID.TID 0000.0001) // =======================================================
(PID.TID 0000.0001) // End MONITOR dynamic field statistics
(PID.TID 0000.0001) // =======================================================
 cg2d: Sum(rhs),rhsMax =   2.96937751437665E+01  3.26214233398085E+00
 cg2d: Sum(rhs),rhsMax =   3.03007953885567E+01  3.17288410537391E+00
 cg2d: Sum(rhs),rhsMax =   3.09724400487601E+01  3.08086778146162E+00
 cg2d: Sum(rhs),rhsMax =   3.11298298040863E+01  3.04149129806261E+00
 cg2d: Sum(rhs),rhsMax =   3.10128697882014E+01  3.02793383905970E+00
 cg2d: Sum(rhs),rhsMax =   3.08169153468893E+01  3.02216076538936E+00
 cg2d: Sum(rhs),rhsMax =   3.06313613509139E+01  3.01576555827108E+00
 cg2d: Sum(rhs),rhsMax =   3.04467569137887E+01  3.00881625307923E+00
(PID.TID 0000.0001)      cg2d_init_res =   8.78658180392829E-01
(PID.TID 0000.0001)      cg2d_iters(min,last) =      -1      23
(PID.TID 0000.0001)      cg2d_last_res =   9.53567476669807E-06
(PID.TID 0000.0001) // =======================================================
(PID.TID 0000.0001) // Begin MONITOR dynamic field statistics
(PID.TID 0000.0001) // =======================================================
(PID.TID 0000.0001) %MON time_tsnumber                =                    72
(PID.TID 0000.0001) %MON time_secondsf                =   6.4800000000000E+04
(PID.TID 0000.0001) %MON dynstat_eta_max              =   1.0568038419745E+00
(PID.TID 0000.0001) %MON dynstat_eta_min              =  -3.1956749443753E+00
(PID.TID 0000.0001) %MON dynstat_eta_mean             =  -1.0432352399902E-03
(PID.TID 0000.0001) %MON dynstat_eta_sd               =   7.0154255847969E-01
(PID.TID 0000.0001) %MON dynstat_eta_del2             =   1.7971573649554E-04
(PID.TID 0000.0001) %MON dynstat_uvel_max             =   1.7861618685519E+00
(PID.TID 0000.0001) %MON dynstat_uvel_min             =  -1.5979462922882E+00
(PID.TID 0000.0001) %MON dynstat_uvel_mean            =   1.1753720211414E-03
(PID.TID 0000.0001) %MON dynstat_uvel_sd              =   3.5578606618116E-02
(PID.TID 0000.0001) %MON dynstat_uvel_del2            =   7.7296780222093E-05
(PID.TID 0000.0001) %MON dynstat_vvel_max             =   1.4959415330278E+00
(PID.TID 0000.0001) %MON dynstat_vvel_min             =  -1.1083047775632E+00
(PID.TID 0000.0001) %MON dynstat_vvel_mean            =   1.8502708807141E-03
(PID.TID 0000.0001) %MON dynstat_vvel_sd              =   3.7213249628674E-02
(PID.TID 0000.0001) %MON dynstat_vvel_del2            =   7.9303237532966E-05
(PID.TID 0000.0001) %MON dynstat_wvel_max             =   1.5301192718070E-02
(PID.TID 0000.0001) %MON dynstat_wvel_min             =  -1.3231079643066E-02
(PID.TID 0000.0001) %MON dynstat_wvel_mean            =  -3.1345237243070E-21
(PID.TID 0000.0001) %MON dynstat_wvel_sd              =   5.2225239706703E-04
(PID.TID 0000.0001) %MON dynstat_wvel_del2            =   1.1459297808286E-06
(PID.TID 0000.0001) %MON dynstat_theta_max            =   3.2627873994703E+01
(PID.TID 0000.0001) %MON dynstat_theta_min            =  -2.6838254478728E+00
(PID.TID 0000.0001) %MON dynstat_theta_mean           =   3.5902814095063E+00
(PID.TID 0000.0001) %MON dynstat_theta_sd             =   4.4235421277239E+00
(PID.TID 0000.0001) %MON dynstat_theta_del2           =   2.3345364450065E-04
(PID.TID 0000.0001) %MON dynstat_salt_max             =   4.0711493345880E+01
(PID.TID 0000.0001) %MON dynstat_salt_min             =   1.8863858185972E+01
(PID.TID 0000.0001) %MON dynstat_salt_mean            =   3.4725453053498E+01
(PID.TID 0000.0001) %MON dynstat_salt_sd              =   3.6774499056211E-01
(PID.TID 0000.0001) %MON dynstat_salt_del2            =   9.8747929676415E-05
(PID.TID 0000.0001) %MON dynstat_sst_max              =   3.2601833866518E+01
(PID.TID 0000.0001) %MON dynstat_sst_min              =  -2.6838254478728E+00
(PID.TID 0000.0001) %MON dynstat_sst_mean             =   1.8258745219477E+01
(PID.TID 0000.0001) %MON dynstat_sst_sd               =   1.0221767460819E+01
(PID.TID 0000.0001) %MON dynstat_sst_del2             =   2.0770998188717E-03
(PID.TID 0000.0001) %MON dynstat_sss_max              =   3.9297124189928E+01
(PID.TID 0000.0001) %MON dynstat_sss_min              =   1.8875912515514E+01
(PID.TID 0000.0001) %MON dynstat_sss_mean             =   3.4778926080249E+01
(PID.TID 0000.0001) %MON dynstat_sss_sd               =   9.7996062205236E-01
(PID.TID 0000.0001) %MON dynstat_sss_del2             =   1.6603952013263E-03
(PID.TID 0000.0001) %MON forcing_qnet_max             =   2.5447241210938E+03
(PID.TID 0000.0001) %MON forcing_qnet_min             =  -4.6931650390625E+03
(PID.TID 0000.0001) %MON forcing_qnet_mean            =  -5.4208047616285E-01
(PID.TID 0000.0001) %MON forcing_qnet_sd              =   2.2581352592957E+02
(PID.TID 0000.0001) %MON forcing_qnet_del2            =   6.9467021447975E-01
(PID.TID 0000.0001) %MON forcing_qsw_max              =   0.0000000000000E+00
(PID.TID 0000.0001) %MON forcing_qsw_min              =  -5.4515974480920E+02
(PID.TID 0000.0001) %MON forcing_qsw_mean             =  -8.3592656357865E+01
(PID.TID 0000.0001) %MON forcing_qsw_sd               =   1.4271116380089E+02
(PID.TID 0000.0001) %MON forcing_qsw_del2             =   2.2885402766532E-01
(PID.TID 0000.0001) %MON forcing_empmr_max            =   9.4085019081831E-03
(PID.TID 0000.0001) %MON forcing_empmr_min            =  -8.1678792834282E-02
(PID.TID 0000.0001) %MON forcing_empmr_mean           =  -1.0122622950594E-05
(PID.TID 0000.0001) %MON forcing_empmr_sd             =   3.5011117896333E-04
(PID.TID 0000.0001) %MON forcing_empmr_del2           =   2.6150918932283E-06
(PID.TID 0000.0001) %MON forcing_fu_max               =   1.0324595570564E+00
(PID.TID 0000.0001) %MON forcing_fu_min               =  -6.6376701312691E-01
(PID.TID 0000.0001) %MON forcing_fu_mean              =   1.0124178377637E-02
(PID.TID 0000.0001) %MON forcing_fu_sd                =   1.0132707751906E-01
(PID.TID 0000.0001) %MON forcing_fu_del2              =   1.4051283966115E-04
(PID.TID 0000.0001) %MON forcing_fv_max               =   9.1801109910011E-01
(PID.TID 0000.0001) %MON forcing_fv_min               =  -8.0358833187636E-01
(PID.TID 0000.0001) %MON forcing_fv_mean              =  -1.0149778493141E-02
(PID.TID 0000.0001) %MON forcing_fv_sd                =   1.0129500231231E-01
(PID.TID 0000.0001) %MON forcing_fv_del2              =   1.1680112365369E-04
(PID.TID 0000.0001) %MON trAdv_CFL_u_max              =   2.6145319508858E-02
(PID.TID 0000.0001) %MON trAdv_CFL_v_max              =   2.6550418305420E-02
(PID.TID 0000.0001) %MON trAdv_CFL_w_max              =   1.7469803922911E-01
(PID.TID 0000.0001) %MON advcfl_uvel_max              =   2.6437886314591E-02
(PID.TID 0000.0001) %MON advcfl_vvel_max              =   2.6554136949617E-02
(PID.TID 0000.0001) %MON advcfl_wvel_max              =   1.8050859584342E-01
(PID.TID 0000.0001) %MON advcfl_W_hf_max              =   1.8853120010312E-01
(PID.TID 0000.0001) %MON pe_b_mean                    =   6.4738778220972E-04
(PID.TID 0000.0001) %MON ke_max                       =   1.4578049908411E+00
(PID.TID 0000.0001) %MON ke_mean                      =   1.2804515438329E-03
(PID.TID 0000.0001) %MON ke_vol                       =   1.3350064351420E+18
(PID.TID 0000.0001) %MON vort_r_min                   =  -4.4403831778451E-05
(PID.TID 0000.0001) %MON vort_r_max                   =   4.8673404218138E-05
(PID.TID 0000.0001) %MON vort_a_mean                  =  -1.9725213241026E-05
(PID.TID 0000.0001) %MON vort_a_sd                    =   7.4542154671318E-05
(PID.TID 0000.0001) %MON vort_p_mean                  =  -2.1669263470803E-05
(PID.TID 0000.0001) %MON vort_p_sd                    =   9.3623411310547E-05
(PID.TID 0000.0001) %MON surfExpan_theta_mean         =  -7.0097661203923E-06
(PID.TID 0000.0001) %MON surfExpan_salt_mean          =  -4.5091572456699E-07
(PID.TID 0000.0001) // =======================================================
(PID.TID 0000.0001) // End MONITOR dynamic field statistics
(PID.TID 0000.0001) // =======================================================
 cg2d: Sum(rhs),rhsMax =   3.02634506625166E+01  3.00140430796427E+00
 cg2d: Sum(rhs),rhsMax =   3.00834194099798E+01  2.99363865439644E+00
 cg2d: Sum(rhs),rhsMax =   2.98538699905521E+01  2.99060374984622E+00
 cg2d: Sum(rhs),rhsMax =   2.96242811379759E+01  2.98879174559725E+00
 cg2d: Sum(rhs),rhsMax =   2.94137496188127E+01  2.98626263186382E+00
 cg2d: Sum(rhs),rhsMax =   2.92164786509761E+01  2.98260287625983E+00
 cg2d: Sum(rhs),rhsMax =   2.90295877422834E+01  2.97787857125256E+00
 cg2d: Sum(rhs),rhsMax =   2.88542788134305E+01  2.97266294754717E+00
(PID.TID 0000.0001)      cg2d_init_res =   8.17517536181570E-01
(PID.TID 0000.0001)      cg2d_iters(min,last) =      -1      23
(PID.TID 0000.0001)      cg2d_last_res =   7.81654861921284E-06
(PID.TID 0000.0001) // =======================================================
(PID.TID 0000.0001) // Begin MONITOR dynamic field statistics
(PID.TID 0000.0001) // =======================================================
(PID.TID 0000.0001) %MON time_tsnumber                =                    80
(PID.TID 0000.0001) %MON time_secondsf                =   7.2000000000000E+04
(PID.TID 0000.0001) %MON dynstat_eta_max              =   1.0477998967070E+00
(PID.TID 0000.0001) %MON dynstat_eta_min              =  -3.1105215381818E+00
(PID.TID 0000.0001) %MON dynstat_eta_mean             =  -9.7679052126272E-04
(PID.TID 0000.0001) %MON dynstat_eta_sd               =   6.9800227865694E-01
(PID.TID 0000.0001) %MON dynstat_eta_del2             =   1.7138238421654E-04
(PID.TID 0000.0001) %MON dynstat_uvel_max             =   1.7462458660135E+00
(PID.TID 0000.0001) %MON dynstat_uvel_min             =  -1.5839728789562E+00
(PID.TID 0000.0001) %MON dynstat_uvel_mean            =   9.1853856942018E-04
(PID.TID 0000.0001) %MON dynstat_uvel_sd              =   3.4499264444949E-02
(PID.TID 0000.0001) %MON dynstat_uvel_del2            =   7.4712367967473E-05
(PID.TID 0000.0001) %MON dynstat_vvel_max             =   1.4744774161490E+00
(PID.TID 0000.0001) %MON dynstat_vvel_min             =  -1.0169226530777E+00
(PID.TID 0000.0001) %MON dynstat_vvel_mean            =   1.6299835350983E-03
(PID.TID 0000.0001) %MON dynstat_vvel_sd              =   3.6072041680056E-02
(PID.TID 0000.0001) %MON dynstat_vvel_del2            =   7.7113050026744E-05
(PID.TID 0000.0001) %MON dynstat_wvel_max             =   1.2529080077062E-02
(PID.TID 0000.0001) %MON dynstat_wvel_min             =  -1.1345993031204E-02
(PID.TID 0000.0001) %MON dynstat_wvel_mean            =  -7.7206442286898E-22
(PID.TID 0000.0001) %MON dynstat_wvel_sd              =   4.7975951095025E-04
(PID.TID 0000.0001) %MON dynstat_wvel_del2            =   1.0630983609529E-06
(PID.TID 0000.0001) %MON dynstat_theta_max            =   3.2606218448809E+01
(PID.TID 0000.0001) %MON dynstat_theta_min            =  -2.6516904802715E+00
(PID.TID 0000.0001) %MON dynstat_theta_mean           =   3.5902988214884E+00
(PID.TID 0000.0001) %MON dynstat_theta_sd             =   4.4235824267197E+00
(PID.TID 0000.0001) %MON dynstat_theta_del2           =   2.3050692353395E-04
(PID.TID 0000.0001) %MON dynstat_salt_max             =   4.0711490231506E+01
(PID.TID 0000.0001) %MON dynstat_salt_min             =   1.8853562045502E+01
(PID.TID 0000.0001) %MON dynstat_salt_mean            =   3.4725447753478E+01
(PID.TID 0000.0001) %MON dynstat_salt_sd              =   3.6772520690837E-01
(PID.TID 0000.0001) %MON dynstat_salt_del2            =   9.6726123485074E-05
(PID.TID 0000.0001) %MON dynstat_sst_max              =   3.2584676547693E+01
(PID.TID 0000.0001) %MON dynstat_sst_min              =  -2.6516904802715E+00
(PID.TID 0000.0001) %MON dynstat_sst_mean             =   1.8259839589031E+01
(PID.TID 0000.0001) %MON dynstat_sst_sd               =   1.0223602300345E+01
(PID.TID 0000.0001) %MON dynstat_sst_del2             =   2.0471506781097E-03
(PID.TID 0000.0001) %MON dynstat_sss_max              =   3.9256664716905E+01
(PID.TID 0000.0001) %MON dynstat_sss_min              =   1.8853562045502E+01
(PID.TID 0000.0001) %MON dynstat_sss_mean             =   3.4778586750257E+01
(PID.TID 0000.0001) %MON dynstat_sss_sd               =   9.8040234104991E-01
(PID.TID 0000.0001) %MON dynstat_sss_del2             =   1.6286867898103E-03
(PID.TID 0000.0001) %MON forcing_qnet_max             =   2.5135573730469E+03
(PID.TID 0000.0001) %MON forcing_qnet_min             =  -2.5855588378906E+03
(PID.TID 0000.0001) %MON forcing_qnet_mean            =  -1.2143662127105E+01
(PID.TID 0000.0001) %MON forcing_qnet_sd              =   2.1920364415990E+02
(PID.TID 0000.0001) %MON forcing_qnet_del2            =   6.3616426516461E-01
(PID.TID 0000.0001) %MON forcing_qsw_max              =   0.0000000000000E+00
(PID.TID 0000.0001) %MON forcing_qsw_min              =  -5.4196850534829E+02
(PID.TID 0000.0001) %MON forcing_qsw_mean             =  -9.2033342058589E+01
(PID.TID 0000.0001) %MON forcing_qsw_sd               =   1.4036730350565E+02
(PID.TID 0000.0001) %MON forcing_qsw_del2             =   2.2782317104414E-01
(PID.TID 0000.0001) %MON forcing_empmr_max            =   6.1553278937936E-03
(PID.TID 0000.0001) %MON forcing_empmr_min            =  -8.9795745909214E-02
(PID.TID 0000.0001) %MON forcing_empmr_mean           =  -8.5577028271182E-06
(PID.TID 0000.0001) %MON forcing_empmr_sd             =   3.6412611181741E-04
(PID.TID 0000.0001) %MON forcing_empmr_del2           =   2.3693336936035E-06
(PID.TID 0000.0001) %MON forcing_fu_max               =   9.3172848224640E-01
(PID.TID 0000.0001) %MON forcing_fu_min               =  -6.8211258285369E-01
(PID.TID 0000.0001) %MON forcing_fu_mean              =   9.9638874352958E-03
(PID.TID 0000.0001) %MON forcing_fu_sd                =   9.9736957921340E-02
(PID.TID 0000.0001) %MON forcing_fu_del2              =   1.3772473176714E-04
(PID.TID 0000.0001) %MON forcing_fv_max               =   8.9003878831863E-01
(PID.TID 0000.0001) %MON forcing_fv_min               =  -8.0488063580775E-01
(PID.TID 0000.0001) %MON forcing_fv_mean              =  -1.0434752681244E-02
(PID.TID 0000.0001) %MON forcing_fv_sd                =   1.0090013069097E-01
(PID.TID 0000.0001) %MON forcing_fv_del2              =   1.1470540289869E-04
(PID.TID 0000.0001) %MON trAdv_CFL_u_max              =   2.5658638952964E-02
(PID.TID 0000.0001) %MON trAdv_CFL_v_max              =   2.6173924827099E-02
(PID.TID 0000.0001) %MON trAdv_CFL_w_max              =   1.7316343985589E-01
(PID.TID 0000.0001) %MON advcfl_uvel_max              =   2.5949384387591E-02
(PID.TID 0000.0001) %MON advcfl_vvel_max              =   2.6173307314544E-02
(PID.TID 0000.0001) %MON advcfl_wvel_max              =   1.8003775419723E-01
(PID.TID 0000.0001) %MON advcfl_W_hf_max              =   1.8803943216155E-01
(PID.TID 0000.0001) %MON pe_b_mean                    =   6.4087012275685E-04
(PID.TID 0000.0001) %MON ke_max                       =   1.3814811142113E+00
(PID.TID 0000.0001) %MON ke_mean                      =   1.2030228214482E-03
(PID.TID 0000.0001) %MON ke_vol                       =   1.3350064351420E+18
(PID.TID 0000.0001) %MON vort_r_min                   =  -4.6930043359631E-05
(PID.TID 0000.0001) %MON vort_r_max                   =   4.7721193470661E-05
(PID.TID 0000.0001) %MON vort_a_mean                  =  -1.9725213241026E-05
(PID.TID 0000.0001) %MON vort_a_sd                    =   7.4541845964173E-05
(PID.TID 0000.0001) %MON vort_p_mean                  =  -2.1669263470803E-05
(PID.TID 0000.0001) %MON vort_p_sd                    =   9.3622703356168E-05
(PID.TID 0000.0001) %MON surfExpan_theta_mean         =  -7.8100272085344E-06
(PID.TID 0000.0001) %MON surfExpan_salt_mean          =  -2.5678853481607E-07
(PID.TID 0000.0001) // =======================================================
(PID.TID 0000.0001) // End MONITOR dynamic field statistics
(PID.TID 0000.0001) // =======================================================
 cg2d: Sum(rhs),rhsMax =   2.86797246626820E+01  2.96779351650430E+00
 cg2d: Sum(rhs),rhsMax =   2.84751653728138E+01  2.96510737559451E+00
 cg2d: Sum(rhs),rhsMax =   2.82405299660497E+01  2.96492530564707E+00
 cg2d: Sum(rhs),rhsMax =   2.79934337124987E+01  2.96740446562016E+00
 cg2d: Sum(rhs),rhsMax =   2.77273925710699E+01  2.97256145878495E+00
 cg2d: Sum(rhs),rhsMax =   2.74372972239657E+01  2.98006082163444E+00
 cg2d: Sum(rhs),rhsMax =   2.71308272892404E+01  2.98921094170996E+00
 cg2d: Sum(rhs),rhsMax =   2.68158526070492E+01  2.99903170458891E+00
(PID.TID 0000.0001)      cg2d_init_res =   7.29853364608428E-01
(PID.TID 0000.0001)      cg2d_iters(min,last) =      -1      23
(PID.TID 0000.0001)      cg2d_last_res =   7.21420403238823E-06
(PID.TID 0000.0001) // =======================================================
(PID.TID 0000.0001) // Begin MONITOR dynamic field statistics
(PID.TID 0000.0001) // =======================================================
(PID.TID 0000.0001) %MON time_tsnumber                =                    88
(PID.TID 0000.0001) %MON time_secondsf                =   7.9200000000000E+04
(PID.TID 0000.0001) %MON dynstat_eta_max              =   1.0903317061381E+00
(PID.TID 0000.0001) %MON dynstat_eta_min              =  -3.0816581458218E+00
(PID.TID 0000.0001) %MON dynstat_eta_mean             =  -9.1583705136880E-04
(PID.TID 0000.0001) %MON dynstat_eta_sd               =   6.9441580303995E-01
(PID.TID 0000.0001) %MON dynstat_eta_del2             =   1.6485410913299E-04
(PID.TID 0000.0001) %MON dynstat_uvel_max             =   1.6705750757798E+00
(PID.TID 0000.0001) %MON dynstat_uvel_min             =  -1.4879629924957E+00
(PID.TID 0000.0001) %MON dynstat_uvel_mean            =   8.3894612589668E-04
(PID.TID 0000.0001) %MON dynstat_uvel_sd              =   3.4260330887933E-02
(PID.TID 0000.0001) %MON dynstat_uvel_del2            =   7.1856248982778E-05
(PID.TID 0000.0001) %MON dynstat_vvel_max             =   1.4686677324791E+00
(PID.TID 0000.0001) %MON dynstat_vvel_min             =  -1.1587973230275E+00
(PID.TID 0000.0001) %MON dynstat_vvel_mean            =   1.5784364740026E-03
(PID.TID 0000.0001) %MON dynstat_vvel_sd              =   3.5610406253535E-02
(PID.TID 0000.0001) %MON dynstat_vvel_del2            =   7.4512140225839E-05
(PID.TID 0000.0001) %MON dynstat_wvel_max             =   9.6139937792724E-03
(PID.TID 0000.0001) %MON dynstat_wvel_min             =  -9.9072637351266E-03
(PID.TID 0000.0001) %MON dynstat_wvel_mean            =   1.2491828864397E-21
(PID.TID 0000.0001) %MON dynstat_wvel_sd              =   4.4081367596758E-04
(PID.TID 0000.0001) %MON dynstat_wvel_del2            =   9.8135259023572E-07
(PID.TID 0000.0001) %MON dynstat_theta_max            =   3.2585283505109E+01
(PID.TID 0000.0001) %MON dynstat_theta_min            =  -2.3830679006442E+00
(PID.TID 0000.0001) %MON dynstat_theta_mean           =   3.5903246996056E+00
(PID.TID 0000.0001) %MON dynstat_theta_sd             =   4.4236617561219E+00
(PID.TID 0000.0001) %MON dynstat_theta_del2           =   2.2869833441457E-04
(PID.TID 0000.0001) %MON dynstat_salt_max             =   4.0711487082781E+01
(PID.TID 0000.0001) %MON dynstat_salt_min             =   1.8618449532181E+01
(PID.TID 0000.0001) %MON dynstat_salt_mean            =   3.4725442929785E+01
(PID.TID 0000.0001) %MON dynstat_salt_sd              =   3.6770766057479E-01
(PID.TID 0000.0001) %MON dynstat_salt_del2            =   9.4948116714047E-05
(PID.TID 0000.0001) %MON dynstat_sst_max              =   3.2565287503384E+01
(PID.TID 0000.0001) %MON dynstat_sst_min              =  -2.3830679006442E+00
(PID.TID 0000.0001) %MON dynstat_sst_mean             =   1.8260981491966E+01
(PID.TID 0000.0001) %MON dynstat_sst_sd               =   1.0225519900868E+01
(PID.TID 0000.0001) %MON dynstat_sst_del2             =   2.0231107471110E-03
(PID.TID 0000.0001) %MON dynstat_sss_max              =   3.9218976816815E+01
(PID.TID 0000.0001) %MON dynstat_sss_min              =   1.8618449532181E+01
(PID.TID 0000.0001) %MON dynstat_sss_mean             =   3.4778564566695E+01
(PID.TID 0000.0001) %MON dynstat_sss_sd               =   9.8127451358710E-01
(PID.TID 0000.0001) %MON dynstat_sss_del2             =   1.6016749296235E-03
(PID.TID 0000.0001) %MON forcing_qnet_max             =   2.6941909647836E+03
(PID.TID 0000.0001) %MON forcing_qnet_min             =  -2.4642382812500E+03
(PID.TID 0000.0001) %MON forcing_qnet_mean            =  -2.2633813701779E+01
(PID.TID 0000.0001) %MON forcing_qnet_sd              =   2.1896455020812E+02
(PID.TID 0000.0001) %MON forcing_qnet_del2            =   5.6101914890186E-01
(PID.TID 0000.0001) %MON forcing_qsw_max              =   0.0000000000000E+00
(PID.TID 0000.0001) %MON forcing_qsw_min              =  -5.3388697804469E+02
(PID.TID 0000.0001) %MON forcing_qsw_mean             =  -9.8994803725393E+01
(PID.TID 0000.0001) %MON forcing_qsw_sd               =   1.4364162162878E+02
(PID.TID 0000.0001) %MON forcing_qsw_del2             =   2.3301102051465E-01
(PID.TID 0000.0001) %MON forcing_empmr_max            =   4.4489204883575E-03
(PID.TID 0000.0001) %MON forcing_empmr_min            =  -1.0349170863628E-01
(PID.TID 0000.0001) %MON forcing_empmr_mean           =  -8.8985076291681E-06
(PID.TID 0000.0001) %MON forcing_empmr_sd             =   4.0958442196282E-04
(PID.TID 0000.0001) %MON forcing_empmr_del2           =   2.5421934913934E-06
(PID.TID 0000.0001) %MON forcing_fu_max               =   8.6586621403694E-01
(PID.TID 0000.0001) %MON forcing_fu_min               =  -6.9967913842480E-01
(PID.TID 0000.0001) %MON forcing_fu_mean              =   9.6390437588388E-03
(PID.TID 0000.0001) %MON forcing_fu_sd                =   9.8003595323721E-02
(PID.TID 0000.0001) %MON forcing_fu_del2              =   1.3487835048639E-04
(PID.TID 0000.0001) %MON forcing_fv_max               =   8.8977345824242E-01
(PID.TID 0000.0001) %MON forcing_fv_min               =  -8.2032504836328E-01
(PID.TID 0000.0001) %MON forcing_fv_mean              =  -1.0849866985728E-02
(PID.TID 0000.0001) %MON forcing_fv_sd                =   9.9835294491502E-02
(PID.TID 0000.0001) %MON forcing_fv_del2              =   1.1310353460777E-04
(PID.TID 0000.0001) %MON trAdv_CFL_u_max              =   2.4457472123315E-02
(PID.TID 0000.0001) %MON trAdv_CFL_v_max              =   2.6070795255916E-02
(PID.TID 0000.0001) %MON trAdv_CFL_w_max              =   1.6085163946169E-01
(PID.TID 0000.0001) %MON advcfl_uvel_max              =   2.4120724710450E-02
(PID.TID 0000.0001) %MON advcfl_vvel_max              =   2.6070180176462E-02
(PID.TID 0000.0001) %MON advcfl_wvel_max              =   1.6741211146723E-01
(PID.TID 0000.0001) %MON advcfl_W_hf_max              =   1.7485264975466E-01
(PID.TID 0000.0001) %MON pe_b_mean                    =   6.3430106525648E-04
(PID.TID 0000.0001) %MON ke_max                       =   1.3529413136985E+00
(PID.TID 0000.0001) %MON ke_mean                      =   1.1789963155479E-03
(PID.TID 0000.0001) %MON ke_vol                       =   1.3350064351420E+18
(PID.TID 0000.0001) %MON vort_r_min                   =  -4.8593434872284E-05
(PID.TID 0000.0001) %MON vort_r_max                   =   4.7571382734374E-05
(PID.TID 0000.0001) %MON vort_a_mean                  =  -1.9725213241026E-05
(PID.TID 0000.0001) %MON vort_a_sd                    =   7.4541633940628E-05
(PID.TID 0000.0001) %MON vort_p_mean                  =  -2.1669263470803E-05
(PID.TID 0000.0001) %MON vort_p_sd                    =   9.3622882028257E-05
(PID.TID 0000.0001) %MON surfExpan_theta_mean         =  -1.0034661484345E-05
(PID.TID 0000.0001) %MON surfExpan_salt_mean          =  -3.2916394373251E-08
(PID.TID 0000.0001) // =======================================================
(PID.TID 0000.0001) // End MONITOR dynamic field statistics
(PID.TID 0000.0001) // =======================================================
 cg2d: Sum(rhs),rhsMax =   2.65011964617388E+01  3.00859687821847E+00
 cg2d: Sum(rhs),rhsMax =   2.62041063435956E+01  3.01711965944586E+00
 cg2d: Sum(rhs),rhsMax =   2.59230228560846E+01  3.02414745700497E+00
 cg2d: Sum(rhs),rhsMax =   2.56569137700114E+01  3.02955271641267E+00
 cg2d: Sum(rhs),rhsMax =   2.54074074490065E+01  3.03363947794687E+00
 cg2d: Sum(rhs),rhsMax =   2.51682478276327E+01  3.03680196097057E+00
 cg2d: Sum(rhs),rhsMax =   2.49267973963388E+01  3.03960450266966E+00
 cg2d: Sum(rhs),rhsMax =   2.46785210088688E+01  3.04251263746205E+00
(PID.TID 0000.0001)      cg2d_init_res =   6.67044667177229E-01
(PID.TID 0000.0001)      cg2d_iters(min,last) =      -1      23
(PID.TID 0000.0001)      cg2d_last_res =   6.15224946291871E-06
(PID.TID 0000.0001) // =======================================================
(PID.TID 0000.0001) // Begin MONITOR dynamic field statistics
(PID.TID 0000.0001) // =======================================================
(PID.TID 0000.0001) %MON time_tsnumber                =                    96
(PID.TID 0000.0001) %MON time_secondsf                =   8.6400000000000E+04
(PID.TID 0000.0001) %MON dynstat_eta_max              =   1.1126278528026E+00
(PID.TID 0000.0001) %MON dynstat_eta_min              =  -3.0579311888060E+00
(PID.TID 0000.0001) %MON dynstat_eta_mean             =  -8.5506092877252E-04
(PID.TID 0000.0001) %MON dynstat_eta_sd               =   6.8920032609464E-01
(PID.TID 0000.0001) %MON dynstat_eta_del2             =   1.6071434056041E-04
(PID.TID 0000.0001) %MON dynstat_uvel_max             =   1.5615916106625E+00
(PID.TID 0000.0001) %MON dynstat_uvel_min             =  -1.5170832728938E+00
(PID.TID 0000.0001) %MON dynstat_uvel_mean            =   8.0832288880443E-04
(PID.TID 0000.0001) %MON dynstat_uvel_sd              =   3.4479045368184E-02
(PID.TID 0000.0001) %MON dynstat_uvel_del2            =   6.9130964873088E-05
(PID.TID 0000.0001) %MON dynstat_vvel_max             =   1.4620143342246E+00
(PID.TID 0000.0001) %MON dynstat_vvel_min             =  -1.1268138037875E+00
(PID.TID 0000.0001) %MON dynstat_vvel_mean            =   1.5471402689440E-03
(PID.TID 0000.0001) %MON dynstat_vvel_sd              =   3.6019727506446E-02
(PID.TID 0000.0001) %MON dynstat_vvel_del2            =   7.1891108442245E-05
(PID.TID 0000.0001) %MON dynstat_wvel_max             =   9.2624182225787E-03
(PID.TID 0000.0001) %MON dynstat_wvel_min             =  -1.0608395037650E-02
(PID.TID 0000.0001) %MON dynstat_wvel_mean            =  -2.9147600683593E-21
(PID.TID 0000.0001) %MON dynstat_wvel_sd              =   4.1561898668530E-04
(PID.TID 0000.0001) %MON dynstat_wvel_del2            =   9.0727224804632E-07
(PID.TID 0000.0001) %MON dynstat_theta_max            =   3.2564844551451E+01
(PID.TID 0000.0001) %MON dynstat_theta_min            =  -2.3589519080836E+00
(PID.TID 0000.0001) %MON dynstat_theta_mean           =   3.5903569471241E+00
(PID.TID 0000.0001) %MON dynstat_theta_sd             =   4.4237660237654E+00
(PID.TID 0000.0001) %MON dynstat_theta_del2           =   2.2764771009347E-04
(PID.TID 0000.0001) %MON dynstat_salt_max             =   4.0711484333352E+01
(PID.TID 0000.0001) %MON dynstat_salt_min             =   1.7627854427574E+01
(PID.TID 0000.0001) %MON dynstat_salt_mean            =   3.4725438472496E+01
(PID.TID 0000.0001) %MON dynstat_salt_sd              =   3.6769065590372E-01
(PID.TID 0000.0001) %MON dynstat_salt_del2            =   9.3331371765706E-05
(PID.TID 0000.0001) %MON dynstat_sst_max              =   3.2545576101352E+01
(PID.TID 0000.0001) %MON dynstat_sst_min              =  -2.3589519080836E+00
(PID.TID 0000.0001) %MON dynstat_sst_mean             =   1.8262678861915E+01
(PID.TID 0000.0001) %MON dynstat_sst_sd               =   1.0227323813073E+01
(PID.TID 0000.0001) %MON dynstat_sst_del2             =   2.0022770507550E-03
(PID.TID 0000.0001) %MON dynstat_sss_max              =   3.9182492296898E+01
(PID.TID 0000.0001) %MON dynstat_sss_min              =   1.7627854427574E+01
(PID.TID 0000.0001) %MON dynstat_sss_mean             =   3.4778826024639E+01
(PID.TID 0000.0001) %MON dynstat_sss_sd               =   9.8254154481466E-01
(PID.TID 0000.0001) %MON dynstat_sss_del2             =   1.5768879712815E-03
(PID.TID 0000.0001) %MON forcing_qnet_max             =   2.4656015625000E+03
(PID.TID 0000.0001) %MON forcing_qnet_min             =  -1.4616528747790E+03
(PID.TID 0000.0001) %MON forcing_qnet_mean            =  -3.5245529158220E+01
(PID.TID 0000.0001) %MON forcing_qnet_sd              =   2.3401889584586E+02
(PID.TID 0000.0001) %MON forcing_qnet_del2            =   5.7668526626121E-01
(PID.TID 0000.0001) %MON forcing_qsw_max              =   0.0000000000000E+00
(PID.TID 0000.0001) %MON forcing_qsw_min              =  -5.3721977905365E+02
(PID.TID 0000.0001) %MON forcing_qsw_mean             =  -1.0828969932999E+02
(PID.TID 0000.0001) %MON forcing_qsw_sd               =   1.5089635001043E+02
(PID.TID 0000.0001) %MON forcing_qsw_del2             =   2.5081679763225E-01
(PID.TID 0000.0001) %MON forcing_empmr_max            =   4.6453182585537E-03
(PID.TID 0000.0001) %MON forcing_empmr_min            =  -8.4316477179527E-02
(PID.TID 0000.0001) %MON forcing_empmr_mean           =  -8.9468613019004E-06
(PID.TID 0000.0001) %MON forcing_empmr_sd             =   3.4613108163803E-04
(PID.TID 0000.0001) %MON forcing_empmr_del2           =   2.1470873577025E-06
(PID.TID 0000.0001) %MON forcing_fu_max               =   8.6504590511322E-01
(PID.TID 0000.0001) %MON forcing_fu_min               =  -7.0916049025485E-01
(PID.TID 0000.0001) %MON forcing_fu_mean              =   9.2900414184661E-03
(PID.TID 0000.0001) %MON forcing_fu_sd                =   9.7387434374852E-02
(PID.TID 0000.0001) %MON forcing_fu_del2              =   1.3266347726379E-04
(PID.TID 0000.0001) %MON forcing_fv_max               =   8.9211490750313E-01
(PID.TID 0000.0001) %MON forcing_fv_min               =  -7.8933098082736E-01
(PID.TID 0000.0001) %MON forcing_fv_mean              =  -1.0933228512903E-02
(PID.TID 0000.0001) %MON forcing_fv_sd                =   9.9371334586340E-02
(PID.TID 0000.0001) %MON forcing_fv_del2              =   1.1402474046701E-04
(PID.TID 0000.0001) %MON trAdv_CFL_u_max              =   2.5379594009431E-02
(PID.TID 0000.0001) %MON trAdv_CFL_v_max              =   2.5952688634648E-02
(PID.TID 0000.0001) %MON trAdv_CFL_w_max              =   1.4260356604334E-01
(PID.TID 0000.0001) %MON advcfl_uvel_max              =   2.5100014494918E-02
(PID.TID 0000.0001) %MON advcfl_vvel_max              =   2.5952076341643E-02
(PID.TID 0000.0001) %MON advcfl_wvel_max              =   1.4807489294095E-01
(PID.TID 0000.0001) %MON advcfl_W_hf_max              =   1.5490197199761E-01
(PID.TID 0000.0001) %MON pe_b_mean                    =   6.2480876171653E-04
(PID.TID 0000.0001) %MON ke_max                       =   1.3456638836986E+00
(PID.TID 0000.0001) %MON ke_mean                      =   1.2003128697570E-03
(PID.TID 0000.0001) %MON ke_vol                       =   1.3350064351420E+18
(PID.TID 0000.0001) %MON vort_r_min                   =  -5.0480417736580E-05
(PID.TID 0000.0001) %MON vort_r_max                   =   4.8879154676894E-05
(PID.TID 0000.0001) %MON vort_a_mean                  =  -1.9725213241026E-05
(PID.TID 0000.0001) %MON vort_a_sd                    =   7.4541498713483E-05
(PID.TID 0000.0001) %MON vort_p_mean                  =  -2.1669263470803E-05
(PID.TID 0000.0001) %MON vort_p_sd                    =   9.3623264249489E-05
(PID.TID 0000.0001) %MON surfExpan_theta_mean         =  -8.6290037968899E-06
(PID.TID 0000.0001) %MON surfExpan_salt_mean          =  -1.0626289083449E-07
(PID.TID 0000.0001) // =======================================================
(PID.TID 0000.0001) // End MONITOR dynamic field statistics
(PID.TID 0000.0001) // =======================================================
(PID.TID 0000.0001) %CHECKPOINT        96 ckptA
 cg2d: Sum(rhs),rhsMax =   2.44348454438098E+01  3.04566916449952E+00
(PID.TID 0000.0001) %CHECKPOINT        97 ckptB
