(PID.TID 0000.0001) 
(PID.TID 0000.0001) // ======================================================
(PID.TID 0000.0001) //                      MITgcm UV
(PID.TID 0000.0001) //                      =========
(PID.TID 0000.0001) // ======================================================
(PID.TID 0000.0001) // execution environment starting up...
(PID.TID 0000.0001) 
(PID.TID 0000.0001) // MITgcmUV version:  checkpoint66o
(PID.TID 0000.0001) // Build user:        estrobac
(PID.TID 0000.0001) // Build host:        pfe25
(PID.TID 0000.0001) // Build date:        Tue Apr 17 12:40:30 PDT 2018
(PID.TID 0000.0001) 
(PID.TID 0000.0001) // =======================================================
(PID.TID 0000.0001) // Execution Environment parameter file "eedata"
(PID.TID 0000.0001) // =======================================================
(PID.TID 0000.0001) ># Example "eedata" file
(PID.TID 0000.0001) ># Lines beginning "#" are comments
(PID.TID 0000.0001) ># nTx - No. threads per process in X
(PID.TID 0000.0001) ># nTy - No. threads per process in Y
(PID.TID 0000.0001) > &EEPARMS
(PID.TID 0000.0001) > useCubedSphereExchange=.TRUE.,
(PID.TID 0000.0001) > nTx=1,
(PID.TID 0000.0001) > nTy=1,
(PID.TID 0000.0001) > debugMode=.TRUE.,
(PID.TID 0000.0001) > &
(PID.TID 0000.0001) 
(PID.TID 0000.0001) // =======================================================
(PID.TID 0000.0001) // Computational Grid Specification ( see files "SIZE.h" )
(PID.TID 0000.0001) //                                  ( and "eedata"       )
(PID.TID 0000.0001) // =======================================================
(PID.TID 0000.0001)      nPx = 2880 ; /* No. processes in X */
(PID.TID 0000.0001)      nPy =    1 ; /* No. processes in Y */
(PID.TID 0000.0001)      nSx =    1 ; /* No. tiles in X per process */
(PID.TID 0000.0001)      nSy =    1 ; /* No. tiles in Y per process */
(PID.TID 0000.0001)      sNx =   60 ; /* Tile size in X */
(PID.TID 0000.0001)      sNy =   60 ; /* Tile size in Y */
(PID.TID 0000.0001)      OLx =    8 ; /* Tile overlap distance in X */
(PID.TID 0000.0001)      OLy =    8 ; /* Tile overlap distance in Y */
(PID.TID 0000.0001)      nTx =    1 ; /* No. threads in X per process */
(PID.TID 0000.0001)      nTy =    1 ; /* No. threads in Y per process */
(PID.TID 0000.0001)       Nr =   90 ; /* No. levels in the vertical   */
(PID.TID 0000.0001)       Nx =***** ; /* Total domain size in X ( = nPx*nSx*sNx ) */
(PID.TID 0000.0001)       Ny =   60 ; /* Total domain size in Y ( = nPy*nSy*sNy ) */
(PID.TID 0000.0001)   nTiles =    1 ; /* Total no. tiles per process ( = nSx*nSy ) */
(PID.TID 0000.0001)   nProcs = 2880 ; /* Total no. processes ( = nPx*nPy ) */
(PID.TID 0000.0001) nThreads =    1 ; /* Total no. threads per process ( = nTx*nTy ) */
(PID.TID 0000.0001) usingMPI =    T ; /* Flag used to control whether MPI is in use */
(PID.TID 0000.0001)                   /*  note: To execute a program with MPI calls */
(PID.TID 0000.0001)                   /*  it must be launched appropriately e.g     */
(PID.TID 0000.0001)                   /*  "mpirun -np 64 ......"                    */
(PID.TID 0000.0001) useCoupler=    F ;/* Flag used to control communications with   */
(PID.TID 0000.0001)                   /*  other model components, through a coupler */
(PID.TID 0000.0001) debugMode =    T ; /* print debug msg. (sequence of S/R calls)  */
(PID.TID 0000.0001) printMapIncludesZeros=    F ; /* print zeros in Std.Output maps */
(PID.TID 0000.0001) maxLengthPrt1D=   65 /* maxLength of 1D array printed to StdOut */
(PID.TID 0000.0001) 
(PID.TID 0000.0001) ======= Starting MPI parallel Run =========
(PID.TID 0000.0001)  My Processor Name (len:  8 ) = r509i0n6
(PID.TID 0000.0001)  Located at (  0,  0) on processor grid (0:***,0:  0)
(PID.TID 0000.0001)  Origin at  (     1,     1) on global grid (1:172800,1:    60)
(PID.TID 0000.0001)  North neighbor = processor 0000
(PID.TID 0000.0001)  South neighbor = processor 0000
(PID.TID 0000.0001)   East neighbor = processor 0001
(PID.TID 0000.0001)   West neighbor = processor 2879
(PID.TID 0000.0001) // ======================================================
(PID.TID 0000.0001) // Mapping of tiles to threads
(PID.TID 0000.0001) // ======================================================
(PID.TID 0000.0001) // -o- Thread   1, tiles (   1:   1,   1:   1)
(PID.TID 0000.0001) 
(PID.TID 0000.0001) W2_READPARMS: opening data.exch2
(PID.TID 0000.0001)  OPEN_COPY_DATA_FILE: opening file data.exch2
(PID.TID 0000.0001) // =======================================================
(PID.TID 0000.0001) // Parameter file "data.exch2"
(PID.TID 0000.0001) // =======================================================
(PID.TID 0000.0001) ># EXCH2 Package: Wrapper-2 User Choice
(PID.TID 0000.0001) >#--------------------
(PID.TID 0000.0001) >#  preDefTopol   :: pre-defined Topology selector:
(PID.TID 0000.0001) >#                :: = 0 : topology defined from processing "data.exch2";
(PID.TID 0000.0001) >#                :: = 1 : simple, single facet topology;
(PID.TID 0000.0001) >#                :: = 2 : customized topology (w2_set_myown_facets)
(PID.TID 0000.0001) >#                :: = 3 : 6-facet Cube (3 face-dims: nRed, nGreen, nBlue).
(PID.TID 0000.0001) >#  dimsFacets    :: facet pair of dimensions (n1x,n1y, n2x,n2y ...)
(PID.TID 0000.0001) >#  facetEdgeLink :: Face-Edge connectivity map:
(PID.TID 0000.0001) >#    facetEdgeLink(i,j)=XX.1 : face(j)-edge(i) (i=1,2,3,4 <==> N,S,E,W)
(PID.TID 0000.0001) >#    is connected to Northern edge of face "XX" ; similarly,
(PID.TID 0000.0001) >#    = XX.2 : to Southern.E, XX.3 = Eastern.E, XX.4 = Western.E of face "XX"
(PID.TID 0000.0001) >#  blankList     :: List of "blank" tiles
(PID.TID 0000.0001) >#  W2_mapIO      :: global map IO selector (-1 = old type ; 0 = 1 long line in X
(PID.TID 0000.0001) >#                :: 1 = compact, mostly in Y dir)
(PID.TID 0000.0001) >#  W2_printMsg   :: option for information messages printing
(PID.TID 0000.0001) >#                :: <0 : write to log file ; =0 : minimum print ;
(PID.TID 0000.0001) >#                :: =1 : no duplicated print ; =2 : all processes do print
(PID.TID 0000.0001) >#--------------------
(PID.TID 0000.0001) > &W2_EXCH2_PARM01
(PID.TID 0000.0001) >  W2_printMsg= 0,
(PID.TID 0000.0001) >  W2_mapIO   = 1,
(PID.TID 0000.0001) >#
(PID.TID 0000.0001) >#-- 5 facets llc_540 topology (drop facet 6 and its connection):
(PID.TID 0000.0001) >  preDefTopol = 0,
(PID.TID 0000.0001) >  dimsFacets = 1080, 3240, 1080, 3240, 1080, 1080, 3240, 1080, 3240, 1080, 0, 0,
(PID.TID 0000.0001) >  facetEdgeLink(1,1)= 3.4, 0. , 2.4, 5.1,
(PID.TID 0000.0001) >  facetEdgeLink(1,2)= 3.2, 0. , 4.2, 1.3,
(PID.TID 0000.0001) >  facetEdgeLink(1,3)= 5.4, 2.1, 4.4, 1.1,
(PID.TID 0000.0001) >  facetEdgeLink(1,4)= 5.2, 2.3, 0. , 3.3,
(PID.TID 0000.0001) >  facetEdgeLink(1,5)= 1.4, 4.1, 0. , 3.1,
(PID.TID 0000.0001) >  blankList =   1,
(PID.TID 0000.0001) >     2,
(PID.TID 0000.0001) >     3,
(PID.TID 0000.0001) >     4,
(PID.TID 0000.0001) >     5,
(PID.TID 0000.0001) >     6,
(PID.TID 0000.0001) >     7,
(PID.TID 0000.0001) >     8,
(PID.TID 0000.0001) >     9,
(PID.TID 0000.0001) >    10,
(PID.TID 0000.0001) >    11,
(PID.TID 0000.0001) >    12,
(PID.TID 0000.0001) >    13,
(PID.TID 0000.0001) >    14,
(PID.TID 0000.0001) >    15,
(PID.TID 0000.0001) >    16,
(PID.TID 0000.0001) >    17,
(PID.TID 0000.0001) >    18,
(PID.TID 0000.0001) >    19,
(PID.TID 0000.0001) >    20,
(PID.TID 0000.0001) >    21,
(PID.TID 0000.0001) >    22,
(PID.TID 0000.0001) >    23,
(PID.TID 0000.0001) >    24,
(PID.TID 0000.0001) >    25,
(PID.TID 0000.0001) >    26,
(PID.TID 0000.0001) >    27,
(PID.TID 0000.0001) >    28,
(PID.TID 0000.0001) >    29,
(PID.TID 0000.0001) >    30,
(PID.TID 0000.0001) >    31,
(PID.TID 0000.0001) >    32,
(PID.TID 0000.0001) >    33,
(PID.TID 0000.0001) >    34,
(PID.TID 0000.0001) >    35,
(PID.TID 0000.0001) >    36,
(PID.TID 0000.0001) >    37,
(PID.TID 0000.0001) >    38,
(PID.TID 0000.0001) >    39,
(PID.TID 0000.0001) >    40,
(PID.TID 0000.0001) >    41,
(PID.TID 0000.0001) >    42,
(PID.TID 0000.0001) >    43,
(PID.TID 0000.0001) >    44,
(PID.TID 0000.0001) >    45,
(PID.TID 0000.0001) >    46,
(PID.TID 0000.0001) >    47,
(PID.TID 0000.0001) >    48,
(PID.TID 0000.0001) >    49,
(PID.TID 0000.0001) >    50,
(PID.TID 0000.0001) >    51,
(PID.TID 0000.0001) >    52,
(PID.TID 0000.0001) >    53,
(PID.TID 0000.0001) >    54,
(PID.TID 0000.0001) >    55,
(PID.TID 0000.0001) >    56,
(PID.TID 0000.0001) >    57,
(PID.TID 0000.0001) >    58,
(PID.TID 0000.0001) >    59,
(PID.TID 0000.0001) >    60,
(PID.TID 0000.0001) >    61,
(PID.TID 0000.0001) >    62,
(PID.TID 0000.0001) >    63,
(PID.TID 0000.0001) >    64,
(PID.TID 0000.0001) >    65,
(PID.TID 0000.0001) >    66,
(PID.TID 0000.0001) >    67,
(PID.TID 0000.0001) >    68,
(PID.TID 0000.0001) >    69,
(PID.TID 0000.0001) >    70,
(PID.TID 0000.0001) >    71,
(PID.TID 0000.0001) >    72,
(PID.TID 0000.0001) >    73,
(PID.TID 0000.0001) >    74,
(PID.TID 0000.0001) >    75,
(PID.TID 0000.0001) >    76,
(PID.TID 0000.0001) >    77,
(PID.TID 0000.0001) >    78,
(PID.TID 0000.0001) >    79,
(PID.TID 0000.0001) >    80,
(PID.TID 0000.0001) >    81,
(PID.TID 0000.0001) >    82,
(PID.TID 0000.0001) >    83,
(PID.TID 0000.0001) >    84,
(PID.TID 0000.0001) >    85,
(PID.TID 0000.0001) >    86,
(PID.TID 0000.0001) >    87,
(PID.TID 0000.0001) >    88,
(PID.TID 0000.0001) >    89,
(PID.TID 0000.0001) >    90,
(PID.TID 0000.0001) >    91,
(PID.TID 0000.0001) >    92,
(PID.TID 0000.0001) >    93,
(PID.TID 0000.0001) >    94,
(PID.TID 0000.0001) >    95,
(PID.TID 0000.0001) >    96,
(PID.TID 0000.0001) >    97,
(PID.TID 0000.0001) >    98,
(PID.TID 0000.0001) >    99,
(PID.TID 0000.0001) >   100,
(PID.TID 0000.0001) >   101,
(PID.TID 0000.0001) >   102,
(PID.TID 0000.0001) >   103,
(PID.TID 0000.0001) >   104,
(PID.TID 0000.0001) >   105,
(PID.TID 0000.0001) >   106,
(PID.TID 0000.0001) >   107,
(PID.TID 0000.0001) >   108,
(PID.TID 0000.0001) >   109,
(PID.TID 0000.0001) >   110,
(PID.TID 0000.0001) >   111,
(PID.TID 0000.0001) >   112,
(PID.TID 0000.0001) >   113,
(PID.TID 0000.0001) >   114,
(PID.TID 0000.0001) >   115,
(PID.TID 0000.0001) >   116,
(PID.TID 0000.0001) >   117,
(PID.TID 0000.0001) >   118,
(PID.TID 0000.0001) >   119,
(PID.TID 0000.0001) >   120,
(PID.TID 0000.0001) >   121,
(PID.TID 0000.0001) >   122,
(PID.TID 0000.0001) >   123,
(PID.TID 0000.0001) >   124,
(PID.TID 0000.0001) >   125,
(PID.TID 0000.0001) >   126,
(PID.TID 0000.0001) >   128,
(PID.TID 0000.0001) >   129,
(PID.TID 0000.0001) >   130,
(PID.TID 0000.0001) >   131,
(PID.TID 0000.0001) >   132,
(PID.TID 0000.0001) >   133,
(PID.TID 0000.0001) >   134,
(PID.TID 0000.0001) >   135,
(PID.TID 0000.0001) >   136,
(PID.TID 0000.0001) >   137,
(PID.TID 0000.0001) >   138,
(PID.TID 0000.0001) >   139,
(PID.TID 0000.0001) >   140,
(PID.TID 0000.0001) >   141,
(PID.TID 0000.0001) >   142,
(PID.TID 0000.0001) >   143,
(PID.TID 0000.0001) >   144,
(PID.TID 0000.0001) >   147,
(PID.TID 0000.0001) >   148,
(PID.TID 0000.0001) >   149,
(PID.TID 0000.0001) >   150,
(PID.TID 0000.0001) >   151,
(PID.TID 0000.0001) >   152,
(PID.TID 0000.0001) >   153,
(PID.TID 0000.0001) >   154,
(PID.TID 0000.0001) >   155,
(PID.TID 0000.0001) >   156,
(PID.TID 0000.0001) >   157,
(PID.TID 0000.0001) >   158,
(PID.TID 0000.0001) >   159,
(PID.TID 0000.0001) >   160,
(PID.TID 0000.0001) >   161,
(PID.TID 0000.0001) >   162,
(PID.TID 0000.0001) >   166,
(PID.TID 0000.0001) >   167,
(PID.TID 0000.0001) >   168,
(PID.TID 0000.0001) >   169,
(PID.TID 0000.0001) >   170,
(PID.TID 0000.0001) >   171,
(PID.TID 0000.0001) >   172,
(PID.TID 0000.0001) >   173,
(PID.TID 0000.0001) >   174,
(PID.TID 0000.0001) >   175,
(PID.TID 0000.0001) >   176,
(PID.TID 0000.0001) >   177,
(PID.TID 0000.0001) >   178,
(PID.TID 0000.0001) >   179,
(PID.TID 0000.0001) >   180,
(PID.TID 0000.0001) >   186,
(PID.TID 0000.0001) >   187,
(PID.TID 0000.0001) >   188,
(PID.TID 0000.0001) >   189,
(PID.TID 0000.0001) >   190,
(PID.TID 0000.0001) >   191,
(PID.TID 0000.0001) >   192,
(PID.TID 0000.0001) >   193,
(PID.TID 0000.0001) >   194,
(PID.TID 0000.0001) >   195,
(PID.TID 0000.0001) >   196,
(PID.TID 0000.0001) >   197,
(PID.TID 0000.0001) >   198,
(PID.TID 0000.0001) >   215,
(PID.TID 0000.0001) >   216,
(PID.TID 0000.0001) >   234,
(PID.TID 0000.0001) >   481,
(PID.TID 0000.0001) >   498,
(PID.TID 0000.0001) >   499,
(PID.TID 0000.0001) >   500,
(PID.TID 0000.0001) >   516,
(PID.TID 0000.0001) >   517,
(PID.TID 0000.0001) >   518,
(PID.TID 0000.0001) >   534,
(PID.TID 0000.0001) >   535,
(PID.TID 0000.0001) >   536,
(PID.TID 0000.0001) >   552,
(PID.TID 0000.0001) >   553,
(PID.TID 0000.0001) >   554,
(PID.TID 0000.0001) >   555,
(PID.TID 0000.0001) >   570,
(PID.TID 0000.0001) >   571,
(PID.TID 0000.0001) >   572,
(PID.TID 0000.0001) >   573,
(PID.TID 0000.0001) >   587,
(PID.TID 0000.0001) >   588,
(PID.TID 0000.0001) >   589,
(PID.TID 0000.0001) >   590,
(PID.TID 0000.0001) >   591,
(PID.TID 0000.0001) >   605,
(PID.TID 0000.0001) >   606,
(PID.TID 0000.0001) >   607,
(PID.TID 0000.0001) >   608,
(PID.TID 0000.0001) >   609,
(PID.TID 0000.0001) >   610,
(PID.TID 0000.0001) >   622,
(PID.TID 0000.0001) >   623,
(PID.TID 0000.0001) >   624,
(PID.TID 0000.0001) >   625,
(PID.TID 0000.0001) >   626,
(PID.TID 0000.0001) >   627,
(PID.TID 0000.0001) >   628,
(PID.TID 0000.0001) >   629,
(PID.TID 0000.0001) >   636,
(PID.TID 0000.0001) >   637,
(PID.TID 0000.0001) >   638,
(PID.TID 0000.0001) >   639,
(PID.TID 0000.0001) >   640,
(PID.TID 0000.0001) >   641,
(PID.TID 0000.0001) >   642,
(PID.TID 0000.0001) >   643,
(PID.TID 0000.0001) >   644,
(PID.TID 0000.0001) >   645,
(PID.TID 0000.0001) >   654,
(PID.TID 0000.0001) >   655,
(PID.TID 0000.0001) >   656,
(PID.TID 0000.0001) >   657,
(PID.TID 0000.0001) >   658,
(PID.TID 0000.0001) >   659,
(PID.TID 0000.0001) >   660,
(PID.TID 0000.0001) >   661,
(PID.TID 0000.0001) >   662,
(PID.TID 0000.0001) >   663,
(PID.TID 0000.0001) >   672,
(PID.TID 0000.0001) >   673,
(PID.TID 0000.0001) >   674,
(PID.TID 0000.0001) >   675,
(PID.TID 0000.0001) >   676,
(PID.TID 0000.0001) >   677,
(PID.TID 0000.0001) >   678,
(PID.TID 0000.0001) >   679,
(PID.TID 0000.0001) >   680,
(PID.TID 0000.0001) >   683,
(PID.TID 0000.0001) >   684,
(PID.TID 0000.0001) >   690,
(PID.TID 0000.0001) >   691,
(PID.TID 0000.0001) >   692,
(PID.TID 0000.0001) >   693,
(PID.TID 0000.0001) >   694,
(PID.TID 0000.0001) >   695,
(PID.TID 0000.0001) >   696,
(PID.TID 0000.0001) >   697,
(PID.TID 0000.0001) >   698,
(PID.TID 0000.0001) >   701,
(PID.TID 0000.0001) >   709,
(PID.TID 0000.0001) >   710,
(PID.TID 0000.0001) >   711,
(PID.TID 0000.0001) >   712,
(PID.TID 0000.0001) >   713,
(PID.TID 0000.0001) >   718,
(PID.TID 0000.0001) >   719,
(PID.TID 0000.0001) >   728,
(PID.TID 0000.0001) >   736,
(PID.TID 0000.0001) >   737,
(PID.TID 0000.0001) >   738,
(PID.TID 0000.0001) >   754,
(PID.TID 0000.0001) >   755,
(PID.TID 0000.0001) >   763,
(PID.TID 0000.0001) >   773,
(PID.TID 0000.0001) >   787,
(PID.TID 0000.0001) >   801,
(PID.TID 0000.0001) >   802,
(PID.TID 0000.0001) >   804,
(PID.TID 0000.0001) >   805,
(PID.TID 0000.0001) >   820,
(PID.TID 0000.0001) >   821,
(PID.TID 0000.0001) >   822,
(PID.TID 0000.0001) >   823,
(PID.TID 0000.0001) >   824,
(PID.TID 0000.0001) >   825,
(PID.TID 0000.0001) >   826,
(PID.TID 0000.0001) >   840,
(PID.TID 0000.0001) >   841,
(PID.TID 0000.0001) >   842,
(PID.TID 0000.0001) >   843,
(PID.TID 0000.0001) >   844,
(PID.TID 0000.0001) >   845,
(PID.TID 0000.0001) >   846,
(PID.TID 0000.0001) >   860,
(PID.TID 0000.0001) >   861,
(PID.TID 0000.0001) >   862,
(PID.TID 0000.0001) >   863,
(PID.TID 0000.0001) >   864,
(PID.TID 0000.0001) >   879,
(PID.TID 0000.0001) >   880,
(PID.TID 0000.0001) >   881,
(PID.TID 0000.0001) >   882,
(PID.TID 0000.0001) >   892,
(PID.TID 0000.0001) >   893,
(PID.TID 0000.0001) >   897,
(PID.TID 0000.0001) >   898,
(PID.TID 0000.0001) >   899,
(PID.TID 0000.0001) >   900,
(PID.TID 0000.0001) >   911,
(PID.TID 0000.0001) >   914,
(PID.TID 0000.0001) >   917,
(PID.TID 0000.0001) >   918,
(PID.TID 0000.0001) >   935,
(PID.TID 0000.0001) >   936,
(PID.TID 0000.0001) >   949,
(PID.TID 0000.0001) >   954,
(PID.TID 0000.0001) >   955,
(PID.TID 0000.0001) >   973,
(PID.TID 0000.0001) >   974,
(PID.TID 0000.0001) >   975,
(PID.TID 0000.0001) >   976,
(PID.TID 0000.0001) >   977,
(PID.TID 0000.0001) >   978,
(PID.TID 0000.0001) >   979,
(PID.TID 0000.0001) >   980,
(PID.TID 0000.0001) >   981,
(PID.TID 0000.0001) >   982,
(PID.TID 0000.0001) >   983,
(PID.TID 0000.0001) >   984,
(PID.TID 0000.0001) >   985,
(PID.TID 0000.0001) >   986,
(PID.TID 0000.0001) >   987,
(PID.TID 0000.0001) >   988,
(PID.TID 0000.0001) >   989,
(PID.TID 0000.0001) >   990,
(PID.TID 0000.0001) >   991,
(PID.TID 0000.0001) >   992,
(PID.TID 0000.0001) >   993,
(PID.TID 0000.0001) >   994,
(PID.TID 0000.0001) >   995,
(PID.TID 0000.0001) >   996,
(PID.TID 0000.0001) >   997,
(PID.TID 0000.0001) >   998,
(PID.TID 0000.0001) >   999,
(PID.TID 0000.0001) >  1000,
(PID.TID 0000.0001) >  1001,
(PID.TID 0000.0001) >  1002,
(PID.TID 0000.0001) >  1003,
(PID.TID 0000.0001) >  1004,
(PID.TID 0000.0001) >  1005,
(PID.TID 0000.0001) >  1006,
(PID.TID 0000.0001) >  1007,
(PID.TID 0000.0001) >  1008,
(PID.TID 0000.0001) >  1009,
(PID.TID 0000.0001) >  1010,
(PID.TID 0000.0001) >  1011,
(PID.TID 0000.0001) >  1012,
(PID.TID 0000.0001) >  1013,
(PID.TID 0000.0001) >  1014,
(PID.TID 0000.0001) >  1015,
(PID.TID 0000.0001) >  1016,
(PID.TID 0000.0001) >  1017,
(PID.TID 0000.0001) >  1018,
(PID.TID 0000.0001) >  1019,
(PID.TID 0000.0001) >  1020,
(PID.TID 0000.0001) >  1021,
(PID.TID 0000.0001) >  1022,
(PID.TID 0000.0001) >  1023,
(PID.TID 0000.0001) >  1024,
(PID.TID 0000.0001) >  1025,
(PID.TID 0000.0001) >  1026,
(PID.TID 0000.0001) >  1027,
(PID.TID 0000.0001) >  1028,
(PID.TID 0000.0001) >  1029,
(PID.TID 0000.0001) >  1030,
(PID.TID 0000.0001) >  1031,
(PID.TID 0000.0001) >  1032,
(PID.TID 0000.0001) >  1033,
(PID.TID 0000.0001) >  1034,
(PID.TID 0000.0001) >  1035,
(PID.TID 0000.0001) >  1036,
(PID.TID 0000.0001) >  1037,
(PID.TID 0000.0001) >  1038,
(PID.TID 0000.0001) >  1039,
(PID.TID 0000.0001) >  1040,
(PID.TID 0000.0001) >  1041,
(PID.TID 0000.0001) >  1042,
(PID.TID 0000.0001) >  1043,
(PID.TID 0000.0001) >  1044,
(PID.TID 0000.0001) >  1045,
(PID.TID 0000.0001) >  1046,
(PID.TID 0000.0001) >  1047,
(PID.TID 0000.0001) >  1048,
(PID.TID 0000.0001) >  1049,
(PID.TID 0000.0001) >  1050,
(PID.TID 0000.0001) >  1051,
(PID.TID 0000.0001) >  1052,
(PID.TID 0000.0001) >  1053,
(PID.TID 0000.0001) >  1054,
(PID.TID 0000.0001) >  1055,
(PID.TID 0000.0001) >  1056,
(PID.TID 0000.0001) >  1057,
(PID.TID 0000.0001) >  1058,
(PID.TID 0000.0001) >  1059,
(PID.TID 0000.0001) >  1060,
(PID.TID 0000.0001) >  1061,
(PID.TID 0000.0001) >  1062,
(PID.TID 0000.0001) >  1063,
(PID.TID 0000.0001) >  1064,
(PID.TID 0000.0001) >  1065,
(PID.TID 0000.0001) >  1066,
(PID.TID 0000.0001) >  1067,
(PID.TID 0000.0001) >  1068,
(PID.TID 0000.0001) >  1069,
(PID.TID 0000.0001) >  1070,
(PID.TID 0000.0001) >  1071,
(PID.TID 0000.0001) >  1072,
(PID.TID 0000.0001) >  1073,
(PID.TID 0000.0001) >  1074,
(PID.TID 0000.0001) >  1075,
(PID.TID 0000.0001) >  1076,
(PID.TID 0000.0001) >  1077,
(PID.TID 0000.0001) >  1078,
(PID.TID 0000.0001) >  1079,
(PID.TID 0000.0001) >  1080,
(PID.TID 0000.0001) >  1081,
(PID.TID 0000.0001) >  1082,
(PID.TID 0000.0001) >  1083,
(PID.TID 0000.0001) >  1084,
(PID.TID 0000.0001) >  1085,
(PID.TID 0000.0001) >  1086,
(PID.TID 0000.0001) >  1087,
(PID.TID 0000.0001) >  1088,
(PID.TID 0000.0001) >  1089,
(PID.TID 0000.0001) >  1090,
(PID.TID 0000.0001) >  1091,
(PID.TID 0000.0001) >  1092,
(PID.TID 0000.0001) >  1093,
(PID.TID 0000.0001) >  1094,
(PID.TID 0000.0001) >  1095,
(PID.TID 0000.0001) >  1096,
(PID.TID 0000.0001) >  1097,
(PID.TID 0000.0001) >  1098,
(PID.TID 0000.0001) >  1099,
(PID.TID 0000.0001) >  1100,
(PID.TID 0000.0001) >  1101,
(PID.TID 0000.0001) >  1102,
(PID.TID 0000.0001) >  1103,
(PID.TID 0000.0001) >  1104,
(PID.TID 0000.0001) >  1105,
(PID.TID 0000.0001) >  1106,
(PID.TID 0000.0001) >  1107,
(PID.TID 0000.0001) >  1108,
(PID.TID 0000.0001) >  1109,
(PID.TID 0000.0001) >  1110,
(PID.TID 0000.0001) >  1111,
(PID.TID 0000.0001) >  1112,
(PID.TID 0000.0001) >  1113,
(PID.TID 0000.0001) >  1114,
(PID.TID 0000.0001) >  1115,
(PID.TID 0000.0001) >  1116,
(PID.TID 0000.0001) >  1117,
(PID.TID 0000.0001) >  1118,
(PID.TID 0000.0001) >  1119,
(PID.TID 0000.0001) >  1120,
(PID.TID 0000.0001) >  1121,
(PID.TID 0000.0001) >  1122,
(PID.TID 0000.0001) >  1123,
(PID.TID 0000.0001) >  1124,
(PID.TID 0000.0001) >  1125,
(PID.TID 0000.0001) >  1126,
(PID.TID 0000.0001) >  1127,
(PID.TID 0000.0001) >  1128,
(PID.TID 0000.0001) >  1129,
(PID.TID 0000.0001) >  1130,
(PID.TID 0000.0001) >  1131,
(PID.TID 0000.0001) >  1132,
(PID.TID 0000.0001) >  1133,
(PID.TID 0000.0001) >  1134,
(PID.TID 0000.0001) >  1135,
(PID.TID 0000.0001) >  1136,
(PID.TID 0000.0001) >  1137,
(PID.TID 0000.0001) >  1138,
(PID.TID 0000.0001) >  1139,
(PID.TID 0000.0001) >  1140,
(PID.TID 0000.0001) >  1141,
(PID.TID 0000.0001) >  1142,
(PID.TID 0000.0001) >  1143,
(PID.TID 0000.0001) >  1144,
(PID.TID 0000.0001) >  1145,
(PID.TID 0000.0001) >  1146,
(PID.TID 0000.0001) >  1147,
(PID.TID 0000.0001) >  1148,
(PID.TID 0000.0001) >  1149,
(PID.TID 0000.0001) >  1150,
(PID.TID 0000.0001) >  1151,
(PID.TID 0000.0001) >  1152,
(PID.TID 0000.0001) >  1153,
(PID.TID 0000.0001) >  1154,
(PID.TID 0000.0001) >  1155,
(PID.TID 0000.0001) >  1157,
(PID.TID 0000.0001) >  1158,
(PID.TID 0000.0001) >  1159,
(PID.TID 0000.0001) >  1160,
(PID.TID 0000.0001) >  1161,
(PID.TID 0000.0001) >  1162,
(PID.TID 0000.0001) >  1163,
(PID.TID 0000.0001) >  1164,
(PID.TID 0000.0001) >  1165,
(PID.TID 0000.0001) >  1166,
(PID.TID 0000.0001) >  1167,
(PID.TID 0000.0001) >  1168,
(PID.TID 0000.0001) >  1169,
(PID.TID 0000.0001) >  1170,
(PID.TID 0000.0001) >  1171,
(PID.TID 0000.0001) >  1172,
(PID.TID 0000.0001) >  1173,
(PID.TID 0000.0001) >  1176,
(PID.TID 0000.0001) >  1177,
(PID.TID 0000.0001) >  1178,
(PID.TID 0000.0001) >  1179,
(PID.TID 0000.0001) >  1180,
(PID.TID 0000.0001) >  1181,
(PID.TID 0000.0001) >  1182,
(PID.TID 0000.0001) >  1183,
(PID.TID 0000.0001) >  1184,
(PID.TID 0000.0001) >  1185,
(PID.TID 0000.0001) >  1186,
(PID.TID 0000.0001) >  1187,
(PID.TID 0000.0001) >  1188,
(PID.TID 0000.0001) >  1189,
(PID.TID 0000.0001) >  1190,
(PID.TID 0000.0001) >  1191,
(PID.TID 0000.0001) >  1195,
(PID.TID 0000.0001) >  1196,
(PID.TID 0000.0001) >  1197,
(PID.TID 0000.0001) >  1198,
(PID.TID 0000.0001) >  1199,
(PID.TID 0000.0001) >  1200,
(PID.TID 0000.0001) >  1201,
(PID.TID 0000.0001) >  1202,
(PID.TID 0000.0001) >  1203,
(PID.TID 0000.0001) >  1204,
(PID.TID 0000.0001) >  1205,
(PID.TID 0000.0001) >  1206,
(PID.TID 0000.0001) >  1454,
(PID.TID 0000.0001) >  1455,
(PID.TID 0000.0001) >  1456,
(PID.TID 0000.0001) >  1457,
(PID.TID 0000.0001) >  1458,
(PID.TID 0000.0001) >  1472,
(PID.TID 0000.0001) >  1473,
(PID.TID 0000.0001) >  1474,
(PID.TID 0000.0001) >  1475,
(PID.TID 0000.0001) >  1476,
(PID.TID 0000.0001) >  1492,
(PID.TID 0000.0001) >  1493,
(PID.TID 0000.0001) >  1494,
(PID.TID 0000.0001) >  1644,
(PID.TID 0000.0001) >  1648,
(PID.TID 0000.0001) >  1661,
(PID.TID 0000.0001) >  1662,
(PID.TID 0000.0001) >  1663,
(PID.TID 0000.0001) >  1665,
(PID.TID 0000.0001) >  1666,
(PID.TID 0000.0001) >  1667,
(PID.TID 0000.0001) >  1668,
(PID.TID 0000.0001) >  1677,
(PID.TID 0000.0001) >  1678,
(PID.TID 0000.0001) >  1679,
(PID.TID 0000.0001) >  1680,
(PID.TID 0000.0001) >  1681,
(PID.TID 0000.0001) >  1682,
(PID.TID 0000.0001) >  1683,
(PID.TID 0000.0001) >  1684,
(PID.TID 0000.0001) >  1685,
(PID.TID 0000.0001) >  1686,
(PID.TID 0000.0001) >  1687,
(PID.TID 0000.0001) >  1693,
(PID.TID 0000.0001) >  1694,
(PID.TID 0000.0001) >  1695,
(PID.TID 0000.0001) >  1696,
(PID.TID 0000.0001) >  1697,
(PID.TID 0000.0001) >  1698,
(PID.TID 0000.0001) >  1699,
(PID.TID 0000.0001) >  1700,
(PID.TID 0000.0001) >  1701,
(PID.TID 0000.0001) >  1702,
(PID.TID 0000.0001) >  1703,
(PID.TID 0000.0001) >  1704,
(PID.TID 0000.0001) >  1705,
(PID.TID 0000.0001) >  1712,
(PID.TID 0000.0001) >  1713,
(PID.TID 0000.0001) >  1714,
(PID.TID 0000.0001) >  1715,
(PID.TID 0000.0001) >  1716,
(PID.TID 0000.0001) >  1717,
(PID.TID 0000.0001) >  1718,
(PID.TID 0000.0001) >  1719,
(PID.TID 0000.0001) >  1720,
(PID.TID 0000.0001) >  1721,
(PID.TID 0000.0001) >  1722,
(PID.TID 0000.0001) >  1723,
(PID.TID 0000.0001) >  1731,
(PID.TID 0000.0001) >  1732,
(PID.TID 0000.0001) >  1733,
(PID.TID 0000.0001) >  1734,
(PID.TID 0000.0001) >  1735,
(PID.TID 0000.0001) >  1736,
(PID.TID 0000.0001) >  1737,
(PID.TID 0000.0001) >  1738,
(PID.TID 0000.0001) >  1739,
(PID.TID 0000.0001) >  1740,
(PID.TID 0000.0001) >  1741,
(PID.TID 0000.0001) >  1749,
(PID.TID 0000.0001) >  1750,
(PID.TID 0000.0001) >  1751,
(PID.TID 0000.0001) >  1752,
(PID.TID 0000.0001) >  1753,
(PID.TID 0000.0001) >  1755,
(PID.TID 0000.0001) >  1756,
(PID.TID 0000.0001) >  1757,
(PID.TID 0000.0001) >  1758,
(PID.TID 0000.0001) >  1759,
(PID.TID 0000.0001) >  1760,
(PID.TID 0000.0001) >  1761,
(PID.TID 0000.0001) >  1766,
(PID.TID 0000.0001) >  1767,
(PID.TID 0000.0001) >  1768,
(PID.TID 0000.0001) >  1769,
(PID.TID 0000.0001) >  1770,
(PID.TID 0000.0001) >  1771,
(PID.TID 0000.0001) >  1772,
(PID.TID 0000.0001) >  1773,
(PID.TID 0000.0001) >  1774,
(PID.TID 0000.0001) >  1775,
(PID.TID 0000.0001) >  1776,
(PID.TID 0000.0001) >  1777,
(PID.TID 0000.0001) >  1778,
(PID.TID 0000.0001) >  1779,
(PID.TID 0000.0001) >  1780,
(PID.TID 0000.0001) >  1784,
(PID.TID 0000.0001) >  1785,
(PID.TID 0000.0001) >  1786,
(PID.TID 0000.0001) >  1787,
(PID.TID 0000.0001) >  1788,
(PID.TID 0000.0001) >  1789,
(PID.TID 0000.0001) >  1790,
(PID.TID 0000.0001) >  1791,
(PID.TID 0000.0001) >  1792,
(PID.TID 0000.0001) >  1793,
(PID.TID 0000.0001) >  1794,
(PID.TID 0000.0001) >  1795,
(PID.TID 0000.0001) >  1796,
(PID.TID 0000.0001) >  1797,
(PID.TID 0000.0001) >  1798,
(PID.TID 0000.0001) >  1799,
(PID.TID 0000.0001) >  1801,
(PID.TID 0000.0001) >  1802,
(PID.TID 0000.0001) >  1803,
(PID.TID 0000.0001) >  1804,
(PID.TID 0000.0001) >  1805,
(PID.TID 0000.0001) >  1806,
(PID.TID 0000.0001) >  1807,
(PID.TID 0000.0001) >  1808,
(PID.TID 0000.0001) >  1809,
(PID.TID 0000.0001) >  1810,
(PID.TID 0000.0001) >  1811,
(PID.TID 0000.0001) >  1812,
(PID.TID 0000.0001) >  1813,
(PID.TID 0000.0001) >  1814,
(PID.TID 0000.0001) >  1815,
(PID.TID 0000.0001) >  1816,
(PID.TID 0000.0001) >  1819,
(PID.TID 0000.0001) >  1820,
(PID.TID 0000.0001) >  1821,
(PID.TID 0000.0001) >  1822,
(PID.TID 0000.0001) >  1823,
(PID.TID 0000.0001) >  1824,
(PID.TID 0000.0001) >  1825,
(PID.TID 0000.0001) >  1826,
(PID.TID 0000.0001) >  1827,
(PID.TID 0000.0001) >  1828,
(PID.TID 0000.0001) >  1829,
(PID.TID 0000.0001) >  1830,
(PID.TID 0000.0001) >  1831,
(PID.TID 0000.0001) >  1832,
(PID.TID 0000.0001) >  1833,
(PID.TID 0000.0001) >  1834,
(PID.TID 0000.0001) >  1837,
(PID.TID 0000.0001) >  1838,
(PID.TID 0000.0001) >  1839,
(PID.TID 0000.0001) >  1840,
(PID.TID 0000.0001) >  1841,
(PID.TID 0000.0001) >  1842,
(PID.TID 0000.0001) >  1843,
(PID.TID 0000.0001) >  1844,
(PID.TID 0000.0001) >  1845,
(PID.TID 0000.0001) >  1846,
(PID.TID 0000.0001) >  1847,
(PID.TID 0000.0001) >  1848,
(PID.TID 0000.0001) >  1849,
(PID.TID 0000.0001) >  1850,
(PID.TID 0000.0001) >  1851,
(PID.TID 0000.0001) >  1852,
(PID.TID 0000.0001) >  1853,
(PID.TID 0000.0001) >  1855,
(PID.TID 0000.0001) >  1856,
(PID.TID 0000.0001) >  1857,
(PID.TID 0000.0001) >  1858,
(PID.TID 0000.0001) >  1859,
(PID.TID 0000.0001) >  1860,
(PID.TID 0000.0001) >  1861,
(PID.TID 0000.0001) >  1862,
(PID.TID 0000.0001) >  1863,
(PID.TID 0000.0001) >  1864,
(PID.TID 0000.0001) >  1865,
(PID.TID 0000.0001) >  1866,
(PID.TID 0000.0001) >  1867,
(PID.TID 0000.0001) >  1868,
(PID.TID 0000.0001) >  1869,
(PID.TID 0000.0001) >  1870,
(PID.TID 0000.0001) >  1871,
(PID.TID 0000.0001) >  1872,
(PID.TID 0000.0001) >  1873,
(PID.TID 0000.0001) >  1874,
(PID.TID 0000.0001) >  1875,
(PID.TID 0000.0001) >  1876,
(PID.TID 0000.0001) >  1877,
(PID.TID 0000.0001) >  1878,
(PID.TID 0000.0001) >  1879,
(PID.TID 0000.0001) >  1880,
(PID.TID 0000.0001) >  1881,
(PID.TID 0000.0001) >  1882,
(PID.TID 0000.0001) >  1883,
(PID.TID 0000.0001) >  1884,
(PID.TID 0000.0001) >  1885,
(PID.TID 0000.0001) >  1886,
(PID.TID 0000.0001) >  1887,
(PID.TID 0000.0001) >  1888,
(PID.TID 0000.0001) >  1889,
(PID.TID 0000.0001) >  1890,
(PID.TID 0000.0001) >  1891,
(PID.TID 0000.0001) >  1892,
(PID.TID 0000.0001) >  1893,
(PID.TID 0000.0001) >  1894,
(PID.TID 0000.0001) >  1895,
(PID.TID 0000.0001) >  1896,
(PID.TID 0000.0001) >  1897,
(PID.TID 0000.0001) >  1898,
(PID.TID 0000.0001) >  1899,
(PID.TID 0000.0001) >  1900,
(PID.TID 0000.0001) >  1901,
(PID.TID 0000.0001) >  1902,
(PID.TID 0000.0001) >  1903,
(PID.TID 0000.0001) >  1904,
(PID.TID 0000.0001) >  1905,
(PID.TID 0000.0001) >  1906,
(PID.TID 0000.0001) >  1907,
(PID.TID 0000.0001) >  1908,
(PID.TID 0000.0001) >  1909,
(PID.TID 0000.0001) >  1910,
(PID.TID 0000.0001) >  1911,
(PID.TID 0000.0001) >  1912,
(PID.TID 0000.0001) >  1915,
(PID.TID 0000.0001) >  1916,
(PID.TID 0000.0001) >  1917,
(PID.TID 0000.0001) >  1918,
(PID.TID 0000.0001) >  1919,
(PID.TID 0000.0001) >  1920,
(PID.TID 0000.0001) >  1921,
(PID.TID 0000.0001) >  1922,
(PID.TID 0000.0001) >  1923,
(PID.TID 0000.0001) >  1924,
(PID.TID 0000.0001) >  1925,
(PID.TID 0000.0001) >  1926,
(PID.TID 0000.0001) >  1927,
(PID.TID 0000.0001) >  1928,
(PID.TID 0000.0001) >  1933,
(PID.TID 0000.0001) >  1934,
(PID.TID 0000.0001) >  1935,
(PID.TID 0000.0001) >  1936,
(PID.TID 0000.0001) >  1937,
(PID.TID 0000.0001) >  1938,
(PID.TID 0000.0001) >  1939,
(PID.TID 0000.0001) >  1940,
(PID.TID 0000.0001) >  1941,
(PID.TID 0000.0001) >  1942,
(PID.TID 0000.0001) >  1943,
(PID.TID 0000.0001) >  1944,
(PID.TID 0000.0001) >  1953,
(PID.TID 0000.0001) >  1954,
(PID.TID 0000.0001) >  1958,
(PID.TID 0000.0001) >  1960,
(PID.TID 0000.0001) >  1961,
(PID.TID 0000.0001) >  1962,
(PID.TID 0000.0001) >  1979,
(PID.TID 0000.0001) >  1980,
(PID.TID 0000.0001) >  1998,
(PID.TID 0000.0001) >  2165,
(PID.TID 0000.0001) >  2166,
(PID.TID 0000.0001) >  2181,
(PID.TID 0000.0001) >  2182,
(PID.TID 0000.0001) >  2183,
(PID.TID 0000.0001) >  2184,
(PID.TID 0000.0001) >  2185,
(PID.TID 0000.0001) >  2199,
(PID.TID 0000.0001) >  2200,
(PID.TID 0000.0001) >  2201,
(PID.TID 0000.0001) >  2202,
(PID.TID 0000.0001) >  2203,
(PID.TID 0000.0001) >  2216,
(PID.TID 0000.0001) >  2217,
(PID.TID 0000.0001) >  2218,
(PID.TID 0000.0001) >  2219,
(PID.TID 0000.0001) >  2233,
(PID.TID 0000.0001) >  2234,
(PID.TID 0000.0001) >  2235,
(PID.TID 0000.0001) >  2236,
(PID.TID 0000.0001) >  2251,
(PID.TID 0000.0001) >  2252,
(PID.TID 0000.0001) >  2253,
(PID.TID 0000.0001) >  2268,
(PID.TID 0000.0001) >  2269,
(PID.TID 0000.0001) >  2270,
(PID.TID 0000.0001) >  2271,
(PID.TID 0000.0001) >  2272,
(PID.TID 0000.0001) >  2295,
(PID.TID 0000.0001) >  2296,
(PID.TID 0000.0001) >  2297,
(PID.TID 0000.0001) >  2311,
(PID.TID 0000.0001) >  2312,
(PID.TID 0000.0001) >  2313,
(PID.TID 0000.0001) >  2314,
(PID.TID 0000.0001) >  2315,
(PID.TID 0000.0001) >  2316,
(PID.TID 0000.0001) >  2317,
(PID.TID 0000.0001) >  2318,
(PID.TID 0000.0001) >  2319,
(PID.TID 0000.0001) >  2320,
(PID.TID 0000.0001) >  2321,
(PID.TID 0000.0001) >  2322,
(PID.TID 0000.0001) >  2323,
(PID.TID 0000.0001) >  2324,
(PID.TID 0000.0001) >  2325,
(PID.TID 0000.0001) >  2326,
(PID.TID 0000.0001) >  2350,
(PID.TID 0000.0001) >  2365,
(PID.TID 0000.0001) >  2366,
(PID.TID 0000.0001) >  2367,
(PID.TID 0000.0001) >  2368,
(PID.TID 0000.0001) >  2369,
(PID.TID 0000.0001) >  2370,
(PID.TID 0000.0001) >  2371,
(PID.TID 0000.0001) >  2372,
(PID.TID 0000.0001) >  2373,
(PID.TID 0000.0001) >  2374,
(PID.TID 0000.0001) >  2375,
(PID.TID 0000.0001) >  2376,
(PID.TID 0000.0001) >  2377,
(PID.TID 0000.0001) >  2378,
(PID.TID 0000.0001) >  2379,
(PID.TID 0000.0001) >  2380,
(PID.TID 0000.0001) >  2419,
(PID.TID 0000.0001) >  2420,
(PID.TID 0000.0001) >  2421,
(PID.TID 0000.0001) >  2422,
(PID.TID 0000.0001) >  2423,
(PID.TID 0000.0001) >  2424,
(PID.TID 0000.0001) >  2425,
(PID.TID 0000.0001) >  2426,
(PID.TID 0000.0001) >  2427,
(PID.TID 0000.0001) >  2428,
(PID.TID 0000.0001) >  2429,
(PID.TID 0000.0001) >  2430,
(PID.TID 0000.0001) >  2431,
(PID.TID 0000.0001) >  2432,
(PID.TID 0000.0001) >  2433,
(PID.TID 0000.0001) >  2434,
(PID.TID 0000.0001) >  2474,
(PID.TID 0000.0001) >  2475,
(PID.TID 0000.0001) >  2476,
(PID.TID 0000.0001) >  2478,
(PID.TID 0000.0001) >  2479,
(PID.TID 0000.0001) >  2480,
(PID.TID 0000.0001) >  2481,
(PID.TID 0000.0001) >  2482,
(PID.TID 0000.0001) >  2483,
(PID.TID 0000.0001) >  2484,
(PID.TID 0000.0001) >  2486,
(PID.TID 0000.0001) >  2487,
(PID.TID 0000.0001) >  2531,
(PID.TID 0000.0001) >  2532,
(PID.TID 0000.0001) >  2533,
(PID.TID 0000.0001) >  2534,
(PID.TID 0000.0001) >  2535,
(PID.TID 0000.0001) >  2536,
(PID.TID 0000.0001) >  2537,
(PID.TID 0000.0001) >  2538,
(PID.TID 0000.0001) >  2541,
(PID.TID 0000.0001) >  2542,
(PID.TID 0000.0001) >  2585,
(PID.TID 0000.0001) >  2586,
(PID.TID 0000.0001) >  2587,
(PID.TID 0000.0001) >  2588,
(PID.TID 0000.0001) >  2589,
(PID.TID 0000.0001) >  2590,
(PID.TID 0000.0001) >  2591,
(PID.TID 0000.0001) >  2592,
(PID.TID 0000.0001) >  2595,
(PID.TID 0000.0001) >  2639,
(PID.TID 0000.0001) >  2640,
(PID.TID 0000.0001) >  2641,
(PID.TID 0000.0001) >  2642,
(PID.TID 0000.0001) >  2643,
(PID.TID 0000.0001) >  2644,
(PID.TID 0000.0001) >  2645,
(PID.TID 0000.0001) >  2646,
(PID.TID 0000.0001) >  2694,
(PID.TID 0000.0001) >  2695,
(PID.TID 0000.0001) >  2696,
(PID.TID 0000.0001) >  2697,
(PID.TID 0000.0001) >  2698,
(PID.TID 0000.0001) >  2699,
(PID.TID 0000.0001) >  2700,
(PID.TID 0000.0001) >  2748,
(PID.TID 0000.0001) >  2749,
(PID.TID 0000.0001) >  2750,
(PID.TID 0000.0001) >  2751,
(PID.TID 0000.0001) >  2752,
(PID.TID 0000.0001) >  2753,
(PID.TID 0000.0001) >  2754,
(PID.TID 0000.0001) >  2802,
(PID.TID 0000.0001) >  2803,
(PID.TID 0000.0001) >  2804,
(PID.TID 0000.0001) >  2805,
(PID.TID 0000.0001) >  2806,
(PID.TID 0000.0001) >  2807,
(PID.TID 0000.0001) >  2808,
(PID.TID 0000.0001) >  2856,
(PID.TID 0000.0001) >  2857,
(PID.TID 0000.0001) >  2858,
(PID.TID 0000.0001) >  2859,
(PID.TID 0000.0001) >  2860,
(PID.TID 0000.0001) >  2861,
(PID.TID 0000.0001) >  2862,
(PID.TID 0000.0001) >  2864,
(PID.TID 0000.0001) >  2867,
(PID.TID 0000.0001) >  2910,
(PID.TID 0000.0001) >  2911,
(PID.TID 0000.0001) >  2912,
(PID.TID 0000.0001) >  2913,
(PID.TID 0000.0001) >  2914,
(PID.TID 0000.0001) >  2915,
(PID.TID 0000.0001) >  2916,
(PID.TID 0000.0001) >  2918,
(PID.TID 0000.0001) >  2919,
(PID.TID 0000.0001) >  2920,
(PID.TID 0000.0001) >  2964,
(PID.TID 0000.0001) >  2965,
(PID.TID 0000.0001) >  2966,
(PID.TID 0000.0001) >  2967,
(PID.TID 0000.0001) >  2968,
(PID.TID 0000.0001) >  2969,
(PID.TID 0000.0001) >  2970,
(PID.TID 0000.0001) >  2972,
(PID.TID 0000.0001) >  2973,
(PID.TID 0000.0001) >  2974,
(PID.TID 0000.0001) >  3017,
(PID.TID 0000.0001) >  3018,
(PID.TID 0000.0001) >  3019,
(PID.TID 0000.0001) >  3020,
(PID.TID 0000.0001) >  3021,
(PID.TID 0000.0001) >  3022,
(PID.TID 0000.0001) >  3023,
(PID.TID 0000.0001) >  3024,
(PID.TID 0000.0001) >  3026,
(PID.TID 0000.0001) >  3027,
(PID.TID 0000.0001) >  3028,
(PID.TID 0000.0001) >  3071,
(PID.TID 0000.0001) >  3072,
(PID.TID 0000.0001) >  3073,
(PID.TID 0000.0001) >  3074,
(PID.TID 0000.0001) >  3075,
(PID.TID 0000.0001) >  3076,
(PID.TID 0000.0001) >  3077,
(PID.TID 0000.0001) >  3078,
(PID.TID 0000.0001) >  3080,
(PID.TID 0000.0001) >  3081,
(PID.TID 0000.0001) >  3082,
(PID.TID 0000.0001) >  3125,
(PID.TID 0000.0001) >  3126,
(PID.TID 0000.0001) >  3127,
(PID.TID 0000.0001) >  3128,
(PID.TID 0000.0001) >  3129,
(PID.TID 0000.0001) >  3130,
(PID.TID 0000.0001) >  3131,
(PID.TID 0000.0001) >  3132,
(PID.TID 0000.0001) >  3133,
(PID.TID 0000.0001) >  3134,
(PID.TID 0000.0001) >  3135,
(PID.TID 0000.0001) >  3136,
(PID.TID 0000.0001) >  3137,
(PID.TID 0000.0001) >  3179,
(PID.TID 0000.0001) >  3180,
(PID.TID 0000.0001) >  3181,
(PID.TID 0000.0001) >  3182,
(PID.TID 0000.0001) >  3183,
(PID.TID 0000.0001) >  3184,
(PID.TID 0000.0001) >  3185,
(PID.TID 0000.0001) >  3186,
(PID.TID 0000.0001) >  3187,
(PID.TID 0000.0001) >  3188,
(PID.TID 0000.0001) >  3189,
(PID.TID 0000.0001) >  3190,
(PID.TID 0000.0001) >  3191,
(PID.TID 0000.0001) >  3192,
(PID.TID 0000.0001) >  3233,
(PID.TID 0000.0001) >  3234,
(PID.TID 0000.0001) >  3235,
(PID.TID 0000.0001) >  3236,
(PID.TID 0000.0001) >  3237,
(PID.TID 0000.0001) >  3238,
(PID.TID 0000.0001) >  3239,
(PID.TID 0000.0001) >  3240,
(PID.TID 0000.0001) >  3241,
(PID.TID 0000.0001) >  3242,
(PID.TID 0000.0001) >  3243,
(PID.TID 0000.0001) >  3244,
(PID.TID 0000.0001) >  3245,
(PID.TID 0000.0001) >  3246,
(PID.TID 0000.0001) >  3247,
(PID.TID 0000.0001) >  3286,
(PID.TID 0000.0001) >  3287,
(PID.TID 0000.0001) >  3288,
(PID.TID 0000.0001) >  3289,
(PID.TID 0000.0001) >  3290,
(PID.TID 0000.0001) >  3291,
(PID.TID 0000.0001) >  3292,
(PID.TID 0000.0001) >  3293,
(PID.TID 0000.0001) >  3294,
(PID.TID 0000.0001) >  3295,
(PID.TID 0000.0001) >  3296,
(PID.TID 0000.0001) >  3297,
(PID.TID 0000.0001) >  3298,
(PID.TID 0000.0001) >  3299,
(PID.TID 0000.0001) >  3300,
(PID.TID 0000.0001) >  3301,
(PID.TID 0000.0001) >  3302,
(PID.TID 0000.0001) >  3305,
(PID.TID 0000.0001) >  3306,
(PID.TID 0000.0001) >  3340,
(PID.TID 0000.0001) >  3341,
(PID.TID 0000.0001) >  3342,
(PID.TID 0000.0001) >  3343,
(PID.TID 0000.0001) >  3344,
(PID.TID 0000.0001) >  3345,
(PID.TID 0000.0001) >  3346,
(PID.TID 0000.0001) >  3347,
(PID.TID 0000.0001) >  3348,
(PID.TID 0000.0001) >  3350,
(PID.TID 0000.0001) >  3351,
(PID.TID 0000.0001) >  3352,
(PID.TID 0000.0001) >  3353,
(PID.TID 0000.0001) >  3354,
(PID.TID 0000.0001) >  3355,
(PID.TID 0000.0001) >  3356,
(PID.TID 0000.0001) >  3357,
(PID.TID 0000.0001) >  3358,
(PID.TID 0000.0001) >  3359,
(PID.TID 0000.0001) >  3360,
(PID.TID 0000.0001) >  3395,
(PID.TID 0000.0001) >  3396,
(PID.TID 0000.0001) >  3397,
(PID.TID 0000.0001) >  3398,
(PID.TID 0000.0001) >  3399,
(PID.TID 0000.0001) >  3400,
(PID.TID 0000.0001) >  3401,
(PID.TID 0000.0001) >  3402,
(PID.TID 0000.0001) >  3405,
(PID.TID 0000.0001) >  3406,
(PID.TID 0000.0001) >  3407,
(PID.TID 0000.0001) >  3408,
(PID.TID 0000.0001) >  3409,
(PID.TID 0000.0001) >  3410,
(PID.TID 0000.0001) >  3411,
(PID.TID 0000.0001) >  3412,
(PID.TID 0000.0001) >  3413,
(PID.TID 0000.0001) >  3414,
(PID.TID 0000.0001) >  3415,
(PID.TID 0000.0001) >  3416,
(PID.TID 0000.0001) >  3449,
(PID.TID 0000.0001) >  3450,
(PID.TID 0000.0001) >  3451,
(PID.TID 0000.0001) >  3452,
(PID.TID 0000.0001) >  3453,
(PID.TID 0000.0001) >  3454,
(PID.TID 0000.0001) >  3455,
(PID.TID 0000.0001) >  3456,
(PID.TID 0000.0001) >  3459,
(PID.TID 0000.0001) >  3460,
(PID.TID 0000.0001) >  3461,
(PID.TID 0000.0001) >  3462,
(PID.TID 0000.0001) >  3463,
(PID.TID 0000.0001) >  3464,
(PID.TID 0000.0001) >  3465,
(PID.TID 0000.0001) >  3466,
(PID.TID 0000.0001) >  3467,
(PID.TID 0000.0001) >  3468,
(PID.TID 0000.0001) >  3469,
(PID.TID 0000.0001) >  3470,
(PID.TID 0000.0001) >  3471,
(PID.TID 0000.0001) >  3503,
(PID.TID 0000.0001) >  3504,
(PID.TID 0000.0001) >  3505,
(PID.TID 0000.0001) >  3506,
(PID.TID 0000.0001) >  3507,
(PID.TID 0000.0001) >  3508,
(PID.TID 0000.0001) >  3509,
(PID.TID 0000.0001) >  3510,
(PID.TID 0000.0001) >  3513,
(PID.TID 0000.0001) >  3514,
(PID.TID 0000.0001) >  3515,
(PID.TID 0000.0001) >  3516,
(PID.TID 0000.0001) >  3517,
(PID.TID 0000.0001) >  3518,
(PID.TID 0000.0001) >  3519,
(PID.TID 0000.0001) >  3520,
(PID.TID 0000.0001) >  3521,
(PID.TID 0000.0001) >  3522,
(PID.TID 0000.0001) >  3523,
(PID.TID 0000.0001) >  3524,
(PID.TID 0000.0001) >  3525,
(PID.TID 0000.0001) >  3526,
(PID.TID 0000.0001) >  3527,
(PID.TID 0000.0001) >  3557,
(PID.TID 0000.0001) >  3558,
(PID.TID 0000.0001) >  3559,
(PID.TID 0000.0001) >  3560,
(PID.TID 0000.0001) >  3561,
(PID.TID 0000.0001) >  3562,
(PID.TID 0000.0001) >  3563,
(PID.TID 0000.0001) >  3564,
(PID.TID 0000.0001) >  3567,
(PID.TID 0000.0001) >  3568,
(PID.TID 0000.0001) >  3571,
(PID.TID 0000.0001) >  3572,
(PID.TID 0000.0001) >  3573,
(PID.TID 0000.0001) >  3574,
(PID.TID 0000.0001) >  3575,
(PID.TID 0000.0001) >  3576,
(PID.TID 0000.0001) >  3577,
(PID.TID 0000.0001) >  3578,
(PID.TID 0000.0001) >  3609,
(PID.TID 0000.0001) >  3610,
(PID.TID 0000.0001) >  3611,
(PID.TID 0000.0001) >  3612,
(PID.TID 0000.0001) >  3613,
(PID.TID 0000.0001) >  3614,
(PID.TID 0000.0001) >  3615,
(PID.TID 0000.0001) >  3616,
(PID.TID 0000.0001) >  3617,
(PID.TID 0000.0001) >  3618,
(PID.TID 0000.0001) >  3626,
(PID.TID 0000.0001) >  3627,
(PID.TID 0000.0001) >  3629,
(PID.TID 0000.0001) >  3630,
(PID.TID 0000.0001) >  3631,
(PID.TID 0000.0001) >  3632,
(PID.TID 0000.0001) >  3663,
(PID.TID 0000.0001) >  3664,
(PID.TID 0000.0001) >  3665,
(PID.TID 0000.0001) >  3666,
(PID.TID 0000.0001) >  3667,
(PID.TID 0000.0001) >  3668,
(PID.TID 0000.0001) >  3669,
(PID.TID 0000.0001) >  3670,
(PID.TID 0000.0001) >  3671,
(PID.TID 0000.0001) >  3672,
(PID.TID 0000.0001) >  3680,
(PID.TID 0000.0001) >  3684,
(PID.TID 0000.0001) >  3685,
(PID.TID 0000.0001) >  3686,
(PID.TID 0000.0001) >  3718,
(PID.TID 0000.0001) >  3719,
(PID.TID 0000.0001) >  3720,
(PID.TID 0000.0001) >  3721,
(PID.TID 0000.0001) >  3722,
(PID.TID 0000.0001) >  3723,
(PID.TID 0000.0001) >  3724,
(PID.TID 0000.0001) >  3725,
(PID.TID 0000.0001) >  3726,
(PID.TID 0000.0001) >  3738,
(PID.TID 0000.0001) >  3739,
(PID.TID 0000.0001) >  3772,
(PID.TID 0000.0001) >  3773,
(PID.TID 0000.0001) >  3774,
(PID.TID 0000.0001) >  3775,
(PID.TID 0000.0001) >  3776,
(PID.TID 0000.0001) >  3777,
(PID.TID 0000.0001) >  3778,
(PID.TID 0000.0001) >  3779,
(PID.TID 0000.0001) >  3780,
(PID.TID 0000.0001) >  3788,
(PID.TID 0000.0001) >  3789,
(PID.TID 0000.0001) >  3790,
(PID.TID 0000.0001) >  3802,
(PID.TID 0000.0001) >  3803,
(PID.TID 0000.0001) >  3825,
(PID.TID 0000.0001) >  3826,
(PID.TID 0000.0001) >  3827,
(PID.TID 0000.0001) >  3828,
(PID.TID 0000.0001) >  3829,
(PID.TID 0000.0001) >  3830,
(PID.TID 0000.0001) >  3831,
(PID.TID 0000.0001) >  3832,
(PID.TID 0000.0001) >  3833,
(PID.TID 0000.0001) >  3834,
(PID.TID 0000.0001) >  3841,
(PID.TID 0000.0001) >  3842,
(PID.TID 0000.0001) >  3854,
(PID.TID 0000.0001) >  3855,
(PID.TID 0000.0001) >  3856,
(PID.TID 0000.0001) >  3857,
(PID.TID 0000.0001) >  3858,
(PID.TID 0000.0001) >  3867,
(PID.TID 0000.0001) >  3879,
(PID.TID 0000.0001) >  3880,
(PID.TID 0000.0001) >  3881,
(PID.TID 0000.0001) >  3882,
(PID.TID 0000.0001) >  3883,
(PID.TID 0000.0001) >  3884,
(PID.TID 0000.0001) >  3885,
(PID.TID 0000.0001) >  3886,
(PID.TID 0000.0001) >  3887,
(PID.TID 0000.0001) >  3888,
(PID.TID 0000.0001) >  3895,
(PID.TID 0000.0001) >  3896,
(PID.TID 0000.0001) >  3908,
(PID.TID 0000.0001) >  3909,
(PID.TID 0000.0001) >  3910,
(PID.TID 0000.0001) >  3911,
(PID.TID 0000.0001) >  3912,
(PID.TID 0000.0001) >  3913,
(PID.TID 0000.0001) >  3914,
(PID.TID 0000.0001) >  3915,
(PID.TID 0000.0001) >  3916,
(PID.TID 0000.0001) >  3917,
(PID.TID 0000.0001) >  3931,
(PID.TID 0000.0001) >  3932,
(PID.TID 0000.0001) >  3933,
(PID.TID 0000.0001) >  3935,
(PID.TID 0000.0001) >  3937,
(PID.TID 0000.0001) >  3938,
(PID.TID 0000.0001) >  3939,
(PID.TID 0000.0001) >  3940,
(PID.TID 0000.0001) >  3941,
(PID.TID 0000.0001) >  3942,
(PID.TID 0000.0001) >  3963,
(PID.TID 0000.0001) >  3964,
(PID.TID 0000.0001) >  3965,
(PID.TID 0000.0001) >  3966,
(PID.TID 0000.0001) >  3967,
(PID.TID 0000.0001) >  3968,
(PID.TID 0000.0001) >  3969,
(PID.TID 0000.0001) >  3970,
(PID.TID 0000.0001) >  3971,
(PID.TID 0000.0001) >  3972,
(PID.TID 0000.0001) >  3988,
(PID.TID 0000.0001) >  3989,
(PID.TID 0000.0001) >  3990,
(PID.TID 0000.0001) >  3991,
(PID.TID 0000.0001) >  3992,
(PID.TID 0000.0001) >  3993,
(PID.TID 0000.0001) >  3994,
(PID.TID 0000.0001) >  3995,
(PID.TID 0000.0001) >  3996,
(PID.TID 0000.0001) >  4017,
(PID.TID 0000.0001) >  4018,
(PID.TID 0000.0001) >  4019,
(PID.TID 0000.0001) >  4020,
(PID.TID 0000.0001) >  4021,
(PID.TID 0000.0001) >  4022,
(PID.TID 0000.0001) >  4023,
(PID.TID 0000.0001) >  4024,
(PID.TID 0000.0001) >  4043,
(PID.TID 0000.0001) >  4044,
(PID.TID 0000.0001) >  4045,
(PID.TID 0000.0001) >  4046,
(PID.TID 0000.0001) >  4047,
(PID.TID 0000.0001) >  4048,
(PID.TID 0000.0001) >  4049,
(PID.TID 0000.0001) >  4050,
(PID.TID 0000.0001) >  4051,
(PID.TID 0000.0001) >  4052,
(PID.TID 0000.0001) >  4073,
(PID.TID 0000.0001) >  4074,
(PID.TID 0000.0001) >  4075,
(PID.TID 0000.0001) >  4076,
(PID.TID 0000.0001) >  4097,
(PID.TID 0000.0001) >  4098,
(PID.TID 0000.0001) >  4099,
(PID.TID 0000.0001) >  4100,
(PID.TID 0000.0001) >  4101,
(PID.TID 0000.0001) >  4102,
(PID.TID 0000.0001) >  4103,
(PID.TID 0000.0001) >  4104,
(PID.TID 0000.0001) >  4105,
(PID.TID 0000.0001) >  4106,
(PID.TID 0000.0001) >  4107,
(PID.TID 0000.0001) >  4108,
(PID.TID 0000.0001) >  4127,
(PID.TID 0000.0001) >  4128,
(PID.TID 0000.0001) >  4129,
(PID.TID 0000.0001) >  4130,
(PID.TID 0000.0001) >  4152,
(PID.TID 0000.0001) >  4153,
(PID.TID 0000.0001) >  4154,
(PID.TID 0000.0001) >  4155,
(PID.TID 0000.0001) >  4156,
(PID.TID 0000.0001) >  4157,
(PID.TID 0000.0001) >  4158,
(PID.TID 0000.0001) >  4159,
(PID.TID 0000.0001) > &
(PID.TID 0000.0001) 
(PID.TID 0000.0001) W2_READPARMS: finished reading data.exch2
(PID.TID 0000.0001) W2_useE2ioLayOut=    T ;/* T: use Exch2 glob IO map; F: use model default */
(PID.TID 0000.0001) W2_mapIO        =   1 ; /* select option for Exch2 global-IO map */
(PID.TID 0000.0001) W2_printMsg     =   0 ; /* select option for printing information */
(PID.TID 0000.0001) ===== Start setting W2 TOPOLOGY:
(PID.TID 0000.0001) W2_E2SETUP: number of Active Tiles =    2880
(PID.TID 0000.0001) W2_E2SETUP: number of Blank Tiles  =    1332
(PID.TID 0000.0001) W2_E2SETUP: Total number of Tiles  =    4212
(PID.TID 0000.0001) W2_SET_GEN_FACETS: preDefTopol=  0 selected
(PID.TID 0000.0001) W2_SET_GEN_FACETS: Number of facets =  5 (inferred from "dimsFacets")
(PID.TID 0000.0001) W2_E2SETUP: Total number of Facets =       5
(PID.TID 0000.0001) W2_SET_F2F_INDEX: index matrix for connected Facet-Edges:
(PID.TID 0000.0001) ** WARNING ** S.Edge of facet #  1 disconnected (facet_link=  0.00)
(PID.TID 0000.0001) ** WARNING ** S.Edge of facet #  2 disconnected (facet_link=  0.00)
(PID.TID 0000.0001) ** WARNING ** E.Edge of facet #  4 disconnected (facet_link=  0.00)
(PID.TID 0000.0001) ** WARNING ** E.Edge of facet #  5 disconnected (facet_link=  0.00)
(PID.TID 0000.0001) W2_SET_MAP_TILES: tile mapping within facet and global Map:
(PID.TID 0000.0001)  W2_mapIO = 1080 (=   18*sNx)
(PID.TID 0000.0001)  Global Map (IO): X-size=    1080 , Y-size=   14040
(PID.TID 0000.0001) W2_SET_MAP_TILES: tile offset within facet and global Map:
- facet  1 : X-size=  1080 , Y-size=  3240 ;  972 tiles (Tx,Ty=  18,  54)
- facet  2 : X-size=  1080 , Y-size=  3240 ;  972 tiles (Tx,Ty=  18,  54)
- facet  3 : X-size=  1080 , Y-size=  1080 ;  324 tiles (Tx,Ty=  18,  18)
- facet  4 : X-size=  3240 , Y-size=  1080 ;  972 tiles (Tx,Ty=  54,  18)
- facet  5 : X-size=  3240 , Y-size=  1080 ;  972 tiles (Tx,Ty=  54,  18)
(PID.TID 0000.0001) W2_SET_MAP_CUMSUM: setting Facet Matrix for CUMUL-SUM
(PID.TID 0000.0001) W2_SET_MAP_CUMSUM: set    4 /   5 active facets (pass,type=   1, 1)
 Facet Matrix for CUMUL-SUM (nFacets=   5, nActive=   5 ):
- facet  1 :  0  0 ,  0  0 ,  0  0 ,  0  0 ,  0  0 ,
- facet  2 :  1  0 ,  0  0 ,  0  0 ,  0  0 ,  0  0 ,
- facet  3 :  1  0 ,  0  1 ,  0  0 ,  0  0 ,  0  0 ,
- facet  4 :  1  0 ,  0  1 ,  1  0 ,  0  0 ,  0  0 ,
- facet  5 :  1  0 ,  0  1 ,  1  0 ,  0  1 ,  0  0 ,
 missing-corner Tile for CUMUL-SUM (nTiles=  4212 ): W2_tMC1=     0 , W2_tMC2=     0
(PID.TID 0000.0001) W2_SET_MAP_CUMSUM: done (skip Tile Matrix setting)
(PID.TID 0000.0001) W2_SET_TILE2TILES: tile neighbours and index connection:
(PID.TID 0000.0001) current Max.Nb.Neighbours (e.g., on tile  145 ) =  4
(PID.TID 0000.0001) ===== W2 TILE TOPOLOGY =====
(PID.TID 0000.0001)  TILE:   127 (bi,bj=   1   1 ), Nb of Neighbours =  2
(PID.TID 0000.0001)     NEIGHBOUR  1 = TILE  145 (n=  2) Comm = MSG (PROC=    2)
(PID.TID 0000.0001)     NEIGHBOUR  2 = TILE 4205 (n=  1) Comm = MSG (PROC= 2873)
(PID.TID 0000.0001) =====       setting W2 TOPOLOGY: Done
(PID.TID 0000.0001) 
(PID.TID 0000.0001) DEBUG_MSG: ENTERED S/R INITIALISE_FIXED
(PID.TID 0000.0001) DEBUG_MSG: CALLING S/R INI_PARMS
(PID.TID 0000.0001)  INI_PARMS: opening model parameter file "data"
(PID.TID 0000.0001)  OPEN_COPY_DATA_FILE: opening file data
(PID.TID 0000.0001) // =======================================================
(PID.TID 0000.0001) // Parameter file "data"
(PID.TID 0000.0001) // =======================================================
(PID.TID 0000.0001) ># ====================
(PID.TID 0000.0001) ># | Model parameters |
(PID.TID 0000.0001) ># ====================
(PID.TID 0000.0001) >#
(PID.TID 0000.0001) ># Continuous equation parameters
(PID.TID 0000.0001) > &PARM01
(PID.TID 0000.0001) > tRef =  18.89, 18.89, 18.89, 18.89, 18.89, 18.87,
(PID.TID 0000.0001) >         18.85, 18.82, 18.80, 18.73, 18.65, 18.57,
(PID.TID 0000.0001) >         18.40, 18.22, 18.00, 17.74, 17.44, 17.12,
(PID.TID 0000.0001) >         16.76, 16.39, 15.98, 15.55, 15.08, 14.59,
(PID.TID 0000.0001) >         14.07, 13.53, 12.99, 12.47, 11.97, 11.49,
(PID.TID 0000.0001) >         11.02, 10.57, 10.12,  9.71,  9.27,  8.88,
(PID.TID 0000.0001) >          8.46,  8.09,  7.71,  7.37,  7.03,  6.72,
(PID.TID 0000.0001) >          6.42,  6.13,  5.86,  5.59,  5.34,  5.09,
(PID.TID 0000.0001) >          4.87,  4.65,  4.45,  4.26,  4.08,  3.91,
(PID.TID 0000.0001) >          3.75,  3.60,  3.47,  3.33,  3.20,  3.08,
(PID.TID 0000.0001) >          2.96,  2.84,  2.73,  2.62,  2.51,  2.42,
(PID.TID 0000.0001) >          2.32,  2.23,  2.14,  2.06,  1.98,  1.90,
(PID.TID 0000.0001) >          1.81,  1.73,  1.65,  1.57,  1.49,  1.41,
(PID.TID 0000.0001) >          1.33,  1.24,  1.15,  1.06,  0.98,  0.94,
(PID.TID 0000.0001) >          0.91,  0.92,  0.98,  0.98,  0.98,  0.98,
(PID.TID 0000.0001) > sRef =  34.84, 34.84, 34.84, 34.84, 34.84, 34.84,
(PID.TID 0000.0001) >         34.85, 34.85, 34.85, 34.86, 34.87, 34.88,
(PID.TID 0000.0001) >         34.89, 34.90, 34.92, 34.94, 34.96, 34.98,
(PID.TID 0000.0001) >         35.00, 35.02, 35.04, 35.06, 35.07, 35.07,
(PID.TID 0000.0001) >         35.07, 35.05, 35.03, 35.01, 34.98, 34.95,
(PID.TID 0000.0001) >         34.92, 34.89, 34.85, 34.82, 34.79, 34.76,
(PID.TID 0000.0001) >         34.73, 34.71, 34.68, 34.66, 34.64, 34.62,
(PID.TID 0000.0001) >         34.61, 34.60, 34.59, 34.59, 34.58, 34.58,
(PID.TID 0000.0001) >         34.59, 34.59, 34.60, 34.60, 34.61, 34.62,
(PID.TID 0000.0001) >         34.63, 34.64, 34.65, 34.66, 34.67, 34.68,
(PID.TID 0000.0001) >         34.69, 34.70, 34.71, 34.71, 34.72, 34.72,
(PID.TID 0000.0001) >         34.73, 34.73, 34.74, 34.74, 34.74, 34.74,
(PID.TID 0000.0001) >         34.75, 34.74, 34.74, 34.74, 34.74, 34.74,
(PID.TID 0000.0001) >         34.74, 34.74, 34.73, 34.73, 34.73, 34.73,
(PID.TID 0000.0001) >         34.73, 34.72, 34.72, 34.72, 34.72, 34.72,
(PID.TID 0000.0001) > viscAr= 5.6614e-04,
(PID.TID 0000.0001) > no_slip_sides = .FALSE.,
(PID.TID 0000.0001) > no_slip_bottom = .TRUE.,
(PID.TID 0000.0001) > diffKrT=5.44e-7,
(PID.TID 0000.0001) > diffKrS=5.44e-7,
(PID.TID 0000.0001) > rhonil=1027.5,
(PID.TID 0000.0001) > rhoConstFresh=999.8,
(PID.TID 0000.0001) > eosType='JMD95Z',
(PID.TID 0000.0001) > hFacMin=0.3,
(PID.TID 0000.0001) > hFacInf=0.1,
(PID.TID 0000.0001) > hFacSup=5.,
(PID.TID 0000.0001) > implicitDiffusion=.TRUE.,
(PID.TID 0000.0001) > implicitViscosity=.TRUE.,
(PID.TID 0000.0001) > viscC4Leith=2.0,
(PID.TID 0000.0001) > viscC4Leithd=2.0,
(PID.TID 0000.0001) > useAreaViscLength=.TRUE.,
(PID.TID 0000.0001) > sideDragFactor=0.,
(PID.TID 0000.0001) > highOrderVorticity  = .TRUE.,
(PID.TID 0000.0001) > bottomDragQuadratic = 0.0021,
(PID.TID 0000.0001) > tempAdvScheme=7,
(PID.TID 0000.0001) > saltAdvScheme=7,
(PID.TID 0000.0001) > StaggerTimeStep=.TRUE.,
(PID.TID 0000.0001) > multiDimAdvection=.TRUE.,
(PID.TID 0000.0001) > vectorInvariantMomentum=.TRUE.,
(PID.TID 0000.0001) > implicitFreeSurface=.TRUE.,
(PID.TID 0000.0001) > exactConserv=.TRUE.,
(PID.TID 0000.0001) > debuglevel=5,
(PID.TID 0000.0001) > convertFW2Salt=-1
(PID.TID 0000.0001) > useRealFreshWaterFlux=.TRUE.,
(PID.TID 0000.0001) > useSingleCPUio=.TRUE.,
(PID.TID 0000.0001) > globalFiles=.TRUE.,
(PID.TID 0000.0001) > readBinaryPrec=32,
(PID.TID 0000.0001) > writeBinaryPrec=32,
(PID.TID 0000.0001) > temp_EvPrRn=0.,
(PID.TID 0000.0001) > /
(PID.TID 0000.0001) >
(PID.TID 0000.0001) ># Elliptic solver parameters
(PID.TID 0000.0001) > &PARM02
(PID.TID 0000.0001) > cg2dMaxIters = 100,
(PID.TID 0000.0001) > cg2dTargetResidual = 1.E-5,
(PID.TID 0000.0001) > &
(PID.TID 0000.0001) >
(PID.TID 0000.0001) ># Time stepping parameters
(PID.TID 0000.0001) > &PARM03
(PID.TID 0000.0001) > nIter0=731520,
(PID.TID 0000.0001) >  nTimeSteps       = 288,
(PID.TID 0000.0001) > deltaT = 300.,
(PID.TID 0000.0001) > abEps = 0.1,
(PID.TID 0000.0001) > forcing_In_AB=.FALSE.,
(PID.TID 0000.0001) > momDissip_In_AB=.FALSE.,
(PID.TID 0000.0001) >  pChkptFreq        = 86400.0,
(PID.TID 0000.0001) >  chkptFreq        = 86400.0,
(PID.TID 0000.0001) > dumpfreq = 300.,
(PID.TID 0000.0001) > monitorFreq = 300.,
(PID.TID 0000.0001) > dumpInitAndLast=.TRUE.,
(PID.TID 0000.0001) > /
(PID.TID 0000.0001) >
(PID.TID 0000.0001) ># Gridding parameters
(PID.TID 0000.0001) > &PARM04
(PID.TID 0000.0001) > usingCurvilinearGrid=.TRUE.,
(PID.TID 0000.0001) > delR =   1.00,    1.14,    1.30,    1.49,   1.70,
(PID.TID 0000.0001) >          1.93,    2.20,    2.50,    2.84,   3.21,
(PID.TID 0000.0001) >          3.63,    4.10,    4.61,    5.18,   5.79,
(PID.TID 0000.0001) >          6.47,    7.20,    7.98,    8.83,   9.73,
(PID.TID 0000.0001) >         10.69,   11.70,   12.76,   13.87,  15.03,
(PID.TID 0000.0001) >         16.22,   17.45,   18.70,   19.97,  21.27,
(PID.TID 0000.0001) >         22.56,   23.87,   25.17,   26.46,  27.74,
(PID.TID 0000.0001) >         29.00,   30.24,   31.45,   32.65,  33.82,
(PID.TID 0000.0001) >         34.97,   36.09,   37.20,   38.29,  39.37,
(PID.TID 0000.0001) >         40.45,   41.53,   42.62,   43.73,  44.87,
(PID.TID 0000.0001) >         46.05,   47.28,   48.56,   49.93,  51.38,
(PID.TID 0000.0001) >         52.93,   54.61,   56.42,   58.38,  60.53,
(PID.TID 0000.0001) >         62.87,   65.43,   68.24,   71.33,  74.73,
(PID.TID 0000.0001) >         78.47,   82.61,   87.17,   92.21,  97.79,
(PID.TID 0000.0001) >        103.96,  110.79,  118.35,  126.73, 136.01,
(PID.TID 0000.0001) >        146.30,  157.71,  170.35,  184.37, 199.89,
(PID.TID 0000.0001) >        217.09,  236.13,  257.21,  280.50, 306.24,
(PID.TID 0000.0001) >        334.64,  365.93,  400.38,  438.23, 479.74,
(PID.TID 0000.0001) > /
(PID.TID 0000.0001) >
(PID.TID 0000.0001) ># Input datasets
(PID.TID 0000.0001) > &PARM05
(PID.TID 0000.0001) > bathyFile      ='bathy1080_g5_r4',
(PID.TID 0000.0001) > hydrogThetaFile='Jan2010_THETA_1080x14040x90_r4',
(PID.TID 0000.0001) > hydrogSaltFile ='Jan2010_SALT_1080x14040x90_r4',
(PID.TID 0000.0001) > /
(PID.TID 0000.0001) >
(PID.TID 0000.0001) 
(PID.TID 0000.0001)  INI_PARMS ; starts to read PARM01
(PID.TID 0000.0001)  INI_PARMS ; read PARM01 : OK
(PID.TID 0000.0001)  INI_PARMS ; starts to read PARM02
(PID.TID 0000.0001)  INI_PARMS ; read PARM02 : OK
(PID.TID 0000.0001)  INI_PARMS ; starts to read PARM03
(PID.TID 0000.0001)  INI_PARMS ; read PARM03 : OK
(PID.TID 0000.0001)  INI_PARMS ; starts to read PARM04
(PID.TID 0000.0001)  INI_PARMS ; read PARM04 : OK
(PID.TID 0000.0001)  INI_PARMS ; starts to read PARM05
(PID.TID 0000.0001)  INI_PARMS ; read PARM05 : OK
(PID.TID 0000.0001)  INI_PARMS: finished reading file "data"
(PID.TID 0000.0001) DEBUG_MSG: CALLING S/R PACKAGES_BOOT
(PID.TID 0000.0001)  PACKAGES_BOOT: opening data.pkg
(PID.TID 0000.0001)  OPEN_COPY_DATA_FILE: opening file data.pkg
(PID.TID 0000.0001) // =======================================================
(PID.TID 0000.0001) // Parameter file "data.pkg"
(PID.TID 0000.0001) // =======================================================
(PID.TID 0000.0001) ># Packages
(PID.TID 0000.0001) > &PACKAGES
(PID.TID 0000.0001) > useCAL         = .TRUE.,
(PID.TID 0000.0001) > useEXF         = .FALSE.,
(PID.TID 0000.0001) > useSEAICE      = .FALSE.,
(PID.TID 0000.0001) > useKPP         = .TRUE.,
(PID.TID 0000.0001) > useFRAZIL      = .TRUE.,
(PID.TID 0000.0001) > useDiagnostics     = .TRUE.,
(PID.TID 0000.0001) > /
(PID.TID 0000.0001) 
(PID.TID 0000.0001)  PACKAGES_BOOT: finished reading data.pkg
(PID.TID 0000.0001)  PACKAGES_BOOT: On/Off package Summary
 --------  pkgs with a standard "usePKG" On/Off switch in "data.pkg":  --------
 pkg/kpp                  compiled   and   used ( useKPP                   = T )
 pkg/cal                  compiled   and   used ( useCAL                   = T )
 pkg/exf                  compiled but not used ( useEXF                   = F )
 pkg/frazil               compiled   and   used ( useFRAZIL                = T )
 pkg/diagnostics          compiled   and   used ( useDiagnostics           = T )
 -------- pkgs without standard "usePKG" On/Off switch in "data.pkg":  --------
 pkg/generic_advdiff      compiled   and   used ( useGAD                   = T )
 pkg/mom_common           compiled   and   used ( momStepping              = T )
 pkg/mom_vecinv           compiled   and   used ( +vectorInvariantMomentum = T )
 pkg/mom_fluxform         compiled but not used ( & not vectorInvariantMom = F )
 pkg/monitor              compiled   and   used ( monitorFreq > 0.         = T )
 pkg/debug                compiled   and   used ( debugMode                = T )
 pkg/exch2                compiled   and   used
 pkg/rw                   compiled   and   used
 pkg/mdsio                compiled   and   used
(PID.TID 0000.0001)  PACKAGES_BOOT: End of package Summary
(PID.TID 0000.0001) 
(PID.TID 0000.0001) DEBUG_MSG: CALLING S/R PACKAGES_READPARMS
(PID.TID 0000.0001) DEBUG_MSG: ENTERED S/R CAL_READPARMS
(PID.TID 0000.0001) CAL_READPARMS: opening data.cal
(PID.TID 0000.0001)  OPEN_COPY_DATA_FILE: opening file data.cal
(PID.TID 0000.0001) // =======================================================
(PID.TID 0000.0001) // Parameter file "data.cal"
(PID.TID 0000.0001) // =======================================================
(PID.TID 0000.0001) >#
(PID.TID 0000.0001) ># *******************
(PID.TID 0000.0001) ># Calendar Parameters
(PID.TID 0000.0001) ># *******************
(PID.TID 0000.0001) > &CAL_NML
(PID.TID 0000.0001) > TheCalendar='gregorian',
(PID.TID 0000.0001) > startDate_1=20100101,
(PID.TID 0000.0001) > startDate_2=000000,
(PID.TID 0000.0001) > calendarDumps = .TRUE.,
(PID.TID 0000.0001) > &
(PID.TID 0000.0001) 
(PID.TID 0000.0001) CAL_READPARMS: finished reading data.cal
(PID.TID 0000.0001) DEBUG_MSG: LEAVING S/R CAL_READPARMS
(PID.TID 0000.0001)  KPP_READPARMS: opening data.kpp
(PID.TID 0000.0001)  OPEN_COPY_DATA_FILE: opening file data.kpp
(PID.TID 0000.0001) // =======================================================
(PID.TID 0000.0001) // Parameter file "data.kpp"
(PID.TID 0000.0001) // =======================================================
(PID.TID 0000.0001) ># KPP parameters
(PID.TID 0000.0001) > &KPP_PARM01
(PID.TID 0000.0001) > KPPmixingMaps   = .FALSE.,
(PID.TID 0000.0001) > KPPwriteState   = .FALSE.,
(PID.TID 0000.0001) > kpp_dumpFreq    = 0.,
(PID.TID 0000.0001) > kpp_tavefreq    = 0.,
(PID.TID 0000.0001) > Ricr            = 0.3559,
(PID.TID 0000.0001) > Riinfty         = 0.6998,
(PID.TID 0000.0001) > &
(PID.TID 0000.0001) >
(PID.TID 0000.0001) 
(PID.TID 0000.0001)  KPP_READPARMS ; starts to read KPP_PARM01
(PID.TID 0000.0001)  KPP_READPARMS ; read KPP_PARM01 : OK
(PID.TID 0000.0001)  KPP_READPARMS: finished reading data.kpp
(PID.TID 0000.0001)  DIAGNOSTICS_READPARMS: opening data.diagnostics
(PID.TID 0000.0001)  OPEN_COPY_DATA_FILE: opening file data.diagnostics
(PID.TID 0000.0001) // =======================================================
(PID.TID 0000.0001) // Parameter file "data.diagnostics"
(PID.TID 0000.0001) // =======================================================
(PID.TID 0000.0001) ># Diagnostic Package Choices
(PID.TID 0000.0001) >#--------------------
(PID.TID 0000.0001) >#  dumpAtLast (logical): always write output at the end of simulation (default=F)
(PID.TID 0000.0001) >#  diag_mnc   (logical): write to NetCDF files (default=useMNC)
(PID.TID 0000.0001) >#--for each output-stream:
(PID.TID 0000.0001) >#  fileName(n) : prefix of the output file name (max 80c long) for outp.stream n
(PID.TID 0000.0001) >#  frequency(n):< 0 : write snap-shot output every |frequency| seconds
(PID.TID 0000.0001) >#               > 0 : write time-average output every frequency seconds
(PID.TID 0000.0001) >#  timePhase(n)     : write at time = timePhase + multiple of |frequency|
(PID.TID 0000.0001) >#    averagingFreq  : frequency (in s) for periodic averaging interval
(PID.TID 0000.0001) >#    averagingPhase : phase     (in s) for periodic averaging interval
(PID.TID 0000.0001) >#    repeatCycle    : number of averaging intervals in 1 cycle
(PID.TID 0000.0001) >#  levels(:,n) : list of levels to write to file (Notes: declared as REAL)
(PID.TID 0000.0001) >#                when this entry is missing, select all common levels of this list
(PID.TID 0000.0001) >#  fields(:,n) : list of selected diagnostics fields (8.c) in outp.stream n
(PID.TID 0000.0001) >#                (see "available_diagnostics.log" file for the full list of diags)
(PID.TID 0000.0001) >#  missing_value(n) : missing value for real-type fields in output file "n"
(PID.TID 0000.0001) >#  fileFlags(n)     : specific code (8c string) for output file "n"
(PID.TID 0000.0001) >#--------------------
(PID.TID 0000.0001) ># oceTAUX  zonal surface wind stress, >0 increases uVel (N/m^2)
(PID.TID 0000.0001) ># oceTAUY  meridional surf. wind stress, >0 increases vVel (N/m^2)
(PID.TID 0000.0001) ># oceFWflx net surface Fresh-Water flux into ocean, >0 decreases salinity (kg/m^2/s)
(PID.TID 0000.0001) ># oceSflux net surface Salt flux into the ocean, >0 increases salinity (g/m^2/s)
(PID.TID 0000.0001) ># oceQnet  net surface heat flux into the ocean, >0 increases theta (W/m^2)
(PID.TID 0000.0001) ># oceQsw   net Short-Wave radiation (+=down), >0 increases theta (W/m^2)
(PID.TID 0000.0001) ># SSS      Sea Surface Salinity (g/kg)
(PID.TID 0000.0001) ># SST      Sea Surface Temperature (degC)
(PID.TID 0000.0001) ># UVEL1    Zonal Surface Velocity (m/s)
(PID.TID 0000.0001) ># VVEL1    Meridional Surface Velocity (m/s)
(PID.TID 0000.0001) >
(PID.TID 0000.0001) > &DIAGNOSTICS_LIST
(PID.TID 0000.0001) >   frequency(1)  = -300.,
(PID.TID 0000.0001) >   fields(1,1)  = 'oceTAUX ','oceTAUY ','oceFWflx','oceSflux','oceQnet ','oceQsw  ',
(PID.TID 0000.0001) >   filename(1)  = 'state_2d_set1',
(PID.TID 0000.0001) > frequency(2)  = -300.,
(PID.TID 0000.0001) >    fields(1,2)  = 'SALT    ','THETA   ','UVELMASS','VVELMASS',
(PID.TID 0000.0001) >    levels(1,2)  = 1.,
(PID.TID 0000.0001) >    filename(2)  = 'state_3d_set1',
(PID.TID 0000.0001) > &
(PID.TID 0000.0001) >
(PID.TID 0000.0001) > &DIAG_STATIS_PARMS
(PID.TID 0000.0001) > stat_fields(1:6,1)  = 'ETAN    ', 'THETA   ','SALT    ','oceQnet ','oceFWflx','oceSflux',
(PID.TID 0000.0001) > stat_fName(1) = 'dynStDiag',
(PID.TID 0000.0001) > stat_freq(1)=  10800.0,
(PID.TID 0000.0001) > &
(PID.TID 0000.0001) 
(PID.TID 0000.0001) S/R DIAGNOSTICS_READPARMS, read namelist "diagnostics_list": start
(PID.TID 0000.0001) S/R DIAGNOSTICS_READPARMS, read namelist "diagnostics_list": OK
(PID.TID 0000.0001) S/R DIAGNOSTICS_READPARMS, read namelist "DIAG_STATIS_PARMS": start
(PID.TID 0000.0001) S/R DIAGNOSTICS_READPARMS, read namelist "DIAG_STATIS_PARMS": OK
(PID.TID 0000.0001)  DIAGNOSTICS_READPARMS: global parameter summary:
(PID.TID 0000.0001)  dumpAtLast = /* always write time-ave diags at the end */
(PID.TID 0000.0001)                   F
(PID.TID 0000.0001)     ;
(PID.TID 0000.0001)  diag_mnc =   /* write NetCDF output files */
(PID.TID 0000.0001)                   F
(PID.TID 0000.0001)     ;
(PID.TID 0000.0001)  useMissingValue = /* put MissingValue where mask = 0 */
(PID.TID 0000.0001)                   F
(PID.TID 0000.0001)     ;
(PID.TID 0000.0001)  diagCG_maxIters = /* max number of iters in diag_cg2d */
(PID.TID 0000.0001)                     100
(PID.TID 0000.0001)     ;
(PID.TID 0000.0001)  diagCG_resTarget = /* residual target for diag_cg2d */
(PID.TID 0000.0001)                 1.000000000000000E-05
(PID.TID 0000.0001)     ;
(PID.TID 0000.0001)  diagCG_pcOffDFac = /* preconditioner off-diagonal factor */
(PID.TID 0000.0001)                 9.611687812379854E-01
(PID.TID 0000.0001)     ;
(PID.TID 0000.0001) -----------------------------------------------------
(PID.TID 0000.0001)  DIAGNOSTICS_READPARMS: active diagnostics summary:
(PID.TID 0000.0001) -----------------------------------------------------
(PID.TID 0000.0001) Creating Output Stream: state_2d_set1
(PID.TID 0000.0001) Output Frequency:       -300.000000 ; Phase:         150.000000
(PID.TID 0000.0001)  Averaging Freq.:          0.000000 , Phase:           0.000000 , Cycle:   1
(PID.TID 0000.0001)  missing value: -9.990000000000E+02
(PID.TID 0000.0001)  Levels:    will be set later
(PID.TID 0000.0001)  Fields:    oceTAUX  oceTAUY  oceFWflx oceSflux oceQnet  oceQsw
(PID.TID 0000.0001) Creating Output Stream: state_3d_set1
(PID.TID 0000.0001) Output Frequency:       -300.000000 ; Phase:         150.000000
(PID.TID 0000.0001)  Averaging Freq.:          0.000000 , Phase:           0.000000 , Cycle:   1
(PID.TID 0000.0001)  missing value: -9.990000000000E+02
(PID.TID 0000.0001)  Levels:       1.
(PID.TID 0000.0001)  Fields:    SALT     THETA    UVELMASS VVELMASS
(PID.TID 0000.0001) -----------------------------------------------------
(PID.TID 0000.0001)  DIAGNOSTICS_READPARMS: statistics diags. summary:
(PID.TID 0000.0001) Creating Stats. Output Stream: dynStDiag
(PID.TID 0000.0001) Output Frequency:      10800.000000 ; Phase:           0.000000
(PID.TID 0000.0001)  Regions:   0
(PID.TID 0000.0001)  Fields:    ETAN     THETA    SALT     oceQnet  oceFWflx oceSflux
(PID.TID 0000.0001) -----------------------------------------------------
(PID.TID 0000.0001) 
(PID.TID 0000.0001) DEBUG_MSG: CALLING S/R SET_PARMS
(PID.TID 0000.0001) SET_PARMS: done
(PID.TID 0000.0001) DEBUG_MSG: CALLING S/R INI_MODEL_IO
(PID.TID 0000.0001) DEBUG_MSG: CALLING S/R INI_GRID
(PID.TID 0000.0001) Enter INI_VERTICAL_GRID: setInterFDr=    T ; setCenterDr=    F
(PID.TID 0000.0001) tile: 127 ; Read from file tile001.mitgrid
(PID.TID 0000.0001)   => xC yC dxF dyF rA xG yG dxV dyU rAz dxC dyC rAw rAs dxG dyG
(PID.TID 0000.0001) // =======================================================
(PID.TID 0000.0001) // Field Current xC       at iteration          0
(PID.TID 0000.0001) // CMIN =         -4.102644463656125E+01
(PID.TID 0000.0001) // CMAX =         -3.302587012859404E+01
(PID.TID 0000.0001) // CINT =          2.963175743691561E-01
(PID.TID 0000.0001) // SYMBOLS (CMIN->CMAX): -abcdefghijklmnopqrstuvwxyz+
(PID.TID 0000.0001) //                  0.0: .
(PID.TID 0000.0001) // RANGE I (Lo:Hi:Step):(    -7:    68:     1)
(PID.TID 0000.0001) // RANGE J (Lo:Hi:Step):(    68:    -7:    -1)
(PID.TID 0000.0001) // RANGE K (Lo:Hi:Step):(   1:   1:   1)
(PID.TID 0000.0001) // =======================================================
(PID.TID 0000.0001) K =   1
(PID.TID 0000.0001) //                I=2       I=12      I=22      I=32      I=42      I=52      I=62
(PID.TID 0000.0001) // |--J--|765432101|345678901|345678901|345678901|345678901|345678901|345678901|345678
(PID.TID 0000.0001) //     68 ddeeefffggghhhhiiijjjkkkklllmmmnnnnooopppqqqrrrrssstttuuuvvvvwwwxxxyyyyzzz++
(PID.TID 0000.0001) //     67 ddeeefffgggghhhiiijjjkkkklllmmmnnnnooopppqqqrrrrssstttuuuuvvvwwwxxxyyyyzzz++
(PID.TID 0000.0001) //     66 ddeeefffgggghhhiiijjjjkkklllmmmnnnnooopppqqqqrrrssstttuuuuvvvwwwxxxyyyyzzz++
(PID.TID 0000.0001) //     65 ddeeeffffggghhhiiijjjjkkklllmmmmnnnooopppqqqqrrrssstttuuuuvvvwwwxxxxyyyzzz++
(PID.TID 0000.0001) //     64 ddeeeffffggghhhiiiijjjkkklllmmmmnnnoooppppqqqrrrsssttttuuuvvvwwwxxxxyyyzzz++
(PID.TID 0000.0001) //     63 ddeeeefffggghhhiiiijjjkkkllllmmmnnnoooppppqqqrrrsssttttuuuvvvwwwxxxxyyyzzz++
(PID.TID 0000.0001) //     62 ddeeeefffggghhhhiiijjjkkkllllmmmnnnoooppppqqqrrrsssstttuuuvvvwwwwxxxyyyzzz++
(PID.TID 0000.0001) //     61 dddeeefffggghhhhiiijjjkkkllllmmmnnnoooopppqqqrrrsssstttuuuvvvwwwwxxxyyyzzz++
(PID.TID 0000.0001) //     60 dddeeefffgggghhhiiijjjkkkklllmmmnnnoooopppqqqrrrsssstttuuuvvvwwwwxxxy.......
(PID.TID 0000.0001) //     59 dddeeefffgggghhhiiijjjkkkklllmmmnnnnooopppqqqrrrrssstttuuuvvvvwwwxxxy.......
(PID.TID 0000.0001) //     58 dddeeeffffggghhhiiijjjjkkklllmmmnnnnooopppqqqrrrrssstttuuuvvvvwwwxxxy.......
(PID.TID 0000.0001) //     57 dddeeeffffggghhhiiijjjjkkklllmmmmnnnooopppqqqqrrrssstttuuuuvvvwwwxxxy.......
(PID.TID 0000.0001) //     56 dddeeeefffggghhhiiiijjjkkklllmmmmnnnooopppqqqqrrrssstttuuuuvvvwwwxxxy.......
(PID.TID 0000.0001) //     55 dddeeeefffggghhhiiiijjjkkklllmmmmnnnooopppqqqqrrrssstttuuuuvvvwwwxxxy.......
(PID.TID 0000.0001) //     54 ddddeeefffggghhhhiiijjjkkkllllmmmnnnoooppppqqqrrrsssttttuuuvvvwwwxxxx.......
(PID.TID 0000.0001) //     53 ddddeeefffggghhhhiiijjjkkkllllmmmnnnoooppppqqqrrrsssttttuuuvvvwwwxxxx.......
(PID.TID 0000.0001) //     52 cdddeeefffgggghhhiiijjjkkkklllmmmnnnoooopppqqqrrrsssstttuuuvvvwwwxxxx.......
(PID.TID 0000.0001) //     51 cdddeeeffffggghhhiiijjjjkkklllmmmnnnoooopppqqqrrrsssstttuuuvvvwwwwxxx.......
(PID.TID 0000.0001) //     50 cdddeeeffffggghhhiiijjjjkkklllmmmnnnnooopppqqqrrrrssstttuuuvvvwwwwxxx.......
(PID.TID 0000.0001) //     49 cdddeeeefffggghhhiiiijjjkkklllmmmnnnnooopppqqqrrrrssstttuuuvvvvwwwxxx.......
(PID.TID 0000.0001) //     48 cdddeeeefffggghhhiiiijjjkkklllmmmmnnnooopppqqqqrrrssstttuuuvvvvwwwxxx.......
(PID.TID 0000.0001) //     47 cddddeeefffggghhhhiiijjjkkkllllmmmnnnooopppqqqqrrrssstttuuuuvvvwwwxxx.......
(PID.TID 0000.0001) //     46 ccdddeeefffgggghhhiiijjjkkkllllmmmnnnoooppppqqqrrrssstttuuuuvvvwwwxxx.......
(PID.TID 0000.0001) //     45 ccdddeeefffgggghhhiiijjjkkkklllmmmnnnoooppppqqqrrrsssttttuuuvvvwwwxxx.......
(PID.TID 0000.0001) //     44 ccdddeeeffffggghhhiiijjjkkkklllmmmnnnoooopppqqqrrrsssttttuuuvvvwwwxxx.......
(PID.TID 0000.0001) //     43 ccdddeeeffffggghhhiiijjjjkkklllmmmnnnoooopppqqqrrrsssstttuuuvvvwwwxxx.......
(PID.TID 0000.0001) //     42 ccdddeeeefffggghhhiiiijjjkkklllmmmnnnnooopppqqqrrrsssstttuuuvvvwwwxxx.......
(PID.TID 0000.0001) //     41 ccddddeeefffggghhhiiiijjjkkklllmmmmnnnooopppqqqrrrrssstttuuuvvvwwwwxx.......
(PID.TID 0000.0001) //     40 cccdddeeefffggghhhhiiijjjkkklllmmmmnnnooopppqqqrrrrssstttuuuvvvwwwwxx.......
(PID.TID 0000.0001) //     39 cccdddeeefffgggghhhiiijjjkkkllllmmmnnnooopppqqqqrrrssstttuuuvvvvwwwxx.......
(PID.TID 0000.0001) //     38 cccdddeeefffgggghhhiiijjjkkkklllmmmnnnoooppppqqqrrrssstttuuuvvvvwwwxx.......
(PID.TID 0000.0001) //     37 cccdddeeeffffggghhhiiijjjkkkklllmmmnnnoooppppqqqrrrssstttuuuuvvvwwwxx.......
(PID.TID 0000.0001) //     36 cccdddeeeefffggghhhiiijjjjkkklllmmmnnnoooopppqqqrrrsssttttuuuvvvwwwxx.......
(PID.TID 0000.0001) //     35 cccddddeeefffggghhhiiiijjjkkklllmmmnnnnooopppqqqrrrsssttttuuuvvvwwwxx.......
(PID.TID 0000.0001) //     34 ccccdddeeefffggghhhhiiijjjkkklllmmmnnnnooopppqqqrrrsssstttuuuvvvwwwxx.......
(PID.TID 0000.0001) //     33 ccccdddeeefffggghhhhiiijjjkkklllmmmmnnnooopppqqqrrrsssstttuuuvvvwwwxx.......
(PID.TID 0000.0001) //     32 bcccdddeeefffgggghhhiiijjjkkkllllmmmnnnooopppqqqrrrrssstttuuuvvvwwwxx.......
(PID.TID 0000.0001) //     31 bcccdddeeeffffggghhhiiijjjkkkklllmmmnnnooopppqqqqrrrssstttuuuvvvwwwwx.......
(PID.TID 0000.0001) //     30 bcccdddeeeefffggghhhiiijjjkkkklllmmmnnnoooppppqqqrrrssstttuuuvvvvwwwx.......
(PID.TID 0000.0001) //     29 bcccddddeeefffggghhhiiijjjjkkklllmmmnnnoooppppqqqrrrssstttuuuvvvvwwwx.......
(PID.TID 0000.0001) //     28 bccccdddeeefffggghhhiiiijjjkkklllmmmnnnoooopppqqqrrrssstttuuuuvvvwwwx.......
(PID.TID 0000.0001) //     27 bbcccdddeeefffggghhhhiiijjjkkklllmmmnnnnooopppqqqrrrsssttttuuuvvvwwwx.......
(PID.TID 0000.0001) //     26 bbcccdddeeefffgggghhhiiijjjkkklllmmmmnnnooopppqqqrrrsssstttuuuvvvwwwx.......
(PID.TID 0000.0001) //     25 bbcccdddeeeffffggghhhiiijjjkkkllllmmmnnnooopppqqqrrrsssstttuuuvvvwwwx.......
(PID.TID 0000.0001) //     24 bbcccdddeeeefffggghhhiiijjjkkkklllmmmnnnooopppqqqrrrrssstttuuuvvvwwwx.......
(PID.TID 0000.0001) //     23 bbcccddddeeefffggghhhiiijjjjkkklllmmmnnnooopppqqqqrrrssstttuuuvvvwwwx.......
(PID.TID 0000.0001) //     22 bbccccdddeeefffggghhhiiiijjjkkklllmmmnnnoooppppqqqrrrssstttuuuvvvwwww.......
(PID.TID 0000.0001) //     21 bbbcccdddeeefffggghhhhiiijjjkkklllmmmnnnoooopppqqqrrrssstttuuuvvvvwww.......
(PID.TID 0000.0001) //     20 bbbcccdddeeefffgggghhhiiijjjkkklllmmmnnnnooopppqqqrrrssstttuuuuvvvwww.......
(PID.TID 0000.0001) //     19 bbbcccdddeeeffffggghhhiiijjjkkklllmmmmnnnooopppqqqrrrsssttttuuuvvvwww.......
(PID.TID 0000.0001) //     18 bbbcccdddeeeefffggghhhiiijjjkkkllllmmmnnnooopppqqqrrrsssstttuuuvvvwww.......
(PID.TID 0000.0001) //     17 bbbccccdddeeefffggghhhiiijjjjkkklllmmmnnnooopppqqqrrrrssstttuuuvvvwww.......
(PID.TID 0000.0001) //     16 bbbbcccdddeeefffggghhhiiiijjjkkklllmmmnnnooopppqqqqrrrssstttuuuvvvwww.......
(PID.TID 0000.0001) //     15 abbbcccdddeeefffggghhhhiiijjjkkklllmmmnnnoooppppqqqrrrssstttuuuvvvwww.......
(PID.TID 0000.0001) //     14 abbbcccdddeeefffgggghhhiiijjjkkklllmmmnnnoooopppqqqrrrssstttuuuvvvwww.......
(PID.TID 0000.0001) //     13 abbbcccdddeeeefffggghhhiiijjjkkklllmmmmnnnooopppqqqrrrssstttuuuvvvwww.......
(PID.TID 0000.0001) //     12 abbbcccddddeeefffggghhhiiijjjkkkllllmmmnnnooopppqqqrrrssstttuuuvvvvww.......
(PID.TID 0000.0001) //     11 abbbbcccdddeeefffggghhhiiijjjkkkklllmmmnnnooopppqqqrrrsssttttuuuvvvww.......
(PID.TID 0000.0001) //     10 aabbbcccdddeeefffggghhhiiiijjjkkklllmmmnnnooopppqqqrrrsssstttuuuvvvww.......
(PID.TID 0000.0001) //      9 aabbbcccdddeeefffggghhhhiiijjjkkklllmmmnnnooopppqqqqrrrssstttuuuvvvww.......
(PID.TID 0000.0001) //      8 aabbbcccdddeeeffffggghhhiiijjjkkklllmmmnnnoooppppqqqrrrssstttuuuvvvww.......
(PID.TID 0000.0001) //      7 aabbbcccddddeeefffggghhhiiijjjkkklllmmmnnnnooopppqqqrrrssstttuuuvvvww.......
(PID.TID 0000.0001) //      6 aabbbccccdddeeefffggghhhiiijjjkkklllmmmmnnnooopppqqqrrrssstttuuuvvvww.......
(PID.TID 0000.0001) //      5 aaabbbcccdddeeefffggghhhiiijjjkkkklllmmmnnnooopppqqqrrrssstttuuuvvvww.......
(PID.TID 0000.0001) //      4 aaabbbcccdddeeefffggghhhiiiijjjkkklllmmmnnnooopppqqqrrrssstttuuuuvvvw.......
(PID.TID 0000.0001) //      3 aaabbbcccdddeeefffgggghhhiiijjjkkklllmmmnnnooopppqqqrrrsssstttuuuvvvw.......
(PID.TID 0000.0001) //      2 aaabbbcccdddeeeefffggghhhiiijjjkkklllmmmnnnooopppqqqqrrrssstttuuuvvvw.......
(PID.TID 0000.0001) //      1 aaabbbbcccdddeeefffggghhhiiijjjkkklllmmmnnnoooopppqqqrrrssstttuuuvvvw.......
(PID.TID 0000.0001) //      0 -aaabbbc....................................................................
(PID.TID 0000.0001) //     -1 -aaabbbc....................................................................
(PID.TID 0000.0001) //     -2 -aaabbbc....................................................................
(PID.TID 0000.0001) //     -3 -aaabbbc....................................................................
(PID.TID 0000.0001) //     -4 -aaabbbb....................................................................
(PID.TID 0000.0001) //     -5 --aaabbb....................................................................
(PID.TID 0000.0001) //     -6 --aaabbb....................................................................
(PID.TID 0000.0001) //     -7 --aaabbb....................................................................
(PID.TID 0000.0001) // =======================================================
(PID.TID 0000.0001) // END OF FIELD                                          =
(PID.TID 0000.0001) // =======================================================
(PID.TID 0000.0001) 
(PID.TID 0000.0001) // =======================================================
(PID.TID 0000.0001) // Field Current yC       at iteration          0
(PID.TID 0000.0001) // CMIN =         -8.014087067772195E+01
(PID.TID 0000.0001) // CMAX =         -7.788928141354371E+01
(PID.TID 0000.0001) // CINT =          8.339219496956429E-02
(PID.TID 0000.0001) // SYMBOLS (CMIN->CMAX): -abcdefghijklmnopqrstuvwxyz+
(PID.TID 0000.0001) //                  0.0: .
(PID.TID 0000.0001) // RANGE I (Lo:Hi:Step):(    -7:    68:     1)
(PID.TID 0000.0001) // RANGE J (Lo:Hi:Step):(    68:    -7:    -1)
(PID.TID 0000.0001) // RANGE K (Lo:Hi:Step):(   1:   1:   1)
(PID.TID 0000.0001) // =======================================================
(PID.TID 0000.0001) K =   1
(PID.TID 0000.0001) //                I=2       I=12      I=22      I=32      I=42      I=52      I=62
(PID.TID 0000.0001) // |--J--|765432101|345678901|345678901|345678901|345678901|345678901|345678901|345678
(PID.TID 0000.0001) //     68 +++++++++++++++++++++++++++++zzzzzzzzzzzzzzzzzzzzzzzzzzzzzzzzzzzzzzzzzzzzzzz
(PID.TID 0000.0001) //     67 +++++++zzzzzzzzzzzzzzzzzzzzzzzzzzzzzzzzzzzzzzzzzzzzzzzzzzzzzzzzzzzzzzzzzzzzz
(PID.TID 0000.0001) //     66 zzzzzzzzzzzzzzzzzzzzzzzzzzzzzzzzzzzzzzzzzzzzzzzyyyyyyyyyyyyyyyyyyyyyyyyyyyyy
(PID.TID 0000.0001) //     65 zzzzzzzzzzzzzzzzzzzzzzyyyyyyyyyyyyyyyyyyyyyyyyyyyyyyyyyyyyyyyyyyyyyyyyyyyyyy
(PID.TID 0000.0001) //     64 zzyyyyyyyyyyyyyyyyyyyyyyyyyyyyyyyyyyyyyyyyyyyyyyyyyyyyyyyyyyyyyyyyxxxxxxxxxx
(PID.TID 0000.0001) //     63 yyyyyyyyyyyyyyyyyyyyyyyyyyyyyyyyyyyyyyxxxxxxxxxxxxxxxxxxxxxxxxxxxxxxxxxxxxxx
(PID.TID 0000.0001) //     62 yyyyyyyyyyyyyyyyxxxxxxxxxxxxxxxxxxxxxxxxxxxxxxxxxxxxxxxxxxxxxxxxxxxxxxxxxxxx
(PID.TID 0000.0001) //     61 xxxxxxxxxxxxxxxxxxxxxxxxxxxxxxxxxxxxxxxxxxxxxxxxxxxxxxxxxwwwwwwwwwwwwwwwwwww
(PID.TID 0000.0001) //     60 xxxxxxxxxxxxxxxxxxxxxxxxxxxxxxxwwwwwwwwwwwwwwwwwwwwwwwwwwwwwwwwwwwwww.......
(PID.TID 0000.0001) //     59 xxxxxxxxxxwwwwwwwwwwwwwwwwwwwwwwwwwwwwwwwwwwwwwwwwwwwwwwwwwwwwwwwwwww.......
(PID.TID 0000.0001) //     58 wwwwwwwwwwwwwwwwwwwwwwwwwwwwwwwwwwwwwwwwwwwwwwwwvvvvvvvvvvvvvvvvvvvvv.......
(PID.TID 0000.0001) //     57 wwwwwwwwwwwwwwwwwwwwwwwwwvvvvvvvvvvvvvvvvvvvvvvvvvvvvvvvvvvvvvvvvvvvv.......
(PID.TID 0000.0001) //     56 wwwwvvvvvvvvvvvvvvvvvvvvvvvvvvvvvvvvvvvvvvvvvvvvvvvvvvvvvvvvvvvvvvvvu.......
(PID.TID 0000.0001) //     55 vvvvvvvvvvvvvvvvvvvvvvvvvvvvvvvvvvvvvvvvvuuuuuuuuuuuuuuuuuuuuuuuuuuuu.......
(PID.TID 0000.0001) //     54 vvvvvvvvvvvvvvvvvvvuuuuuuuuuuuuuuuuuuuuuuuuuuuuuuuuuuuuuuuuuuuuuuuuuu.......
(PID.TID 0000.0001) //     53 uuuuuuuuuuuuuuuuuuuuuuuuuuuuuuuuuuuuuuuuuuuuuuuuuuuuuuuuuuuuttttttttt.......
(PID.TID 0000.0001) //     52 uuuuuuuuuuuuuuuuuuuuuuuuuuuuuuuuuuttttttttttttttttttttttttttttttttttt.......
(PID.TID 0000.0001) //     51 uuuuuuuuuuuuutttttttttttttttttttttttttttttttttttttttttttttttttttttttt.......
(PID.TID 0000.0001) //     50 ttttttttttttttttttttttttttttttttttttttttttttttttttttsssssssssssssssss.......
(PID.TID 0000.0001) //     49 ttttttttttttttttttttttttttttsssssssssssssssssssssssssssssssssssssssss.......
(PID.TID 0000.0001) //     48 ttttttttsssssssssssssssssssssssssssssssssssssssssssssssssssssssssssss.......
(PID.TID 0000.0001) //     47 sssssssssssssssssssssssssssssssssssssssssssssrrrrrrrrrrrrrrrrrrrrrrrr.......
(PID.TID 0000.0001) //     46 sssssssssssssssssssssssrrrrrrrrrrrrrrrrrrrrrrrrrrrrrrrrrrrrrrrrrrrrrr.......
(PID.TID 0000.0001) //     45 ssssrrrrrrrrrrrrrrrrrrrrrrrrrrrrrrrrrrrrrrrrrrrrrrrrrrrrrrrrrrrrqqqqq.......
(PID.TID 0000.0001) //     44 rrrrrrrrrrrrrrrrrrrrrrrrrrrrrrrrrrrrrrrqqqqqqqqqqqqqqqqqqqqqqqqqqqqqq.......
(PID.TID 0000.0001) //     43 rrrrrrrrrrrrrrrrrrqqqqqqqqqqqqqqqqqqqqqqqqqqqqqqqqqqqqqqqqqqqqqqqqqqq.......
(PID.TID 0000.0001) //     42 qqqqqqqqqqqqqqqqqqqqqqqqqqqqqqqqqqqqqqqqqqqqqqqqqqqqqqqqppppppppppppp.......
(PID.TID 0000.0001) //     41 qqqqqqqqqqqqqqqqqqqqqqqqqqqqqqqqqpppppppppppppppppppppppppppppppppppp.......
(PID.TID 0000.0001) //     40 qqqqqqqqqqqqqpppppppppppppppppppppppppppppppppppppppppppppppppppppppp.......
(PID.TID 0000.0001) //     39 ppppppppppppppppppppppppppppppppppppppppppppppppppooooooooooooooooooo.......
(PID.TID 0000.0001) //     38 ppppppppppppppppppppppppppppooooooooooooooooooooooooooooooooooooooooo.......
(PID.TID 0000.0001) //     37 pppppppppoooooooooooooooooooooooooooooooooooooooooooooooooooooooooooo.......
(PID.TID 0000.0001) //     36 oooooooooooooooooooooooooooooooooooooooooooonnnnnnnnnnnnnnnnnnnnnnnnn.......
(PID.TID 0000.0001) //     35 ooooooooooooooooooooooonnnnnnnnnnnnnnnnnnnnnnnnnnnnnnnnnnnnnnnnnnnnnn.......
(PID.TID 0000.0001) //     34 ooooonnnnnnnnnnnnnnnnnnnnnnnnnnnnnnnnnnnnnnnnnnnnnnnnnnnnnnnnnnmmmmmm.......
(PID.TID 0000.0001) //     33 nnnnnnnnnnnnnnnnnnnnnnnnnnnnnnnnnnnnnnnmmmmmmmmmmmmmmmmmmmmmmmmmmmmmm.......
(PID.TID 0000.0001) //     32 nnnnnnnnnnnnnnnnnnnmmmmmmmmmmmmmmmmmmmmmmmmmmmmmmmmmmmmmmmmmmmmmmmmmm.......
(PID.TID 0000.0001) //     31 nnmmmmmmmmmmmmmmmmmmmmmmmmmmmmmmmmmmmmmmmmmmmmmmmmmmmmmmlllllllllllll.......
(PID.TID 0000.0001) //     30 mmmmmmmmmmmmmmmmmmmmmmmmmmmmmmmmmmlllllllllllllllllllllllllllllllllll.......
(PID.TID 0000.0001) //     29 mmmmmmmmmmmmmmmllllllllllllllllllllllllllllllllllllllllllllllllllllll.......
(PID.TID 0000.0001) //     28 lllllllllllllllllllllllllllllllllllllllllllllllllllkkkkkkkkkkkkkkkkkk.......
(PID.TID 0000.0001) //     27 llllllllllllllllllllllllllllllkkkkkkkkkkkkkkkkkkkkkkkkkkkkkkkkkkkkkkk.......
(PID.TID 0000.0001) //     26 lllllllllllkkkkkkkkkkkkkkkkkkkkkkkkkkkkkkkkkkkkkkkkkkkkkkkkkkkkkkkkkk.......
(PID.TID 0000.0001) //     25 kkkkkkkkkkkkkkkkkkkkkkkkkkkkkkkkkkkkkkkkkkkkkkjjjjjjjjjjjjjjjjjjjjjjj.......
(PID.TID 0000.0001) //     24 kkkkkkkkkkkkkkkkkkkkkkkkkkjjjjjjjjjjjjjjjjjjjjjjjjjjjjjjjjjjjjjjjjjjj.......
(PID.TID 0000.0001) //     23 kkkkkkkkjjjjjjjjjjjjjjjjjjjjjjjjjjjjjjjjjjjjjjjjjjjjjjjjjjjjjjjjiiiii.......
(PID.TID 0000.0001) //     22 jjjjjjjjjjjjjjjjjjjjjjjjjjjjjjjjjjjjjjjjjiiiiiiiiiiiiiiiiiiiiiiiiiiii.......
(PID.TID 0000.0001) //     21 jjjjjjjjjjjjjjjjjjjjjjiiiiiiiiiiiiiiiiiiiiiiiiiiiiiiiiiiiiiiiiiiiiiii.......
(PID.TID 0000.0001) //     20 jjjjjiiiiiiiiiiiiiiiiiiiiiiiiiiiiiiiiiiiiiiiiiiiiiiiiiiiiiihhhhhhhhhh.......
(PID.TID 0000.0001) //     19 iiiiiiiiiiiiiiiiiiiiiiiiiiiiiiiiiiiiihhhhhhhhhhhhhhhhhhhhhhhhhhhhhhhh.......
(PID.TID 0000.0001) //     18 iiiiiiiiiiiiiiiiiiihhhhhhhhhhhhhhhhhhhhhhhhhhhhhhhhhhhhhhhhhhhhhhhhhh.......
(PID.TID 0000.0001) //     17 iihhhhhhhhhhhhhhhhhhhhhhhhhhhhhhhhhhhhhhhhhhhhhhhhhhhhggggggggggggggg.......
(PID.TID 0000.0001) //     16 hhhhhhhhhhhhhhhhhhhhhhhhhhhhhhhhhhggggggggggggggggggggggggggggggggggg.......
(PID.TID 0000.0001) //     15 hhhhhhhhhhhhhhhhggggggggggggggggggggggggggggggggggggggggggggggggggggg.......
(PID.TID 0000.0001) //     14 ggggggggggggggggggggggggggggggggggggggggggggggggggfffffffffffffffffff.......
(PID.TID 0000.0001) //     13 ggggggggggggggggggggggggggggggfffffffffffffffffffffffffffffffffffffff.......
(PID.TID 0000.0001) //     12 gggggggggggggffffffffffffffffffffffffffffffffffffffffffffffffffffffff.......
(PID.TID 0000.0001) //     11 ffffffffffffffffffffffffffffffffffffffffffffffeeeeeeeeeeeeeeeeeeeeeee.......
(PID.TID 0000.0001) //     10 fffffffffffffffffffffffffffeeeeeeeeeeeeeeeeeeeeeeeeeeeeeeeeeeeeeeeeee.......
(PID.TID 0000.0001) //      9 fffffffffffeeeeeeeeeeeeeeeeeeeeeeeeeeeeeeeeeeeeeeeeeeeeeeeeeeeeeddddd.......
(PID.TID 0000.0001) //      8 eeeeeeeeeeeeeeeeeeeeeeeeeeeeeeeeeeeeeeeeeeedddddddddddddddddddddddddd.......
(PID.TID 0000.0001) //      7 eeeeeeeeeeeeeeeeeeeeeeeeddddddddddddddddddddddddddddddddddddddddddddd.......
(PID.TID 0000.0001) //      6 eeeeeeeeddddddddddddddddddddddddddddddddddddddddddddddddddddccccccccc.......
(PID.TID 0000.0001) //      5 dddddddddddddddddddddddddddddddddddddddcccccccccccccccccccccccccccccc.......
(PID.TID 0000.0001) //      4 ddddddddddddddddddddddccccccccccccccccccccccccccccccccccccccccccccccc.......
(PID.TID 0000.0001) //      3 ddddddccccccccccccccccccccccccccccccccccccccccccccccccccbbbbbbbbbbbbb.......
(PID.TID 0000.0001) //      2 cccccccccccccccccccccccccccccccccccccbbbbbbbbbbbbbbbbbbbbbbbbbbbbbbbb.......
(PID.TID 0000.0001) //      1 ccccccccccccccccccccbbbbbbbbbbbbbbbbbbbbbbbbbbbbbbbbbbbbbbbbbbbbbbbbb.......
(PID.TID 0000.0001) //      0 ccccbbbb....................................................................
(PID.TID 0000.0001) //     -1 bbbbbbbb....................................................................
(PID.TID 0000.0001) //     -2 bbbbbbbb....................................................................
(PID.TID 0000.0001) //     -3 bbbaaaaa....................................................................
(PID.TID 0000.0001) //     -4 aaaaaaaa....................................................................
(PID.TID 0000.0001) //     -5 aaaaaaaa....................................................................
(PID.TID 0000.0001) //     -6 a-------....................................................................
(PID.TID 0000.0001) //     -7 --------....................................................................
(PID.TID 0000.0001) // =======================================================
(PID.TID 0000.0001) // END OF FIELD                                          =
(PID.TID 0000.0001) // =======================================================
(PID.TID 0000.0001) 
(PID.TID 0000.0001) // =======================================================
(PID.TID 0000.0001) // Field Current dxF      at iteration          0
(PID.TID 0000.0001) // CMIN =          1.855731994349625E+03
(PID.TID 0000.0001) // CMAX =          2.103106560093583E+03
(PID.TID 0000.0001) // CINT =          9.162020953479896E+00
(PID.TID 0000.0001) // SYMBOLS (CMIN->CMAX): -abcdefghijklmnopqrstuvwxyz+
(PID.TID 0000.0001) //                  0.0: .
(PID.TID 0000.0001) // RANGE I (Lo:Hi:Step):(    -7:    68:     1)
(PID.TID 0000.0001) // RANGE J (Lo:Hi:Step):(    68:    -7:    -1)
(PID.TID 0000.0001) // RANGE K (Lo:Hi:Step):(   1:   1:   1)
(PID.TID 0000.0001) // =======================================================
(PID.TID 0000.0001) K =   1
(PID.TID 0000.0001) //                I=2       I=12      I=22      I=32      I=42      I=52      I=62
(PID.TID 0000.0001) // |--J--|765432101|345678901|345678901|345678901|345678901|345678901|345678901|345678
(PID.TID 0000.0001) //     68 +++++++++++++++++++++++++++++++++++++++++++++++++++++++++zzzzzzzzzzzzzzzzzzz
(PID.TID 0000.0001) //     67 +++++++++++zzzzzzzzzzzzzzzzzzzzzzzzzzzzzzzzzzzzzzzzzzzzzzzzzzzzzzzzzzzzzzzzz
(PID.TID 0000.0001) //     66 zzzzzzzzzzzzzzzzzzzzzzzzzzzzzzzzzzzzzzzzzzzzzzzzzzzzzzzzzzzzzzzzzzzzzzzzzzzz
(PID.TID 0000.0001) //     65 zzzzzzzzzzzzzzzzzzzzzzzzzzzzzzzzzzzyyyyyyyyyyyyyyyyyyyyyyyyyyyyyyyyyyyyyyyyy
(PID.TID 0000.0001) //     64 yyyyyyyyyyyyyyyyyyyyyyyyyyyyyyyyyyyyyyyyyyyyyyyyyyyyyyyyyyyyyyyyyyyyyyyyyyyy
(PID.TID 0000.0001) //     63 yyyyyyyyyyyyyyyyyyyyyyyyyyyyyyyyyyyyyyyyyyyyyyyyyyyyyyyyyyyyyyyyxxxxxxxxxxxx
(PID.TID 0000.0001) //     62 yyyyyyyyyyyyyyyyxxxxxxxxxxxxxxxxxxxxxxxxxxxxxxxxxxxxxxxxxxxxxxxxxxxxxxxxxxxx
(PID.TID 0000.0001) //     61 xxxxxxxxxxxxxxxxxxxxxxxxxxxxxxxxxxxxxxxxxxxxxxxxxxxxxxxxxxxxxxxxxxxxxxxxxxxx
(PID.TID 0000.0001) //     60 xxxxxxxxxxxxxxxxxxxxxxxxxxxxxxxxxxxxxxxxxxwwwwwwwwwwwwwwwwwwwwwwwwwww.......
(PID.TID 0000.0001) //     59 wwwwwwwwwwwwwwwwwwwwwwwwwwwwwwwwwwwwwwwwwwwwwwwwwwwwwwwwwwwwwwwwwwwww.......
(PID.TID 0000.0001) //     58 wwwwwwwwwwwwwwwwwwwwwwwwwwwwwwwwwwwwwwwwwwwwwwwwwwwwwwwwwwwwwwwwwwwww.......
(PID.TID 0000.0001) //     57 wwwwwwwwwwwwwwwwwwwwwwwwvvvvvvvvvvvvvvvvvvvvvvvvvvvvvvvvvvvvvvvvvvvvv.......
(PID.TID 0000.0001) //     56 vvvvvvvvvvvvvvvvvvvvvvvvvvvvvvvvvvvvvvvvvvvvvvvvvvvvvvvvvvvvvvvvvvvvv.......
(PID.TID 0000.0001) //     55 vvvvvvvvvvvvvvvvvvvvvvvvvvvvvvvvvvvvvvvvvvvvvvvvvvvvvuuuuuuuuuuuuuuuu.......
(PID.TID 0000.0001) //     54 vvvvvvvvvuuuuuuuuuuuuuuuuuuuuuuuuuuuuuuuuuuuuuuuuuuuuuuuuuuuuuuuuuuuu.......
(PID.TID 0000.0001) //     53 uuuuuuuuuuuuuuuuuuuuuuuuuuuuuuuuuuuuuuuuuuuuuuuuuuuuuuuuuuuuuuuuuuuuu.......
(PID.TID 0000.0001) //     52 uuuuuuuuuuuuuuuuuuuuuuuuuuuuuuuuuuutttttttttttttttttttttttttttttttttt.......
(PID.TID 0000.0001) //     51 ttttttttttttttttttttttttttttttttttttttttttttttttttttttttttttttttttttt.......
(PID.TID 0000.0001) //     50 ttttttttttttttttttttttttttttttttttttttttttttttttttttttttttttttttttttt.......
(PID.TID 0000.0001) //     49 ttttttttttttttttttttsssssssssssssssssssssssssssssssssssssssssssssssss.......
(PID.TID 0000.0001) //     48 sssssssssssssssssssssssssssssssssssssssssssssssssssssssssssssssssssss.......
(PID.TID 0000.0001) //     47 sssssssssssssssssssssssssssssssssssssssssssssssssssrrrrrrrrrrrrrrrrrr.......
(PID.TID 0000.0001) //     46 sssssssrrrrrrrrrrrrrrrrrrrrrrrrrrrrrrrrrrrrrrrrrrrrrrrrrrrrrrrrrrrrrr.......
(PID.TID 0000.0001) //     45 rrrrrrrrrrrrrrrrrrrrrrrrrrrrrrrrrrrrrrrrrrrrrrrrrrrrrrrrrrrrrrrrrrrrr.......
(PID.TID 0000.0001) //     44 rrrrrrrrrrrrrrrrrrrrrrrrrrrrrrrrrrrrqqqqqqqqqqqqqqqqqqqqqqqqqqqqqqqqq.......
(PID.TID 0000.0001) //     43 qqqqqqqqqqqqqqqqqqqqqqqqqqqqqqqqqqqqqqqqqqqqqqqqqqqqqqqqqqqqqqqqqqqqq.......
(PID.TID 0000.0001) //     42 qqqqqqqqqqqqqqqqqqqqqqqqqqqqqqqqqqqqqqqqqqqqqqqqqqqqqqqqqqqqqqqqqqqqq.......
(PID.TID 0000.0001) //     41 qqqqqqqqqqqqqqqqqqqqqqqpppppppppppppppppppppppppppppppppppppppppppppp.......
(PID.TID 0000.0001) //     40 ppppppppppppppppppppppppppppppppppppppppppppppppppppppppppppppppppppp.......
(PID.TID 0000.0001) //     39 ppppppppppppppppppppppppppppppppppppppppppppppppppppppppppooooooooooo.......
(PID.TID 0000.0001) //     38 ppppppppppppooooooooooooooooooooooooooooooooooooooooooooooooooooooooo.......
(PID.TID 0000.0001) //     37 ooooooooooooooooooooooooooooooooooooooooooooooooooooooooooooooooooooo.......
(PID.TID 0000.0001) //     36 oooooooooooooooooooooooooooooooooooooooooooonnnnnnnnnnnnnnnnnnnnnnnnn.......
(PID.TID 0000.0001) //     35 oonnnnnnnnnnnnnnnnnnnnnnnnnnnnnnnnnnnnnnnnnnnnnnnnnnnnnnnnnnnnnnnnnnn.......
(PID.TID 0000.0001) //     34 nnnnnnnnnnnnnnnnnnnnnnnnnnnnnnnnnnnnnnnnnnnnnnnnnnnnnnnnnnnnnnnnnnnnn.......
(PID.TID 0000.0001) //     33 nnnnnnnnnnnnnnnnnnnnnnnnnnnnnnnnnmmmmmmmmmmmmmmmmmmmmmmmmmmmmmmmmmmmm.......
(PID.TID 0000.0001) //     32 mmmmmmmmmmmmmmmmmmmmmmmmmmmmmmmmmmmmmmmmmmmmmmmmmmmmmmmmmmmmmmmmmmmmm.......
(PID.TID 0000.0001) //     31 mmmmmmmmmmmmmmmmmmmmmmmmmmmmmmmmmmmmmmmmmmmmmmmmmmmmmmmmmmmmmmmmmmmmm.......
(PID.TID 0000.0001) //     30 mmmmmmmmmmmmmmmmmmmmmmmmlllllllllllllllllllllllllllllllllllllllllllll.......
(PID.TID 0000.0001) //     29 lllllllllllllllllllllllllllllllllllllllllllllllllllllllllllllllllllll.......
(PID.TID 0000.0001) //     28 lllllllllllllllllllllllllllllllllllllllllllllllllllllllllllllllkkkkkk.......
(PID.TID 0000.0001) //     27 llllllllllllllllkkkkkkkkkkkkkkkkkkkkkkkkkkkkkkkkkkkkkkkkkkkkkkkkkkkkk.......
(PID.TID 0000.0001) //     26 kkkkkkkkkkkkkkkkkkkkkkkkkkkkkkkkkkkkkkkkkkkkkkkkkkkkkkkkkkkkkkkkkkkkk.......
(PID.TID 0000.0001) //     25 kkkkkkkkkkkkkkkkkkkkkkkkkkkkkkkkkkkkkkkkkkkkkkkkkkkkkjjjjjjjjjjjjjjjj.......
(PID.TID 0000.0001) //     24 kkkkkkkkkjjjjjjjjjjjjjjjjjjjjjjjjjjjjjjjjjjjjjjjjjjjjjjjjjjjjjjjjjjjj.......
(PID.TID 0000.0001) //     23 jjjjjjjjjjjjjjjjjjjjjjjjjjjjjjjjjjjjjjjjjjjjjjjjjjjjjjjjjjjjjjjjjjjjj.......
(PID.TID 0000.0001) //     22 jjjjjjjjjjjjjjjjjjjjjjjjjjjjjjjjjjjjjjjjjjjjjiiiiiiiiiiiiiiiiiiiiiiii.......
(PID.TID 0000.0001) //     21 jjjiiiiiiiiiiiiiiiiiiiiiiiiiiiiiiiiiiiiiiiiiiiiiiiiiiiiiiiiiiiiiiiiii.......
(PID.TID 0000.0001) //     20 iiiiiiiiiiiiiiiiiiiiiiiiiiiiiiiiiiiiiiiiiiiiiiiiiiiiiiiiiiiiiiiiiiiii.......
(PID.TID 0000.0001) //     19 iiiiiiiiiiiiiiiiiiiiiiiiiiiiiiiiiiiiiiihhhhhhhhhhhhhhhhhhhhhhhhhhhhhh.......
(PID.TID 0000.0001) //     18 hhhhhhhhhhhhhhhhhhhhhhhhhhhhhhhhhhhhhhhhhhhhhhhhhhhhhhhhhhhhhhhhhhhhh.......
(PID.TID 0000.0001) //     17 hhhhhhhhhhhhhhhhhhhhhhhhhhhhhhhhhhhhhhhhhhhhhhhhhhhhhhhhhhhhhhhhhhhhh.......
(PID.TID 0000.0001) //     16 hhhhhhhhhhhhhhhhhhhhhhhhhhhhhhhhhgggggggggggggggggggggggggggggggggggg.......
(PID.TID 0000.0001) //     15 ggggggggggggggggggggggggggggggggggggggggggggggggggggggggggggggggggggg.......
(PID.TID 0000.0001) //     14 ggggggggggggggggggggggggggggggggggggggggggggggggggggggggggggggggggggg.......
(PID.TID 0000.0001) //     13 gggggggggggggggggggggggggggggffffffffffffffffffffffffffffffffffffffff.......
(PID.TID 0000.0001) //     12 fffffffffffffffffffffffffffffffffffffffffffffffffffffffffffffffffffff.......
(PID.TID 0000.0001) //     11 fffffffffffffffffffffffffffffffffffffffffffffffffffffffffffffffffffff.......
(PID.TID 0000.0001) //     10 ffffffffffffffffffffffffffeeeeeeeeeeeeeeeeeeeeeeeeeeeeeeeeeeeeeeeeeee.......
(PID.TID 0000.0001) //      9 eeeeeeeeeeeeeeeeeeeeeeeeeeeeeeeeeeeeeeeeeeeeeeeeeeeeeeeeeeeeeeeeeeeee.......
(PID.TID 0000.0001) //      8 eeeeeeeeeeeeeeeeeeeeeeeeeeeeeeeeeeeeeeeeeeeeeeeeeeeeeeeeeeeeeeeeeeeee.......
(PID.TID 0000.0001) //      7 eeeeeeeeeeeeeeeeeeeeeeeeddddddddddddddddddddddddddddddddddddddddddddd.......
(PID.TID 0000.0001) //      6 ddddddddddddddddddddddddddddddddddddddddddddddddddddddddddddddddddddd.......
(PID.TID 0000.0001) //      5 ddddddddddddddddddddddddddddddddddddddddddddddddddddddddddddddddddddd.......
(PID.TID 0000.0001) //      4 dddddddddddddddddddddddcccccccccccccccccccccccccccccccccccccccccccccc.......
(PID.TID 0000.0001) //      3 ccccccccccccccccccccccccccccccccccccccccccccccccccccccccccccccccccccc.......
(PID.TID 0000.0001) //      2 ccccccccccccccccccccccccccccccccccccccccccccccccccccccccccccccccccccc.......
(PID.TID 0000.0001) //      1 cccccccccccccccccccccccbbbbbbbbbbbbbbbbbbbbbbbbbbbbbbbbbbbbbbbbbbbbbb.......
(PID.TID 0000.0001) //      0 bbbbbbbb....................................................................
(PID.TID 0000.0001) //     -1 bbbbbbbb....................................................................
(PID.TID 0000.0001) //     -2 bbbbbbbb....................................................................
(PID.TID 0000.0001) //     -3 aaaaaaaa....................................................................
(PID.TID 0000.0001) //     -4 aaaaaaaa....................................................................
(PID.TID 0000.0001) //     -5 aaaaaaaa....................................................................
(PID.TID 0000.0001) //     -6 --------....................................................................
(PID.TID 0000.0001) //     -7 --------....................................................................
(PID.TID 0000.0001) // =======================================================
(PID.TID 0000.0001) // END OF FIELD                                          =
(PID.TID 0000.0001) // =======================================================
(PID.TID 0000.0001) 
(PID.TID 0000.0001) // =======================================================
(PID.TID 0000.0001) // Field Current dyF      at iteration          0
(PID.TID 0000.0001) // CMIN =          3.220513909829782E+03
(PID.TID 0000.0001) // CMAX =          3.481557793291840E+03
(PID.TID 0000.0001) // CINT =          9.668291980076228E+00
(PID.TID 0000.0001) // SYMBOLS (CMIN->CMAX): -abcdefghijklmnopqrstuvwxyz+
(PID.TID 0000.0001) //                  0.0: .
(PID.TID 0000.0001) // RANGE I (Lo:Hi:Step):(    -7:    68:     1)
(PID.TID 0000.0001) // RANGE J (Lo:Hi:Step):(    68:    -7:    -1)
(PID.TID 0000.0001) // RANGE K (Lo:Hi:Step):(   1:   1:   1)
(PID.TID 0000.0001) // =======================================================
(PID.TID 0000.0001) K =   1
(PID.TID 0000.0001) //                I=2       I=12      I=22      I=32      I=42      I=52      I=62
(PID.TID 0000.0001) // |--J--|765432101|345678901|345678901|345678901|345678901|345678901|345678901|345678
(PID.TID 0000.0001) //     68 wwxxxxxxxxxxxxxxxxxyyyyyyyyyyyyyyyyyyyzzzzzzzzzzzzzzzzzzzzzzzz++++++++++++++
(PID.TID 0000.0001) //     67 wwwwwwwxxxxxxxxxxxxxxxxxxyyyyyyyyyyyyyyyyyyyyzzzzzzzzzzzzzzzzzzzzzzzzz++++++
(PID.TID 0000.0001) //     66 wwwwwwwwwwwwxxxxxxxxxxxxxxxxxxxyyyyyyyyyyyyyyyyyyyyyzzzzzzzzzzzzzzzzzzzzzzzz
(PID.TID 0000.0001) //     65 wwwwwwwwwwwwwwwwwxxxxxxxxxxxxxxxxxxxxyyyyyyyyyyyyyyyyyyyyyyyzzzzzzzzzzzzzzzz
(PID.TID 0000.0001) //     64 vvvvvwwwwwwwwwwwwwwwwwwxxxxxxxxxxxxxxxxxxxxxyyyyyyyyyyyyyyyyyyyyyyyyzzzzzzzz
(PID.TID 0000.0001) //     63 vvvvvvvvvvvwwwwwwwwwwwwwwwwwwxxxxxxxxxxxxxxxxxxxxxxyyyyyyyyyyyyyyyyyyyyyyyyy
(PID.TID 0000.0001) //     62 vvvvvvvvvvvvvvvvwwwwwwwwwwwwwwwwwwwxxxxxxxxxxxxxxxxxxxxxxxyyyyyyyyyyyyyyyyyy
(PID.TID 0000.0001) //     61 uuuuvvvvvvvvvvvvvvvvvvwwwwwwwwwwwwwwwwwwwwxxxxxxxxxxxxxxxxxxxxxxxxyyyyyyyyyy
(PID.TID 0000.0001) //     60 uuuuuuuuuvvvvvvvvvvvvvvvvvvvwwwwwwwwwwwwwwwwwwwwwxxxxxxxxxxxxxxxxxxxx.......
(PID.TID 0000.0001) //     59 uuuuuuuuuuuuuuuvvvvvvvvvvvvvvvvvvvwwwwwwwwwwwwwwwwwwwwwwxxxxxxxxxxxxx.......
(PID.TID 0000.0001) //     58 tttuuuuuuuuuuuuuuuuuvvvvvvvvvvvvvvvvvvvvwwwwwwwwwwwwwwwwwwwwwwwwxxxxx.......
(PID.TID 0000.0001) //     57 ttttttttuuuuuuuuuuuuuuuuuuvvvvvvvvvvvvvvvvvvvvvwwwwwwwwwwwwwwwwwwwwww.......
(PID.TID 0000.0001) //     56 ttttttttttttttuuuuuuuuuuuuuuuuuuuvvvvvvvvvvvvvvvvvvvvvvwwwwwwwwwwwwww.......
(PID.TID 0000.0001) //     55 sstttttttttttttttttuuuuuuuuuuuuuuuuuuuuvvvvvvvvvvvvvvvvvvvvvvvvwwwwww.......
(PID.TID 0000.0001) //     54 sssssssttttttttttttttttttuuuuuuuuuuuuuuuuuuuuuvvvvvvvvvvvvvvvvvvvvvvv.......
(PID.TID 0000.0001) //     53 sssssssssssstttttttttttttttttttuuuuuuuuuuuuuuuuuuuuuuvvvvvvvvvvvvvvvv.......
(PID.TID 0000.0001) //     52 ssssssssssssssssssttttttttttttttttttttuuuuuuuuuuuuuuuuuuuuuuuvvvvvvvv.......
(PID.TID 0000.0001) //     51 rrrrrrssssssssssssssssssttttttttttttttttttttuuuuuuuuuuuuuuuuuuuuuuuuu.......
(PID.TID 0000.0001) //     50 rrrrrrrrrrrsssssssssssssssssssttttttttttttttttttttttuuuuuuuuuuuuuuuuu.......
(PID.TID 0000.0001) //     49 rrrrrrrrrrrrrrrrrssssssssssssssssssstttttttttttttttttttttttuuuuuuuuuu.......
(PID.TID 0000.0001) //     48 qqqqrrrrrrrrrrrrrrrrrrssssssssssssssssssssstttttttttttttttttttttttttu.......
(PID.TID 0000.0001) //     47 qqqqqqqqqqrrrrrrrrrrrrrrrrrrssssssssssssssssssssssttttttttttttttttttt.......
(PID.TID 0000.0001) //     46 qqqqqqqqqqqqqqqrrrrrrrrrrrrrrrrrrrrsssssssssssssssssssssssttttttttttt.......
(PID.TID 0000.0001) //     45 pppqqqqqqqqqqqqqqqqqqrrrrrrrrrrrrrrrrrrrrsssssssssssssssssssssssssttt.......
(PID.TID 0000.0001) //     44 pppppppppqqqqqqqqqqqqqqqqqqrrrrrrrrrrrrrrrrrrrrrrssssssssssssssssssss.......
(PID.TID 0000.0001) //     43 ppppppppppppppqqqqqqqqqqqqqqqqqqqrrrrrrrrrrrrrrrrrrrrrrrsssssssssssss.......
(PID.TID 0000.0001) //     42 ooppppppppppppppppppqqqqqqqqqqqqqqqqqqqqrrrrrrrrrrrrrrrrrrrrrrrrsssss.......
(PID.TID 0000.0001) //     41 ooooooopppppppppppppppppppqqqqqqqqqqqqqqqqqqqqqrrrrrrrrrrrrrrrrrrrrrr.......
(PID.TID 0000.0001) //     40 ooooooooooooopppppppppppppppppppqqqqqqqqqqqqqqqqqqqqqqqrrrrrrrrrrrrrr.......
(PID.TID 0000.0001) //     39 nooooooooooooooooooppppppppppppppppppppqqqqqqqqqqqqqqqqqqqqqqqqrrrrrr.......
(PID.TID 0000.0001) //     38 nnnnnnooooooooooooooooooopppppppppppppppppppppqqqqqqqqqqqqqqqqqqqqqqq.......
(PID.TID 0000.0001) //     37 nnnnnnnnnnnnoooooooooooooooooooppppppppppppppppppppppqqqqqqqqqqqqqqqq.......
(PID.TID 0000.0001) //     36 nnnnnnnnnnnnnnnnnooooooooooooooooooooppppppppppppppppppppppppqqqqqqqq.......
(PID.TID 0000.0001) //     35 mmmmmnnnnnnnnnnnnnnnnnnoooooooooooooooooooooppppppppppppppppppppppppp.......
(PID.TID 0000.0001) //     34 mmmmmmmmmmmnnnnnnnnnnnnnnnnnnnooooooooooooooooooooooppppppppppppppppp.......
(PID.TID 0000.0001) //     33 mmmmmmmmmmmmmmmmnnnnnnnnnnnnnnnnnnnnooooooooooooooooooooooooppppppppp.......
(PID.TID 0000.0001) //     32 llllmmmmmmmmmmmmmmmmmmnnnnnnnnnnnnnnnnnnnnnooooooooooooooooooooooooop.......
(PID.TID 0000.0001) //     31 llllllllllmmmmmmmmmmmmmmmmmmnnnnnnnnnnnnnnnnnnnnnnooooooooooooooooooo.......
(PID.TID 0000.0001) //     30 lllllllllllllllmmmmmmmmmmmmmmmmmmmmnnnnnnnnnnnnnnnnnnnnnnnooooooooooo.......
(PID.TID 0000.0001) //     29 kkkllllllllllllllllllmmmmmmmmmmmmmmmmmmmmmnnnnnnnnnnnnnnnnnnnnnnnnooo.......
(PID.TID 0000.0001) //     28 kkkkkkkkkllllllllllllllllllmmmmmmmmmmmmmmmmmmmmmmnnnnnnnnnnnnnnnnnnnn.......
(PID.TID 0000.0001) //     27 kkkkkkkkkkkkkkllllllllllllllllllllmmmmmmmmmmmmmmmmmmmmmmmnnnnnnnnnnnn.......
(PID.TID 0000.0001) //     26 jjkkkkkkkkkkkkkkkkkkllllllllllllllllllllmmmmmmmmmmmmmmmmmmmmmmmmmnnnn.......
(PID.TID 0000.0001) //     25 jjjjjjjkkkkkkkkkkkkkkkkkkkllllllllllllllllllllllmmmmmmmmmmmmmmmmmmmmm.......
(PID.TID 0000.0001) //     24 jjjjjjjjjjjjjkkkkkkkkkkkkkkkkkkklllllllllllllllllllllllmmmmmmmmmmmmmm.......
(PID.TID 0000.0001) //     23 ijjjjjjjjjjjjjjjjjjkkkkkkkkkkkkkkkkkkkkllllllllllllllllllllllllmmmmmm.......
(PID.TID 0000.0001) //     22 iiiiiijjjjjjjjjjjjjjjjjjjkkkkkkkkkkkkkkkkkkkkklllllllllllllllllllllll.......
(PID.TID 0000.0001) //     21 iiiiiiiiiiiijjjjjjjjjjjjjjjjjjjkkkkkkkkkkkkkkkkkkkkkkklllllllllllllll.......
(PID.TID 0000.0001) //     20 iiiiiiiiiiiiiiiiiijjjjjjjjjjjjjjjjjjjjkkkkkkkkkkkkkkkkkkkkkkkklllllll.......
(PID.TID 0000.0001) //     19 hhhhhiiiiiiiiiiiiiiiiiiijjjjjjjjjjjjjjjjjjjjjkkkkkkkkkkkkkkkkkkkkkkkk.......
(PID.TID 0000.0001) //     18 hhhhhhhhhhhiiiiiiiiiiiiiiiiiiijjjjjjjjjjjjjjjjjjjjjjkkkkkkkkkkkkkkkkk.......
(PID.TID 0000.0001) //     17 hhhhhhhhhhhhhhhhhiiiiiiiiiiiiiiiiiiiijjjjjjjjjjjjjjjjjjjjjjjjkkkkkkkk.......
(PID.TID 0000.0001) //     16 gggghhhhhhhhhhhhhhhhhhhiiiiiiiiiiiiiiiiiiiiijjjjjjjjjjjjjjjjjjjjjjjjj.......
(PID.TID 0000.0001) //     15 gggggggggghhhhhhhhhhhhhhhhhhhiiiiiiiiiiiiiiiiiiiiiijjjjjjjjjjjjjjjjjj.......
(PID.TID 0000.0001) //     14 gggggggggggggggghhhhhhhhhhhhhhhhhhhhiiiiiiiiiiiiiiiiiiiiiiijjjjjjjjjj.......
(PID.TID 0000.0001) //     13 fffggggggggggggggggggghhhhhhhhhhhhhhhhhhhhhiiiiiiiiiiiiiiiiiiiiiiiiij.......
(PID.TID 0000.0001) //     12 fffffffffggggggggggggggggggghhhhhhhhhhhhhhhhhhhhhhiiiiiiiiiiiiiiiiiii.......
(PID.TID 0000.0001) //     11 fffffffffffffffggggggggggggggggggghhhhhhhhhhhhhhhhhhhhhhhhiiiiiiiiiii.......
(PID.TID 0000.0001) //     10 eeeffffffffffffffffffgggggggggggggggggggghhhhhhhhhhhhhhhhhhhhhhhhhiii.......
(PID.TID 0000.0001) //      9 eeeeeeeefffffffffffffffffffgggggggggggggggggggggghhhhhhhhhhhhhhhhhhhh.......
(PID.TID 0000.0001) //      8 eeeeeeeeeeeeeefffffffffffffffffffgggggggggggggggggggggggghhhhhhhhhhhh.......
(PID.TID 0000.0001) //      7 ddeeeeeeeeeeeeeeeeeeffffffffffffffffffffggggggggggggggggggggggggghhhh.......
(PID.TID 0000.0001) //      6 dddddddeeeeeeeeeeeeeeeeeeeffffffffffffffffffffffggggggggggggggggggggg.......
(PID.TID 0000.0001) //      5 dddddddddddddeeeeeeeeeeeeeeeeeeefffffffffffffffffffffffgggggggggggggg.......
(PID.TID 0000.0001) //      4 cddddddddddddddddddeeeeeeeeeeeeeeeeeeeefffffffffffffffffffffffffggggg.......
(PID.TID 0000.0001) //      3 ccccccdddddddddddddddddddeeeeeeeeeeeeeeeeeeeeefffffffffffffffffffffff.......
(PID.TID 0000.0001) //      2 ccccccccccccdddddddddddddddddddeeeeeeeeeeeeeeeeeeeeeeefffffffffffffff.......
(PID.TID 0000.0001) //      1 ccccccccccccccccccddddddddddddddddddddeeeeeeeeeeeeeeeeeeeeeeeefffffff.......
(PID.TID 0000.0001) //      0 bbbbbccc....................................................................
(PID.TID 0000.0001) //     -1 bbbbbbbb....................................................................
(PID.TID 0000.0001) //     -2 bbbbbbbb....................................................................
(PID.TID 0000.0001) //     -3 aaaabbbb....................................................................
(PID.TID 0000.0001) //     -4 aaaaaaaa....................................................................
(PID.TID 0000.0001) //     -5 aaaaaaaa....................................................................
(PID.TID 0000.0001) //     -6 ----aaaa....................................................................
(PID.TID 0000.0001) //     -7 --------....................................................................
(PID.TID 0000.0001) // =======================================================
(PID.TID 0000.0001) // END OF FIELD                                          =
(PID.TID 0000.0001) // =======================================================
(PID.TID 0000.0001) 
(PID.TID 0000.0001) // =======================================================
(PID.TID 0000.0001) // Field Current rA       at iteration          0
(PID.TID 0000.0001) // CMIN =          5.978139724825881E+06
(PID.TID 0000.0001) // CMAX =          7.302290616155149E+06
(PID.TID 0000.0001) // CINT =          4.904262560478770E+04
(PID.TID 0000.0001) // SYMBOLS (CMIN->CMAX): -abcdefghijklmnopqrstuvwxyz+
(PID.TID 0000.0001) //                  0.0: .
(PID.TID 0000.0001) // RANGE I (Lo:Hi:Step):(    -7:    68:     1)
(PID.TID 0000.0001) // RANGE J (Lo:Hi:Step):(    68:    -7:    -1)
(PID.TID 0000.0001) // RANGE K (Lo:Hi:Step):(   1:   1:   1)
(PID.TID 0000.0001) // =======================================================
(PID.TID 0000.0001) K =   1
(PID.TID 0000.0001) //                I=2       I=12      I=22      I=32      I=42      I=52      I=62
(PID.TID 0000.0001) // |--J--|765432101|345678901|345678901|345678901|345678901|345678901|345678901|345678
(PID.TID 0000.0001) //     68 zzzzzzzzzzzzzzzzzzzzzzzzzzzzzzzzzzz+++++++++++++++++++++++++++++++++++++++++
(PID.TID 0000.0001) //     67 zzzzzzzzzzzzzzzzzzzzzzzzzzzzzzzzzzzzzzzzzzzzzzzzzzzzzzzzzzzzzzzz++++++++++++
(PID.TID 0000.0001) //     66 yyyyyyyyyyyyyyyyyyyyzzzzzzzzzzzzzzzzzzzzzzzzzzzzzzzzzzzzzzzzzzzzzzzzzzzzzzzz
(PID.TID 0000.0001) //     65 yyyyyyyyyyyyyyyyyyyyyyyyyyyyyyyyyyyyyyyyyyyyyzzzzzzzzzzzzzzzzzzzzzzzzzzzzzzz
(PID.TID 0000.0001) //     64 xxxxxyyyyyyyyyyyyyyyyyyyyyyyyyyyyyyyyyyyyyyyyyyyyyyyyyyyyyyyyyyyyyyyyyyyyyyy
(PID.TID 0000.0001) //     63 xxxxxxxxxxxxxxxxxxxxxxxxxxxxyyyyyyyyyyyyyyyyyyyyyyyyyyyyyyyyyyyyyyyyyyyyyyyy
(PID.TID 0000.0001) //     62 xxxxxxxxxxxxxxxxxxxxxxxxxxxxxxxxxxxxxxxxxxxxxxxxxxxxxxxxyyyyyyyyyyyyyyyyyyyy
(PID.TID 0000.0001) //     61 wwwwwwwwwwwwwxxxxxxxxxxxxxxxxxxxxxxxxxxxxxxxxxxxxxxxxxxxxxxxxxxxxxxxxxxxxxxx
(PID.TID 0000.0001) //     60 wwwwwwwwwwwwwwwwwwwwwwwwwwwwwwwwwwwwwxxxxxxxxxxxxxxxxxxxxxxxxxxxxxxxx.......
(PID.TID 0000.0001) //     59 wwwwwwwwwwwwwwwwwwwwwwwwwwwwwwwwwwwwwwwwwwwwwwwwwwwwwwwwwwwwwwwwwwwxx.......
(PID.TID 0000.0001) //     58 vvvvvvvvvvvvvvvvvvvvwwwwwwwwwwwwwwwwwwwwwwwwwwwwwwwwwwwwwwwwwwwwwwwww.......
(PID.TID 0000.0001) //     57 vvvvvvvvvvvvvvvvvvvvvvvvvvvvvvvvvvvvvvvvvvvvvvwwwwwwwwwwwwwwwwwwwwwww.......
(PID.TID 0000.0001) //     56 uuuuuvvvvvvvvvvvvvvvvvvvvvvvvvvvvvvvvvvvvvvvvvvvvvvvvvvvvvvvvvvvvvvvv.......
(PID.TID 0000.0001) //     55 uuuuuuuuuuuuuuuuuuuuuuuuuuuvvvvvvvvvvvvvvvvvvvvvvvvvvvvvvvvvvvvvvvvvv.......
(PID.TID 0000.0001) //     54 uuuuuuuuuuuuuuuuuuuuuuuuuuuuuuuuuuuuuuuuuuuuuuuuuuuuuuvvvvvvvvvvvvvvv.......
(PID.TID 0000.0001) //     53 tttttttttttuuuuuuuuuuuuuuuuuuuuuuuuuuuuuuuuuuuuuuuuuuuuuuuuuuuuuuuuuu.......
(PID.TID 0000.0001) //     52 ttttttttttttttttttttttttttttttttttuuuuuuuuuuuuuuuuuuuuuuuuuuuuuuuuuuu.......
(PID.TID 0000.0001) //     51 tttttttttttttttttttttttttttttttttttttttttttttttttttttttttttttttuuuuuu.......
(PID.TID 0000.0001) //     50 ssssssssssssssssttttttttttttttttttttttttttttttttttttttttttttttttttttt.......
(PID.TID 0000.0001) //     49 ssssssssssssssssssssssssssssssssssssssssstttttttttttttttttttttttttttt.......
(PID.TID 0000.0001) //     48 sssssssssssssssssssssssssssssssssssssssssssssssssssssssssssssssssssss.......
(PID.TID 0000.0001) //     47 rrrrrrrrrrrrrrrrrrrrrrsssssssssssssssssssssssssssssssssssssssssssssss.......
(PID.TID 0000.0001) //     46 rrrrrrrrrrrrrrrrrrrrrrrrrrrrrrrrrrrrrrrrrrrrrrrrsssssssssssssssssssss.......
(PID.TID 0000.0001) //     45 qqqqqrrrrrrrrrrrrrrrrrrrrrrrrrrrrrrrrrrrrrrrrrrrrrrrrrrrrrrrrrrrrrrrr.......
(PID.TID 0000.0001) //     44 qqqqqqqqqqqqqqqqqqqqqqqqqqqrrrrrrrrrrrrrrrrrrrrrrrrrrrrrrrrrrrrrrrrrr.......
(PID.TID 0000.0001) //     43 qqqqqqqqqqqqqqqqqqqqqqqqqqqqqqqqqqqqqqqqqqqqqqqqqqqqqqqrrrrrrrrrrrrrr.......
(PID.TID 0000.0001) //     42 pppppppppqqqqqqqqqqqqqqqqqqqqqqqqqqqqqqqqqqqqqqqqqqqqqqqqqqqqqqqqqqqq.......
(PID.TID 0000.0001) //     41 ppppppppppppppppppppppppppppppppqqqqqqqqqqqqqqqqqqqqqqqqqqqqqqqqqqqqq.......
(PID.TID 0000.0001) //     40 pppppppppppppppppppppppppppppppppppppppppppppppppppppppppppppqqqqqqqq.......
(PID.TID 0000.0001) //     39 ooooooooooooopppppppppppppppppppppppppppppppppppppppppppppppppppppppp.......
(PID.TID 0000.0001) //     38 ooooooooooooooooooooooooooooooooooooopppppppppppppppppppppppppppppppp.......
(PID.TID 0000.0001) //     37 ooooooooooooooooooooooooooooooooooooooooooooooooooooooooooooooooooopp.......
(PID.TID 0000.0001) //     36 nnnnnnnnnnnnnnnnnoooooooooooooooooooooooooooooooooooooooooooooooooooo.......
(PID.TID 0000.0001) //     35 nnnnnnnnnnnnnnnnnnnnnnnnnnnnnnnnnnnnnnnnnoooooooooooooooooooooooooooo.......
(PID.TID 0000.0001) //     34 nnnnnnnnnnnnnnnnnnnnnnnnnnnnnnnnnnnnnnnnnnnnnnnnnnnnnnnnnnnnnnnnnnnnn.......
(PID.TID 0000.0001) //     33 mmmmmmmmmmmmmmmmmmmmnnnnnnnnnnnnnnnnnnnnnnnnnnnnnnnnnnnnnnnnnnnnnnnnn.......
(PID.TID 0000.0001) //     32 mmmmmmmmmmmmmmmmmmmmmmmmmmmmmmmmmmmmmmmmmmmmmnnnnnnnnnnnnnnnnnnnnnnnn.......
(PID.TID 0000.0001) //     31 lmmmmmmmmmmmmmmmmmmmmmmmmmmmmmmmmmmmmmmmmmmmmmmmmmmmmmmmmmmmmmmmmmmmm.......
(PID.TID 0000.0001) //     30 lllllllllllllllllllllllmmmmmmmmmmmmmmmmmmmmmmmmmmmmmmmmmmmmmmmmmmmmmm.......
(PID.TID 0000.0001) //     29 llllllllllllllllllllllllllllllllllllllllllllllllmmmmmmmmmmmmmmmmmmmmm.......
(PID.TID 0000.0001) //     28 kkkllllllllllllllllllllllllllllllllllllllllllllllllllllllllllllllllll.......
(PID.TID 0000.0001) //     27 kkkkkkkkkkkkkkkkkkkkkkkkkllllllllllllllllllllllllllllllllllllllllllll.......
(PID.TID 0000.0001) //     26 kkkkkkkkkkkkkkkkkkkkkkkkkkkkkkkkkkkkkkkkkkkkkkkkkkkllllllllllllllllll.......
(PID.TID 0000.0001) //     25 jjjjjkkkkkkkkkkkkkkkkkkkkkkkkkkkkkkkkkkkkkkkkkkkkkkkkkkkkkkkkkkkkkkkk.......
(PID.TID 0000.0001) //     24 jjjjjjjjjjjjjjjjjjjjjjjjjjjkkkkkkkkkkkkkkkkkkkkkkkkkkkkkkkkkkkkkkkkkk.......
(PID.TID 0000.0001) //     23 jjjjjjjjjjjjjjjjjjjjjjjjjjjjjjjjjjjjjjjjjjjjjjjjjjjjjkkkkkkkkkkkkkkkk.......
(PID.TID 0000.0001) //     22 iiiiiijjjjjjjjjjjjjjjjjjjjjjjjjjjjjjjjjjjjjjjjjjjjjjjjjjjjjjjjjjjjjjj.......
(PID.TID 0000.0001) //     21 iiiiiiiiiiiiiiiiiiiiiiiiiiiijjjjjjjjjjjjjjjjjjjjjjjjjjjjjjjjjjjjjjjjj.......
(PID.TID 0000.0001) //     20 iiiiiiiiiiiiiiiiiiiiiiiiiiiiiiiiiiiiiiiiiiiiiiiiiiiiiijjjjjjjjjjjjjjj.......
(PID.TID 0000.0001) //     19 hhhhhhiiiiiiiiiiiiiiiiiiiiiiiiiiiiiiiiiiiiiiiiiiiiiiiiiiiiiiiiiiiiiii.......
(PID.TID 0000.0001) //     18 hhhhhhhhhhhhhhhhhhhhhhhhhhhhiiiiiiiiiiiiiiiiiiiiiiiiiiiiiiiiiiiiiiiii.......
(PID.TID 0000.0001) //     17 hhhhhhhhhhhhhhhhhhhhhhhhhhhhhhhhhhhhhhhhhhhhhhhhhhhhhhhiiiiiiiiiiiiii.......
(PID.TID 0000.0001) //     16 gggggghhhhhhhhhhhhhhhhhhhhhhhhhhhhhhhhhhhhhhhhhhhhhhhhhhhhhhhhhhhhhhh.......
(PID.TID 0000.0001) //     15 gggggggggggggggggggggggggggghhhhhhhhhhhhhhhhhhhhhhhhhhhhhhhhhhhhhhhhh.......
(PID.TID 0000.0001) //     14 ggggggggggggggggggggggggggggggggggggggggggggggggggggggghhhhhhhhhhhhhh.......
(PID.TID 0000.0001) //     13 ffffffggggggggggggggggggggggggggggggggggggggggggggggggggggggggggggggg.......
(PID.TID 0000.0001) //     12 ffffffffffffffffffffffffffffggggggggggggggggggggggggggggggggggggggggg.......
(PID.TID 0000.0001) //     11 ffffffffffffffffffffffffffffffffffffffffffffffffffffffggggggggggggggg.......
(PID.TID 0000.0001) //     10 eeeeeffffffffffffffffffffffffffffffffffffffffffffffffffffffffffffffff.......
(PID.TID 0000.0001) //      9 eeeeeeeeeeeeeeeeeeeeeeeeeeeffffffffffffffffffffffffffffffffffffffffff.......
(PID.TID 0000.0001) //      8 eeeeeeeeeeeeeeeeeeeeeeeeeeeeeeeeeeeeeeeeeeeeeeeeeeeefffffffffffffffff.......
(PID.TID 0000.0001) //      7 dddeeeeeeeeeeeeeeeeeeeeeeeeeeeeeeeeeeeeeeeeeeeeeeeeeeeeeeeeeeeeeeeeee.......
(PID.TID 0000.0001) //      6 dddddddddddddddddddddddddeeeeeeeeeeeeeeeeeeeeeeeeeeeeeeeeeeeeeeeeeeee.......
(PID.TID 0000.0001) //      5 ddddddddddddddddddddddddddddddddddddddddddddddddddeeeeeeeeeeeeeeeeeee.......
(PID.TID 0000.0001) //      4 ccddddddddddddddddddddddddddddddddddddddddddddddddddddddddddddddddddd.......
(PID.TID 0000.0001) //      3 ccccccccccccccccccccccddddddddddddddddddddddddddddddddddddddddddddddd.......
(PID.TID 0000.0001) //      2 cccccccccccccccccccccccccccccccccccccccccccccccdddddddddddddddddddddd.......
(PID.TID 0000.0001) //      1 ccccccccccccccccccccccccccccccccccccccccccccccccccccccccccccccccccccc.......
(PID.TID 0000.0001) //      0 bbbbbbbb....................................................................
(PID.TID 0000.0001) //     -1 bbbbbbbb....................................................................
(PID.TID 0000.0001) //     -2 bbbbbbbb....................................................................
(PID.TID 0000.0001) //     -3 aaaaaaaa....................................................................
(PID.TID 0000.0001) //     -4 aaaaaaaa....................................................................
(PID.TID 0000.0001) //     -5 aaaaaaaa....................................................................
(PID.TID 0000.0001) //     -6 --------....................................................................
(PID.TID 0000.0001) //     -7 --------....................................................................
(PID.TID 0000.0001) // =======================================================
(PID.TID 0000.0001) // END OF FIELD                                          =
(PID.TID 0000.0001) // =======================================================
(PID.TID 0000.0001) 
(PID.TID 0000.0001) // =======================================================
(PID.TID 0000.0001) // Field Current xG       at iteration          0
(PID.TID 0000.0001) // CMIN =         -4.106404718661182E+01
(PID.TID 0000.0001) // CMAX =         -3.307460070743610E+01
(PID.TID 0000.0001) // CINT =          2.959054251546560E-01
(PID.TID 0000.0001) // SYMBOLS (CMIN->CMAX): -abcdefghijklmnopqrstuvwxyz+
(PID.TID 0000.0001) //                  0.0: .
(PID.TID 0000.0001) // RANGE I (Lo:Hi:Step):(    -7:    68:     1)
(PID.TID 0000.0001) // RANGE J (Lo:Hi:Step):(    68:    -7:    -1)
(PID.TID 0000.0001) // RANGE K (Lo:Hi:Step):(   1:   1:   1)
(PID.TID 0000.0001) // =======================================================
(PID.TID 0000.0001) K =   1
(PID.TID 0000.0001) //                I=2       I=12      I=22      I=32      I=42      I=52      I=62
(PID.TID 0000.0001) // |--J--|765432101|345678901|345678901|345678901|345678901|345678901|345678901|345678
(PID.TID 0000.0001) //     68 ddeeefffgggghhhiiijjjkkkklllmmmnnnnooopppqqqrrrrssstttuuuuvvvwwwxxxyyyyzzz++
(PID.TID 0000.0001) //     67 ddeeefffgggghhhiiijjjjkkklllmmmnnnnooopppqqqqrrrssstttuuuuvvvwwwxxxyyyyzzz++
(PID.TID 0000.0001) //     66 ddeeeffffggghhhiiijjjjkkklllmmmmnnnooopppqqqqrrrssstttuuuuvvvwwwxxxyyyyzzz++
(PID.TID 0000.0001) //     65 ddeeeffffggghhhiiiijjjkkklllmmmmnnnooopppqqqqrrrsssttttuuuvvvwwwxxxxyyyzzz++
(PID.TID 0000.0001) //     64 ddeeeefffggghhhiiiijjjkkklllmmmmnnnoooppppqqqrrrsssttttuuuvvvwwwxxxxyyyzzz++
(PID.TID 0000.0001) //     63 ddeeeefffggghhhhiiijjjkkkllllmmmnnnoooppppqqqrrrsssttttuuuvvvwwwxxxxyyyzzz++
(PID.TID 0000.0001) //     62 dddeeefffggghhhhiiijjjkkkllllmmmnnnoooopppqqqrrrsssstttuuuvvvwwwwxxxyyyzzz++
(PID.TID 0000.0001) //     61 dddeeefffgggghhhiiijjjkkkklllmmmnnnoooopppqqqrrrsssstttuuuvvvwwwwxxxyyyzzz++
(PID.TID 0000.0001) //     60 dddeeefffgggghhhiiijjjkkkklllmmmnnnoooopppqqqrrrrssstttuuuvvvvwwwxxxy.......
(PID.TID 0000.0001) //     59 dddeeeffffggghhhiiijjjjkkklllmmmnnnnooopppqqqrrrrssstttuuuvvvvwwwxxxy.......
(PID.TID 0000.0001) //     58 dddeeeffffggghhhiiijjjjkkklllmmmnnnnooopppqqqrrrrssstttuuuvvvvwwwxxxy.......
(PID.TID 0000.0001) //     57 dddeeeefffggghhhiiiijjjkkklllmmmmnnnooopppqqqqrrrssstttuuuuvvvwwwxxxy.......
(PID.TID 0000.0001) //     56 dddeeeefffggghhhiiiijjjkkklllmmmmnnnooopppqqqqrrrssstttuuuuvvvwwwxxxy.......
(PID.TID 0000.0001) //     55 ddddeeefffggghhhhiiijjjkkkllllmmmnnnoooppppqqqrrrsssttttuuuvvvwwwxxxy.......
(PID.TID 0000.0001) //     54 ddddeeefffggghhhhiiijjjkkkllllmmmnnnoooppppqqqrrrsssttttuuuvvvwwwxxxx.......
(PID.TID 0000.0001) //     53 cdddeeefffgggghhhiiijjjkkkklllmmmnnnoooopppqqqrrrsssttttuuuvvvwwwxxxx.......
(PID.TID 0000.0001) //     52 cdddeeeffffggghhhiiijjjkkkklllmmmnnnoooopppqqqrrrsssstttuuuvvvwwwwxxx.......
(PID.TID 0000.0001) //     51 cdddeeeffffggghhhiiijjjjkkklllmmmnnnnooopppqqqrrrsssstttuuuvvvwwwwxxx.......
(PID.TID 0000.0001) //     50 cdddeeeefffggghhhiiiijjjkkklllmmmnnnnooopppqqqrrrrssstttuuuvvvwwwwxxx.......
(PID.TID 0000.0001) //     49 cdddeeeefffggghhhiiiijjjkkklllmmmmnnnooopppqqqrrrrssstttuuuvvvvwwwxxx.......
(PID.TID 0000.0001) //     48 cddddeeefffggghhhhiiijjjkkklllmmmmnnnooopppqqqqrrrssstttuuuvvvvwwwxxx.......
(PID.TID 0000.0001) //     47 ccdddeeefffggghhhhiiijjjkkkllllmmmnnnooopppqqqqrrrssstttuuuuvvvwwwxxx.......
(PID.TID 0000.0001) //     46 ccdddeeefffgggghhhiiijjjkkkklllmmmnnnoooppppqqqrrrssstttuuuuvvvwwwxxx.......
(PID.TID 0000.0001) //     45 ccdddeeeffffggghhhiiijjjkkkklllmmmnnnoooopppqqqrrrsssttttuuuvvvwwwxxx.......
(PID.TID 0000.0001) //     44 ccdddeeeffffggghhhiiijjjjkkklllmmmnnnoooopppqqqrrrsssttttuuuvvvwwwxxx.......
(PID.TID 0000.0001) //     43 ccdddeeeefffggghhhiiiijjjkkklllmmmnnnnooopppqqqrrrsssstttuuuvvvwwwxxx.......
(PID.TID 0000.0001) //     42 ccddddeeefffggghhhiiiijjjkkklllmmmnnnnooopppqqqrrrrssstttuuuvvvwwwxxx.......
(PID.TID 0000.0001) //     41 cccdddeeefffggghhhhiiijjjkkklllmmmmnnnooopppqqqrrrrssstttuuuvvvwwwwxx.......
(PID.TID 0000.0001) //     40 cccdddeeefffgggghhhiiijjjkkkllllmmmnnnooopppqqqqrrrssstttuuuvvvvwwwxx.......
(PID.TID 0000.0001) //     39 cccdddeeefffgggghhhiiijjjkkkllllmmmnnnooopppqqqqrrrssstttuuuvvvvwwwxx.......
(PID.TID 0000.0001) //     38 cccdddeeeffffggghhhiiijjjkkkklllmmmnnnoooppppqqqrrrssstttuuuuvvvwwwxx.......
(PID.TID 0000.0001) //     37 cccdddeeeefffggghhhiiijjjjkkklllmmmnnnoooopppqqqrrrssstttuuuuvvvwwwxx.......
(PID.TID 0000.0001) //     36 cccddddeeefffggghhhiiiijjjkkklllmmmnnnoooopppqqqrrrsssttttuuuvvvwwwxx.......
(PID.TID 0000.0001) //     35 ccccdddeeefffggghhhiiiijjjkkklllmmmnnnnooopppqqqrrrsssstttuuuvvvwwwxx.......
(PID.TID 0000.0001) //     34 ccccdddeeefffggghhhhiiijjjkkklllmmmmnnnooopppqqqrrrsssstttuuuvvvwwwxx.......
(PID.TID 0000.0001) //     33 bcccdddeeefffgggghhhiiijjjkkkllllmmmnnnooopppqqqrrrrssstttuuuvvvwwwxx.......
(PID.TID 0000.0001) //     32 bcccdddeeeffffggghhhiiijjjkkkllllmmmnnnooopppqqqqrrrssstttuuuvvvwwwwx.......
(PID.TID 0000.0001) //     31 bcccdddeeeefffggghhhiiijjjkkkklllmmmnnnooopppqqqqrrrssstttuuuvvvwwwwx.......
(PID.TID 0000.0001) //     30 bcccddddeeefffggghhhiiijjjjkkklllmmmnnnoooppppqqqrrrssstttuuuvvvvwwwx.......
(PID.TID 0000.0001) //     29 bccccdddeeefffggghhhiiiijjjkkklllmmmnnnoooopppqqqrrrssstttuuuuvvvwwwx.......
(PID.TID 0000.0001) //     28 bbcccdddeeefffggghhhhiiijjjkkklllmmmnnnnooopppqqqrrrssstttuuuuvvvwwwx.......
(PID.TID 0000.0001) //     27 bbcccdddeeefffgggghhhiiijjjkkklllmmmmnnnooopppqqqrrrsssttttuuuvvvwwwx.......
(PID.TID 0000.0001) //     26 bbcccdddeeeffffggghhhiiijjjkkkllllmmmnnnooopppqqqrrrsssstttuuuvvvwwwx.......
(PID.TID 0000.0001) //     25 bbcccdddeeeefffggghhhiiijjjkkkklllmmmnnnooopppqqqrrrrssstttuuuvvvwwwx.......
(PID.TID 0000.0001) //     24 bbcccddddeeefffggghhhiiijjjjkkklllmmmnnnooopppqqqqrrrssstttuuuvvvwwwx.......
(PID.TID 0000.0001) //     23 bbccccdddeeefffggghhhiiiijjjkkklllmmmnnnoooppppqqqrrrssstttuuuvvvwwwx.......
(PID.TID 0000.0001) //     22 bbbcccdddeeefffggghhhhiiijjjkkklllmmmnnnoooopppqqqrrrssstttuuuvvvwwww.......
(PID.TID 0000.0001) //     21 bbbcccdddeeefffgggghhhiiijjjkkklllmmmnnnnooopppqqqrrrssstttuuuvvvvwww.......
(PID.TID 0000.0001) //     20 bbbcccdddeeeffffggghhhiiijjjkkklllmmmmnnnooopppqqqrrrssstttuuuuvvvwww.......
(PID.TID 0000.0001) //     19 bbbcccdddeeeefffggghhhiiijjjkkkllllmmmnnnooopppqqqrrrsssttttuuuvvvwww.......
(PID.TID 0000.0001) //     18 bbbccccdddeeefffggghhhiiijjjkkkklllmmmnnnooopppqqqrrrsssstttuuuvvvwww.......
(PID.TID 0000.0001) //     17 bbbbcccdddeeefffggghhhiiiijjjkkklllmmmnnnooopppqqqrrrrssstttuuuvvvwww.......
(PID.TID 0000.0001) //     16 abbbcccdddeeefffggghhhhiiijjjkkklllmmmnnnoooppppqqqrrrssstttuuuvvvwww.......
(PID.TID 0000.0001) //     15 abbbcccdddeeefffgggghhhiiijjjkkklllmmmnnnoooopppqqqrrrssstttuuuvvvwww.......
(PID.TID 0000.0001) //     14 abbbcccdddeeeefffggghhhiiijjjkkklllmmmnnnnooopppqqqrrrssstttuuuvvvwww.......
(PID.TID 0000.0001) //     13 abbbcccddddeeefffggghhhiiijjjkkkllllmmmnnnooopppqqqrrrssstttuuuvvvvww.......
(PID.TID 0000.0001) //     12 abbbbcccdddeeefffggghhhiiijjjkkkklllmmmnnnooopppqqqrrrssstttuuuuvvvww.......
(PID.TID 0000.0001) //     11 aabbbcccdddeeefffggghhhiiiijjjkkklllmmmnnnooopppqqqrrrsssstttuuuvvvww.......
(PID.TID 0000.0001) //     10 aabbbcccdddeeefffggghhhhiiijjjkkklllmmmnnnooopppqqqrrrrssstttuuuvvvww.......
(PID.TID 0000.0001) //      9 aabbbcccdddeeeffffggghhhiiijjjkkklllmmmnnnoooppppqqqrrrssstttuuuvvvww.......
(PID.TID 0000.0001) //      8 aabbbcccddddeeefffggghhhiiijjjkkklllmmmnnnoooopppqqqrrrssstttuuuvvvww.......
(PID.TID 0000.0001) //      7 aabbbccccdddeeefffggghhhiiijjjkkklllmmmmnnnooopppqqqrrrssstttuuuvvvww.......
(PID.TID 0000.0001) //      6 aaabbbcccdddeeefffggghhhiiijjjkkkklllmmmnnnooopppqqqrrrssstttuuuvvvww.......
(PID.TID 0000.0001) //      5 aaabbbcccdddeeefffggghhhiiiijjjkkklllmmmnnnooopppqqqrrrssstttuuuvvvvw.......
(PID.TID 0000.0001) //      4 aaabbbcccdddeeefffgggghhhiiijjjkkklllmmmnnnooopppqqqrrrsssttttuuuvvvw.......
(PID.TID 0000.0001) //      3 aaabbbcccdddeeeefffggghhhiiijjjkkklllmmmnnnooopppqqqrrrrssstttuuuvvvw.......
(PID.TID 0000.0001) //      2 aaabbbccccdddeeefffggghhhiiijjjkkklllmmmnnnoooppppqqqrrrssstttuuuvvvw.......
(PID.TID 0000.0001) //      1 -aaabbbcccdddeeefffggghhhiiijjjkkklllmmmmnnnooopppqqqrrrssstttuuuvvvw.......
(PID.TID 0000.0001) //      0 -aaabbbc....................................................................
(PID.TID 0000.0001) //     -1 -aaabbbc....................................................................
(PID.TID 0000.0001) //     -2 -aaabbbc....................................................................
(PID.TID 0000.0001) //     -3 -aaabbbb....................................................................
(PID.TID 0000.0001) //     -4 --aaabbb....................................................................
(PID.TID 0000.0001) //     -5 --aaabbb....................................................................
(PID.TID 0000.0001) //     -6 --aaabbb....................................................................
(PID.TID 0000.0001) //     -7 --aaabbb....................................................................
(PID.TID 0000.0001) // =======================================================
(PID.TID 0000.0001) // END OF FIELD                                          =
(PID.TID 0000.0001) // =======================================================
(PID.TID 0000.0001) 
(PID.TID 0000.0001) // =======================================================
(PID.TID 0000.0001) // Field Current yG       at iteration          0
(PID.TID 0000.0001) // CMIN =         -8.012546081142466E+01
(PID.TID 0000.0001) // CMAX =         -7.790393413737817E+01
(PID.TID 0000.0001) // CINT =          8.227876570542544E-02
(PID.TID 0000.0001) // SYMBOLS (CMIN->CMAX): -abcdefghijklmnopqrstuvwxyz+
(PID.TID 0000.0001) //                  0.0: .
(PID.TID 0000.0001) // RANGE I (Lo:Hi:Step):(    -7:    68:     1)
(PID.TID 0000.0001) // RANGE J (Lo:Hi:Step):(    68:    -7:    -1)
(PID.TID 0000.0001) // RANGE K (Lo:Hi:Step):(   1:   1:   1)
(PID.TID 0000.0001) // =======================================================
(PID.TID 0000.0001) K =   1
(PID.TID 0000.0001) //                I=2       I=12      I=22      I=32      I=42      I=52      I=62
(PID.TID 0000.0001) // |--J--|765432101|345678901|345678901|345678901|345678901|345678901|345678901|345678
(PID.TID 0000.0001) //     68 +++++++++++++++++++++++++++++zzzzzzzzzzzzzzzzzzzzzzzzzzzzzzzzzzzzzzzzzzzzzzz
(PID.TID 0000.0001) //     67 +++++++zzzzzzzzzzzzzzzzzzzzzzzzzzzzzzzzzzzzzzzzzzzzzzzzzzzzzzzzzzzzzzzzzzzzy
(PID.TID 0000.0001) //     66 zzzzzzzzzzzzzzzzzzzzzzzzzzzzzzzzzzzzzzzzzzzzzyyyyyyyyyyyyyyyyyyyyyyyyyyyyyyy
(PID.TID 0000.0001) //     65 zzzzzzzzzzzzzzzzzzzzzyyyyyyyyyyyyyyyyyyyyyyyyyyyyyyyyyyyyyyyyyyyyyyyyyyyyyyy
(PID.TID 0000.0001) //     64 zyyyyyyyyyyyyyyyyyyyyyyyyyyyyyyyyyyyyyyyyyyyyyyyyyyyyyyyyyyyyyyxxxxxxxxxxxxx
(PID.TID 0000.0001) //     63 yyyyyyyyyyyyyyyyyyyyyyyyyyyyyyyyyyyyxxxxxxxxxxxxxxxxxxxxxxxxxxxxxxxxxxxxxxxx
(PID.TID 0000.0001) //     62 yyyyyyyyyyyyyyxxxxxxxxxxxxxxxxxxxxxxxxxxxxxxxxxxxxxxxxxxxxxxxxxxxxxxxxxxxxxx
(PID.TID 0000.0001) //     61 xxxxxxxxxxxxxxxxxxxxxxxxxxxxxxxxxxxxxxxxxxxxxxxxxxxxxwwwwwwwwwwwwwwwwwwwwwww
(PID.TID 0000.0001) //     60 xxxxxxxxxxxxxxxxxxxxxxxxxxxxwwwwwwwwwwwwwwwwwwwwwwwwwwwwwwwwwwwwwwwww.......
(PID.TID 0000.0001) //     59 xxxxxxxwwwwwwwwwwwwwwwwwwwwwwwwwwwwwwwwwwwwwwwwwwwwwwwwwwwwwwwwwwwwww.......
(PID.TID 0000.0001) //     58 wwwwwwwwwwwwwwwwwwwwwwwwwwwwwwwwwwwwwwwwwwwwvvvvvvvvvvvvvvvvvvvvvvvvv.......
(PID.TID 0000.0001) //     57 wwwwwwwwwwwwwwwwwwwwwvvvvvvvvvvvvvvvvvvvvvvvvvvvvvvvvvvvvvvvvvvvvvvvv.......
(PID.TID 0000.0001) //     56 wwvvvvvvvvvvvvvvvvvvvvvvvvvvvvvvvvvvvvvvvvvvvvvvvvvvvvvvvvvvvvuuuuuuu.......
(PID.TID 0000.0001) //     55 vvvvvvvvvvvvvvvvvvvvvvvvvvvvvvvvvvvvuuuuuuuuuuuuuuuuuuuuuuuuuuuuuuuuu.......
(PID.TID 0000.0001) //     54 vvvvvvvvvvvvvvvuuuuuuuuuuuuuuuuuuuuuuuuuuuuuuuuuuuuuuuuuuuuuuuuuuuuuu.......
(PID.TID 0000.0001) //     53 uuuuuuuuuuuuuuuuuuuuuuuuuuuuuuuuuuuuuuuuuuuuuuuuuuuuutttttttttttttttt.......
(PID.TID 0000.0001) //     52 uuuuuuuuuuuuuuuuuuuuuuuuuuuuutttttttttttttttttttttttttttttttttttttttt.......
(PID.TID 0000.0001) //     51 uuuuuuuuutttttttttttttttttttttttttttttttttttttttttttttttttttttttttttt.......
(PID.TID 0000.0001) //     50 tttttttttttttttttttttttttttttttttttttttttttttssssssssssssssssssssssss.......
(PID.TID 0000.0001) //     49 tttttttttttttttttttttttssssssssssssssssssssssssssssssssssssssssssssss.......
(PID.TID 0000.0001) //     48 tttssssssssssssssssssssssssssssssssssssssssssssssssssssssssssssrrrrrr.......
(PID.TID 0000.0001) //     47 ssssssssssssssssssssssssssssssssssssssrrrrrrrrrrrrrrrrrrrrrrrrrrrrrrr.......
(PID.TID 0000.0001) //     46 sssssssssssssssssrrrrrrrrrrrrrrrrrrrrrrrrrrrrrrrrrrrrrrrrrrrrrrrrrrrr.......
(PID.TID 0000.0001) //     45 rrrrrrrrrrrrrrrrrrrrrrrrrrrrrrrrrrrrrrrrrrrrrrrrrrrrrrqqqqqqqqqqqqqqq.......
(PID.TID 0000.0001) //     44 rrrrrrrrrrrrrrrrrrrrrrrrrrrrrrrqqqqqqqqqqqqqqqqqqqqqqqqqqqqqqqqqqqqqq.......
(PID.TID 0000.0001) //     43 rrrrrrrrrrrqqqqqqqqqqqqqqqqqqqqqqqqqqqqqqqqqqqqqqqqqqqqqqqqqqqqqqqqqq.......
(PID.TID 0000.0001) //     42 qqqqqqqqqqqqqqqqqqqqqqqqqqqqqqqqqqqqqqqqqqqqqqqpppppppppppppppppppppp.......
(PID.TID 0000.0001) //     41 qqqqqqqqqqqqqqqqqqqqqqqqqpppppppppppppppppppppppppppppppppppppppppppp.......
(PID.TID 0000.0001) //     40 qqqqqqpppppppppppppppppppppppppppppppppppppppppppppppppppppppppppoooo.......
(PID.TID 0000.0001) //     39 ppppppppppppppppppppppppppppppppppppppppooooooooooooooooooooooooooooo.......
(PID.TID 0000.0001) //     38 ppppppppppppppppppppooooooooooooooooooooooooooooooooooooooooooooooooo.......
(PID.TID 0000.0001) //     37 ppooooooooooooooooooooooooooooooooooooooooooooooooooooooonnnnnnnnnnnn.......
(PID.TID 0000.0001) //     36 oooooooooooooooooooooooooooooooooonnnnnnnnnnnnnnnnnnnnnnnnnnnnnnnnnnn.......
(PID.TID 0000.0001) //     35 ooooooooooooooonnnnnnnnnnnnnnnnnnnnnnnnnnnnnnnnnnnnnnnnnnnnnnnnnnnnnn.......
(PID.TID 0000.0001) //     34 nnnnnnnnnnnnnnnnnnnnnnnnnnnnnnnnnnnnnnnnnnnnnnnnnnmmmmmmmmmmmmmmmmmmm.......
(PID.TID 0000.0001) //     33 nnnnnnnnnnnnnnnnnnnnnnnnnnnnnmmmmmmmmmmmmmmmmmmmmmmmmmmmmmmmmmmmmmmmm.......
(PID.TID 0000.0001) //     32 nnnnnnnnnnmmmmmmmmmmmmmmmmmmmmmmmmmmmmmmmmmmmmmmmmmmmmmmmmmmmmmmmmmmm.......
(PID.TID 0000.0001) //     31 mmmmmmmmmmmmmmmmmmmmmmmmmmmmmmmmmmmmmmmmmmmmlllllllllllllllllllllllll.......
(PID.TID 0000.0001) //     30 mmmmmmmmmmmmmmmmmmmmmmmmlllllllllllllllllllllllllllllllllllllllllllll.......
(PID.TID 0000.0001) //     29 mmmmmmlllllllllllllllllllllllllllllllllllllllllllllllllllllllkkkkkkkk.......
(PID.TID 0000.0001) //     28 llllllllllllllllllllllllllllllllllllllkkkkkkkkkkkkkkkkkkkkkkkkkkkkkkk.......
(PID.TID 0000.0001) //     27 lllllllllllllllllllkkkkkkkkkkkkkkkkkkkkkkkkkkkkkkkkkkkkkkkkkkkkkkkkkk.......
(PID.TID 0000.0001) //     26 llkkkkkkkkkkkkkkkkkkkkkkkkkkkkkkkkkkkkkkkkkkkkkkkkkkkkkjjjjjjjjjjjjjj.......
(PID.TID 0000.0001) //     25 kkkkkkkkkkkkkkkkkkkkkkkkkkkkkkkkkjjjjjjjjjjjjjjjjjjjjjjjjjjjjjjjjjjjj.......
(PID.TID 0000.0001) //     24 kkkkkkkkkkkkkkkjjjjjjjjjjjjjjjjjjjjjjjjjjjjjjjjjjjjjjjjjjjjjjjjjjjjjj.......
(PID.TID 0000.0001) //     23 jjjjjjjjjjjjjjjjjjjjjjjjjjjjjjjjjjjjjjjjjjjjjjjjjiiiiiiiiiiiiiiiiiiii.......
(PID.TID 0000.0001) //     22 jjjjjjjjjjjjjjjjjjjjjjjjjjjjjiiiiiiiiiiiiiiiiiiiiiiiiiiiiiiiiiiiiiiii.......
(PID.TID 0000.0001) //     21 jjjjjjjjjjjiiiiiiiiiiiiiiiiiiiiiiiiiiiiiiiiiiiiiiiiiiiiiiiiiiiiiiiihh.......
(PID.TID 0000.0001) //     20 iiiiiiiiiiiiiiiiiiiiiiiiiiiiiiiiiiiiiiiiiiiihhhhhhhhhhhhhhhhhhhhhhhhh.......
(PID.TID 0000.0001) //     19 iiiiiiiiiiiiiiiiiiiiiiiiihhhhhhhhhhhhhhhhhhhhhhhhhhhhhhhhhhhhhhhhhhhh.......
(PID.TID 0000.0001) //     18 iiiiiiiihhhhhhhhhhhhhhhhhhhhhhhhhhhhhhhhhhhhhhhhhhhhhhhhhhhhhgggggggg.......
(PID.TID 0000.0001) //     17 hhhhhhhhhhhhhhhhhhhhhhhhhhhhhhhhhhhhhhhgggggggggggggggggggggggggggggg.......
(PID.TID 0000.0001) //     16 hhhhhhhhhhhhhhhhhhhhhgggggggggggggggggggggggggggggggggggggggggggggggg.......
(PID.TID 0000.0001) //     15 hhhhgggggggggggggggggggggggggggggggggggggggggggggggggggffffffffffffff.......
(PID.TID 0000.0001) //     14 gggggggggggggggggggggggggggggggggggffffffffffffffffffffffffffffffffff.......
(PID.TID 0000.0001) //     13 gggggggggggggggggffffffffffffffffffffffffffffffffffffffffffffffffffff.......
(PID.TID 0000.0001) //     12 gfffffffffffffffffffffffffffffffffffffffffffffffffeeeeeeeeeeeeeeeeeee.......
(PID.TID 0000.0001) //     11 fffffffffffffffffffffffffffffffeeeeeeeeeeeeeeeeeeeeeeeeeeeeeeeeeeeeee.......
(PID.TID 0000.0001) //     10 ffffffffffffffeeeeeeeeeeeeeeeeeeeeeeeeeeeeeeeeeeeeeeeeeeeeeeeeeeeeeed.......
(PID.TID 0000.0001) //      9 eeeeeeeeeeeeeeeeeeeeeeeeeeeeeeeeeeeeeeeeeeeeeeddddddddddddddddddddddd.......
(PID.TID 0000.0001) //      8 eeeeeeeeeeeeeeeeeeeeeeeeeeedddddddddddddddddddddddddddddddddddddddddd.......
(PID.TID 0000.0001) //      7 eeeeeeeeeeeddddddddddddddddddddddddddddddddddddddddddddddddddddcccccc.......
(PID.TID 0000.0001) //      6 ddddddddddddddddddddddddddddddddddddddddddccccccccccccccccccccccccccc.......
(PID.TID 0000.0001) //      5 ddddddddddddddddddddddddccccccccccccccccccccccccccccccccccccccccccccc.......
(PID.TID 0000.0001) //      4 ddddddddccccccccccccccccccccccccccccccccccccccccccccccccccbbbbbbbbbbb.......
(PID.TID 0000.0001) //      3 ccccccccccccccccccccccccccccccccccccccbbbbbbbbbbbbbbbbbbbbbbbbbbbbbbb.......
(PID.TID 0000.0001) //      2 cccccccccccccccccccccbbbbbbbbbbbbbbbbbbbbbbbbbbbbbbbbbbbbbbbbbbbbbbbb.......
(PID.TID 0000.0001) //      1 ccccccbbbbbbbbbbbbbbbbbbbbbbbbbbbbbbbbbbbbbbbbbbbbbbbbaaaaaaaaaaaaaaa.......
(PID.TID 0000.0001) //      0 bbbbbbbb....................................................................
(PID.TID 0000.0001) //     -1 bbbbbbbb....................................................................
(PID.TID 0000.0001) //     -2 bbbbaaaa....................................................................
(PID.TID 0000.0001) //     -3 aaaaaaaa....................................................................
(PID.TID 0000.0001) //     -4 aaaaaaaa....................................................................
(PID.TID 0000.0001) //     -5 aa------....................................................................
(PID.TID 0000.0001) //     -6 --------....................................................................
(PID.TID 0000.0001) //     -7 --------....................................................................
(PID.TID 0000.0001) // =======================================================
(PID.TID 0000.0001) // END OF FIELD                                          =
(PID.TID 0000.0001) // =======================================================
(PID.TID 0000.0001) 
(PID.TID 0000.0001) // =======================================================
(PID.TID 0000.0001) // Field Current dxV      at iteration          0
(PID.TID 0000.0001) // CMIN =          1.857259106182155E+03
(PID.TID 0000.0001) // CMAX =          3.225676153711524E+03
(PID.TID 0000.0001) // CINT =          5.068211287145812E+01
(PID.TID 0000.0001) // SYMBOLS (CMIN->CMAX): -abcdefghijklmnopqrstuvwxyz+
(PID.TID 0000.0001) //                  0.0: .
(PID.TID 0000.0001) // RANGE I (Lo:Hi:Step):(    -7:    68:     1)
(PID.TID 0000.0001) // RANGE J (Lo:Hi:Step):(    68:    -7:    -1)
(PID.TID 0000.0001) // RANGE K (Lo:Hi:Step):(   1:   1:   1)
(PID.TID 0000.0001) // =======================================================
(PID.TID 0000.0001) K =   1
(PID.TID 0000.0001) //                I=2       I=12      I=22      I=32      I=42      I=52      I=62
(PID.TID 0000.0001) // |--J--|765432101|345678901|345678901|345678901|345678901|345678901|345678901|345678
(PID.TID 0000.0001) //     68 eeeeeeeeeeeeeeeeeeeeeeeeeeeeeeeeeeeeeeeeeeeeeeeeeeeeeeeeeeeeeeeeeeeeeeeeeeee
(PID.TID 0000.0001) //     67 eeeeeeeeeeeeeeeeeeeeeeeeeeeeeeeeeeeeeeeeeeeeeeeeeeeeeeeeeeeeeeeeeeeeeeeeeeee
(PID.TID 0000.0001) //     66 eeeeeeeeeeeeeeeeeeeeeeeeeeeeeeeeeeeeeeeeeeeeeeeeeeeeeeeeeeeeeeeeeeeeeeeeeeee
(PID.TID 0000.0001) //     65 eeeeeeeeeeeeeeeeeeeeeeeeeeeeeeeeeeeeeeeeeeeeeeeeeeeeeeeeeeeeeeeeeeeedddddddd
(PID.TID 0000.0001) //     64 eeeeeeeeeeeeeeeeeeeddddddddddddddddddddddddddddddddddddddddddddddddddddddddd
(PID.TID 0000.0001) //     63 dddddddddddddddddddddddddddddddddddddddddddddddddddddddddddddddddddddddddddd
(PID.TID 0000.0001) //     62 dddddddddddddddddddddddddddddddddddddddddddddddddddddddddddddddddddddddddddd
(PID.TID 0000.0001) //     61 dddddddddddddddddddddddddddddddddddddddddddddddddddddddddddddddddddddddddddd
(PID.TID 0000.0001) //     60 ddddddddddddddddddddddddddddddddddddddddddddddddddddddddddddddddddddd.......
(PID.TID 0000.0001) //     59 ddddddddddddddddddddddddddddddddddddddddddddddddddddddddddddddddddddd.......
(PID.TID 0000.0001) //     58 ddddddddddddddddddddddddddddddddddddddddddddddddddddddddddddddddddddd.......
(PID.TID 0000.0001) //     57 ddddddddddddddddddddddddddddddddddddddddddddddddddddddddddddddddddddd.......
(PID.TID 0000.0001) //     56 ddddddddddddddddddddddddddddddddddddddddddddddddddddddddddddddddddddd.......
(PID.TID 0000.0001) //     55 ddddddddddddddddddddddddddddddddddddddddddddddddddddddddddddddddddddd.......
(PID.TID 0000.0001) //     54 ddddddddddddddddddddddddddddddddddddddddddddddddddddddddddddddddddddd.......
(PID.TID 0000.0001) //     53 ddddddddddddddddddddddddddddddddddddddddddddddddddddddddddddddddddddd.......
(PID.TID 0000.0001) //     52 ddddddddddddddddddddddddddddddddddddddddddddddddddddddddddddddddddddd.......
(PID.TID 0000.0001) //     51 ddddddddddddddddddddddddddddddddddddddddddddddddddddddddddddddddddddd.......
(PID.TID 0000.0001) //     50 ddddddddddddddddddddddddddddddddddddddddccccccccccccccccccccccccccccc.......
(PID.TID 0000.0001) //     49 ccccccccccccccccccccccccccccccccccccccccccccccccccccccccccccccccccccc.......
(PID.TID 0000.0001) //     48 ccccccccccccccccccccccccccccccccccccccccccccccccccccccccccccccccccccc.......
(PID.TID 0000.0001) //     47 ccccccccccccccccccccccccccccccccccccccccccccccccccccccccccccccccccccc.......
(PID.TID 0000.0001) //     46 ccccccccccccccccccccccccccccccccccccccccccccccccccccccccccccccccccccc.......
(PID.TID 0000.0001) //     45 ccccccccccccccccccccccccccccccccccccccccccccccccccccccccccccccccccccc.......
(PID.TID 0000.0001) //     44 ccccccccccccccccccccccccccccccccccccccccccccccccccccccccccccccccccccc.......
(PID.TID 0000.0001) //     43 ccccccccccccccccccccccccccccccccccccccccccccccccccccccccccccccccccccc.......
(PID.TID 0000.0001) //     42 ccccccccccccccccccccccccccccccccccccccccccccccccccccccccccccccccccccc.......
(PID.TID 0000.0001) //     41 ccccccccccccccccccccccccccccccccccccccccccccccccccccccccccccccccccccc.......
(PID.TID 0000.0001) //     40 ccccccccccccccccccccccccccccccccccccccccccccccccccccccccccccccccccccc.......
(PID.TID 0000.0001) //     39 ccccccccccccccccccccccccccccccccccccccccccccccccccccccccccccccccccccc.......
(PID.TID 0000.0001) //     38 ccccccccccccccccccccccccccccccccccccccccccccccccccccccccccccccccccccc.......
(PID.TID 0000.0001) //     37 ccccccccccccccccccccccccccccccccccccccccccccccccccccccccccccccccccccc.......
(PID.TID 0000.0001) //     36 ccccccccccccccccccccccccccccccccccccccccccccccccccccccccccccccccccccc.......
(PID.TID 0000.0001) //     35 ccccccccccccccccccccccccccccccccccccccccbbbbbbbbbbbbbbbbbbbbbbbbbbbbb.......
(PID.TID 0000.0001) //     34 bbbbbbbbbbbbbbbbbbbbbbbbbbbbbbbbbbbbbbbbbbbbbbbbbbbbbbbbbbbbbbbbbbbbb.......
(PID.TID 0000.0001) //     33 bbbbbbbbbbbbbbbbbbbbbbbbbbbbbbbbbbbbbbbbbbbbbbbbbbbbbbbbbbbbbbbbbbbbb.......
(PID.TID 0000.0001) //     32 bbbbbbbbbbbbbbbbbbbbbbbbbbbbbbbbbbbbbbbbbbbbbbbbbbbbbbbbbbbbbbbbbbbbb.......
(PID.TID 0000.0001) //     31 bbbbbbbbbbbbbbbbbbbbbbbbbbbbbbbbbbbbbbbbbbbbbbbbbbbbbbbbbbbbbbbbbbbbb.......
(PID.TID 0000.0001) //     30 bbbbbbbbbbbbbbbbbbbbbbbbbbbbbbbbbbbbbbbbbbbbbbbbbbbbbbbbbbbbbbbbbbbbb.......
(PID.TID 0000.0001) //     29 bbbbbbbbbbbbbbbbbbbbbbbbbbbbbbbbbbbbbbbbbbbbbbbbbbbbbbbbbbbbbbbbbbbbb.......
(PID.TID 0000.0001) //     28 bbbbbbbbbbbbbbbbbbbbbbbbbbbbbbbbbbbbbbbbbbbbbbbbbbbbbbbbbbbbbbbbbbbbb.......
(PID.TID 0000.0001) //     27 bbbbbbbbbbbbbbbbbbbbbbbbbbbbbbbbbbbbbbbbbbbbbbbbbbbbbbbbbbbbbbbbbbbbb.......
(PID.TID 0000.0001) //     26 bbbbbbbbbbbbbbbbbbbbbbbbbbbbbbbbbbbbbbbbbbbbbbbbbbbbbbbbbbbbbbbbbbbbb.......
(PID.TID 0000.0001) //     25 bbbbbbbbbbbbbbbbbbbbbbbbbbbbbbbbbbbbbbbbbbbbbbbbbbbbbbbbbbbbbbbbbbbbb.......
(PID.TID 0000.0001) //     24 bbbbbbbbbbbbbbbbbbbbbbbbbbbbbbbbbbbbbbbbbbbbbbbbbbbbbbbbbbbbbbbbbbbbb.......
(PID.TID 0000.0001) //     23 bbbbbbbbbbbbbbbbbbbbbbbbbbbbbbbbbbbbbbbbbbbbbbbbbbbbbbbbbbbbbbbbbbbbb.......
(PID.TID 0000.0001) //     22 bbbbbbbbbbbbbbbbbbbbbbbbbbbbbbbbbbbbbbbbbbbbbbbbbbbbbbbbbbbbbbbbbbbbb.......
(PID.TID 0000.0001) //     21 bbbbbbbbbbbbbbbbbbbbbbbbbbbbbbbbbbbbbbbbbbbbbbbbbbbbbbbbbbbbbbbbbbbbb.......
(PID.TID 0000.0001) //     20 bbbbbbbbbbbbbbbbbbbbbbbbbbbbbbbbbbbbbbbbbbbbbbbbbbbbbbbbbbbbbbbbbbbbb.......
(PID.TID 0000.0001) //     19 bbbbbbbbbbbbbbbbbbbbbaaaaaaaaaaaaaaaaaaaaaaaaaaaaaaaaaaaaaaaaaaaaaaaa.......
(PID.TID 0000.0001) //     18 aaaaaaaaaaaaaaaaaaaaaaaaaaaaaaaaaaaaaaaaaaaaaaaaaaaaaaaaaaaaaaaaaaaaa.......
(PID.TID 0000.0001) //     17 aaaaaaaaaaaaaaaaaaaaaaaaaaaaaaaaaaaaaaaaaaaaaaaaaaaaaaaaaaaaaaaaaaaaa.......
(PID.TID 0000.0001) //     16 aaaaaaaaaaaaaaaaaaaaaaaaaaaaaaaaaaaaaaaaaaaaaaaaaaaaaaaaaaaaaaaaaaaaa.......
(PID.TID 0000.0001) //     15 aaaaaaaaaaaaaaaaaaaaaaaaaaaaaaaaaaaaaaaaaaaaaaaaaaaaaaaaaaaaaaaaaaaaa.......
(PID.TID 0000.0001) //     14 aaaaaaaaaaaaaaaaaaaaaaaaaaaaaaaaaaaaaaaaaaaaaaaaaaaaaaaaaaaaaaaaaaaaa.......
(PID.TID 0000.0001) //     13 aaaaaaaaaaaaaaaaaaaaaaaaaaaaaaaaaaaaaaaaaaaaaaaaaaaaaaaaaaaaaaaaaaaaa.......
(PID.TID 0000.0001) //     12 aaaaaaaaaaaaaaaaaaaaaaaaaaaaaaaaaaaaaaaaaaaaaaaaaaaaaaaaaaaaaaaaaaaaa.......
(PID.TID 0000.0001) //     11 aaaaaaaaaaaaaaaaaaaaaaaaaaaaaaaaaaaaaaaaaaaaaaaaaaaaaaaaaaaaaaaaaaaaa.......
(PID.TID 0000.0001) //     10 aaaaaaaaaaaaaaaaaaaaaaaaaaaaaaaaaaaaaaaaaaaaaaaaaaaaaaaaaaaaaaaaaaaaa.......
(PID.TID 0000.0001) //      9 aaaaaaaaaaaaaaaaaaaaaaaaaaaaaaaaaaaaaaaaaaaaaaaaaaaaaaaaaaaaaaaaaaaaa.......
(PID.TID 0000.0001) //      8 aaaaaaaaaaaaaaaaaaaaaaaaaaaaaaaaaaaaaaaaaaaaaaaaaaaaaaaaaaaaaaaaaaaaa.......
(PID.TID 0000.0001) //      7 aaaaaaaaaaaaaaaaaaaaaaaaaaaaaaaaaaaaaaaaaaaaaaaaaaaaaaaaaaaaaaaaaaaaa.......
(PID.TID 0000.0001) //      6 aaaaaaaaaaaaaaaaaaaaaaaaaaaaaaaaaaaaaaaaaaaaaaaaaaaaaaaaaaaaaaaaaaaaa.......
(PID.TID 0000.0001) //      5 aaaaaaaaaaaaaaaaaaaaaaaaaaaaaaaaaaaaaaaaaaaaaaaaaaaaaaaaaaaaaaaaaaaaa.......
(PID.TID 0000.0001) //      4 aaaaaaaaaaaaaaaaaaaaaaaaaaaaaaaaaaaaaaaaaaaaaaaaaaaaaaaaaaaaaaaaaaaaa.......
(PID.TID 0000.0001) //      3 aaaaaaaaaaaaaaaaaaaaaaaaaaaaaaaaa------------------------------------.......
(PID.TID 0000.0001) //      2 ---------------------------------------------------------------------.......
(PID.TID 0000.0001) //      1 ---------------------------------------------------------------------.......
(PID.TID 0000.0001) //      0 --------....................................................................
(PID.TID 0000.0001) //     -1 --------....................................................................
(PID.TID 0000.0001) //     -2 --------....................................................................
(PID.TID 0000.0001) //     -3 --------....................................................................
(PID.TID 0000.0001) //     -4 --------....................................................................
(PID.TID 0000.0001) //     -5 --------....................................................................
(PID.TID 0000.0001) //     -6 --------....................................................................
(PID.TID 0000.0001) //     -7 ++++++++....................................................................
(PID.TID 0000.0001) // =======================================================
(PID.TID 0000.0001) // END OF FIELD                                          =
(PID.TID 0000.0001) // =======================================================
(PID.TID 0000.0001) 
(PID.TID 0000.0001) // =======================================================
(PID.TID 0000.0001) // Field Current dyU      at iteration          0
(PID.TID 0000.0001) // CMIN =          1.857259106182155E+03
(PID.TID 0000.0001) // CMAX =          3.479895528879635E+03
(PID.TID 0000.0001) // CINT =          6.009764528509183E+01
(PID.TID 0000.0001) // SYMBOLS (CMIN->CMAX): -abcdefghijklmnopqrstuvwxyz+
(PID.TID 0000.0001) //                  0.0: .
(PID.TID 0000.0001) // RANGE I (Lo:Hi:Step):(    -7:    68:     1)
(PID.TID 0000.0001) // RANGE J (Lo:Hi:Step):(    68:    -7:    -1)
(PID.TID 0000.0001) // RANGE K (Lo:Hi:Step):(   1:   1:   1)
(PID.TID 0000.0001) // =======================================================
(PID.TID 0000.0001) K =   1
(PID.TID 0000.0001) //                I=2       I=12      I=22      I=32      I=42      I=52      I=62
(PID.TID 0000.0001) // |--J--|765432101|345678901|345678901|345678901|345678901|345678901|345678901|345678
(PID.TID 0000.0001) //     68 zzzzzzzz++++++++++++++++++++++++++++++++++++++++++++++++++++++++++++++++++++
(PID.TID 0000.0001) //     67 zzzzzzzzzzzzzz++++++++++++++++++++++++++++++++++++++++++++++++++++++++++++++
(PID.TID 0000.0001) //     66 zzzzzzzzzzzzzzzzzzz+++++++++++++++++++++++++++++++++++++++++++++++++++++++++
(PID.TID 0000.0001) //     65 zzzzzzzzzzzzzzzzzzzzzzzzz+++++++++++++++++++++++++++++++++++++++++++++++++++
(PID.TID 0000.0001) //     64 zzzzzzzzzzzzzzzzzzzzzzzzzzzzzzz+++++++++++++++++++++++++++++++++++++++++++++
(PID.TID 0000.0001) //     63 zzzzzzzzzzzzzzzzzzzzzzzzzzzzzzzzzzzzz+++++++++++++++++++++++++++++++++++++++
(PID.TID 0000.0001) //     62 zzzzzzzzzzzzzzzzzzzzzzzzzzzzzzzzzzzzzzzzzzzz++++++++++++++++++++++++++++++++
(PID.TID 0000.0001) //     61 zzzzzzzzzzzzzzzzzzzzzzzzzzzzzzzzzzzzzzzzzzzzzzzzzzz+++++++++++++++++++++++++
(PID.TID 0000.0001) //     60 zzzzzzzzzzzzzzzzzzzzzzzzzzzzzzzzzzzzzzzzzzzzzzzzzzzzzzzzzzz++++++++++.......
(PID.TID 0000.0001) //     59 zzzzzzzzzzzzzzzzzzzzzzzzzzzzzzzzzzzzzzzzzzzzzzzzzzzzzzzzzzzzzzzzzzz++.......
(PID.TID 0000.0001) //     58 zzzzzzzzzzzzzzzzzzzzzzzzzzzzzzzzzzzzzzzzzzzzzzzzzzzzzzzzzzzzzzzzzzzzz.......
(PID.TID 0000.0001) //     57 zzzzzzzzzzzzzzzzzzzzzzzzzzzzzzzzzzzzzzzzzzzzzzzzzzzzzzzzzzzzzzzzzzzzz.......
(PID.TID 0000.0001) //     56 zzzzzzzzzzzzzzzzzzzzzzzzzzzzzzzzzzzzzzzzzzzzzzzzzzzzzzzzzzzzzzzzzzzzz.......
(PID.TID 0000.0001) //     55 zzzzzzzzzzzzzzzzzzzzzzzzzzzzzzzzzzzzzzzzzzzzzzzzzzzzzzzzzzzzzzzzzzzzz.......
(PID.TID 0000.0001) //     54 zzzzzzzzzzzzzzzzzzzzzzzzzzzzzzzzzzzzzzzzzzzzzzzzzzzzzzzzzzzzzzzzzzzzz.......
(PID.TID 0000.0001) //     53 zzzzzzzzzzzzzzzzzzzzzzzzzzzzzzzzzzzzzzzzzzzzzzzzzzzzzzzzzzzzzzzzzzzzz.......
(PID.TID 0000.0001) //     52 zzzzzzzzzzzzzzzzzzzzzzzzzzzzzzzzzzzzzzzzzzzzzzzzzzzzzzzzzzzzzzzzzzzzz.......
(PID.TID 0000.0001) //     51 zzzzzzzzzzzzzzzzzzzzzzzzzzzzzzzzzzzzzzzzzzzzzzzzzzzzzzzzzzzzzzzzzzzzz.......
(PID.TID 0000.0001) //     50 zzzzzzzzzzzzzzzzzzzzzzzzzzzzzzzzzzzzzzzzzzzzzzzzzzzzzzzzzzzzzzzzzzzzz.......
(PID.TID 0000.0001) //     49 yyzzzzzzzzzzzzzzzzzzzzzzzzzzzzzzzzzzzzzzzzzzzzzzzzzzzzzzzzzzzzzzzzzzz.......
(PID.TID 0000.0001) //     48 yyyyyyyyzzzzzzzzzzzzzzzzzzzzzzzzzzzzzzzzzzzzzzzzzzzzzzzzzzzzzzzzzzzzz.......
(PID.TID 0000.0001) //     47 yyyyyyyyyyyyyzzzzzzzzzzzzzzzzzzzzzzzzzzzzzzzzzzzzzzzzzzzzzzzzzzzzzzzz.......
(PID.TID 0000.0001) //     46 yyyyyyyyyyyyyyyyyyyzzzzzzzzzzzzzzzzzzzzzzzzzzzzzzzzzzzzzzzzzzzzzzzzzz.......
(PID.TID 0000.0001) //     45 yyyyyyyyyyyyyyyyyyyyyyyyyzzzzzzzzzzzzzzzzzzzzzzzzzzzzzzzzzzzzzzzzzzzz.......
(PID.TID 0000.0001) //     44 yyyyyyyyyyyyyyyyyyyyyyyyyyyyyyyzzzzzzzzzzzzzzzzzzzzzzzzzzzzzzzzzzzzzz.......
(PID.TID 0000.0001) //     43 yyyyyyyyyyyyyyyyyyyyyyyyyyyyyyyyyyyyyzzzzzzzzzzzzzzzzzzzzzzzzzzzzzzzz.......
(PID.TID 0000.0001) //     42 yyyyyyyyyyyyyyyyyyyyyyyyyyyyyyyyyyyyyyyyyyyyzzzzzzzzzzzzzzzzzzzzzzzzz.......
(PID.TID 0000.0001) //     41 yyyyyyyyyyyyyyyyyyyyyyyyyyyyyyyyyyyyyyyyyyyyyyyyyyyzzzzzzzzzzzzzzzzzz.......
(PID.TID 0000.0001) //     40 yyyyyyyyyyyyyyyyyyyyyyyyyyyyyyyyyyyyyyyyyyyyyyyyyyyyyyyyyyyzzzzzzzzzz.......
(PID.TID 0000.0001) //     39 yyyyyyyyyyyyyyyyyyyyyyyyyyyyyyyyyyyyyyyyyyyyyyyyyyyyyyyyyyyyyyyyyyyyz.......
(PID.TID 0000.0001) //     38 yyyyyyyyyyyyyyyyyyyyyyyyyyyyyyyyyyyyyyyyyyyyyyyyyyyyyyyyyyyyyyyyyyyyy.......
(PID.TID 0000.0001) //     37 yyyyyyyyyyyyyyyyyyyyyyyyyyyyyyyyyyyyyyyyyyyyyyyyyyyyyyyyyyyyyyyyyyyyy.......
(PID.TID 0000.0001) //     36 yyyyyyyyyyyyyyyyyyyyyyyyyyyyyyyyyyyyyyyyyyyyyyyyyyyyyyyyyyyyyyyyyyyyy.......
(PID.TID 0000.0001) //     35 yyyyyyyyyyyyyyyyyyyyyyyyyyyyyyyyyyyyyyyyyyyyyyyyyyyyyyyyyyyyyyyyyyyyy.......
(PID.TID 0000.0001) //     34 yyyyyyyyyyyyyyyyyyyyyyyyyyyyyyyyyyyyyyyyyyyyyyyyyyyyyyyyyyyyyyyyyyyyy.......
(PID.TID 0000.0001) //     33 yyyyyyyyyyyyyyyyyyyyyyyyyyyyyyyyyyyyyyyyyyyyyyyyyyyyyyyyyyyyyyyyyyyyy.......
(PID.TID 0000.0001) //     32 yyyyyyyyyyyyyyyyyyyyyyyyyyyyyyyyyyyyyyyyyyyyyyyyyyyyyyyyyyyyyyyyyyyyy.......
(PID.TID 0000.0001) //     31 yyyyyyyyyyyyyyyyyyyyyyyyyyyyyyyyyyyyyyyyyyyyyyyyyyyyyyyyyyyyyyyyyyyyy.......
(PID.TID 0000.0001) //     30 yyyyyyyyyyyyyyyyyyyyyyyyyyyyyyyyyyyyyyyyyyyyyyyyyyyyyyyyyyyyyyyyyyyyy.......
(PID.TID 0000.0001) //     29 xxxyyyyyyyyyyyyyyyyyyyyyyyyyyyyyyyyyyyyyyyyyyyyyyyyyyyyyyyyyyyyyyyyyy.......
(PID.TID 0000.0001) //     28 xxxxxxxxyyyyyyyyyyyyyyyyyyyyyyyyyyyyyyyyyyyyyyyyyyyyyyyyyyyyyyyyyyyyy.......
(PID.TID 0000.0001) //     27 xxxxxxxxxxxxxxyyyyyyyyyyyyyyyyyyyyyyyyyyyyyyyyyyyyyyyyyyyyyyyyyyyyyyy.......
(PID.TID 0000.0001) //     26 xxxxxxxxxxxxxxxxxxxyyyyyyyyyyyyyyyyyyyyyyyyyyyyyyyyyyyyyyyyyyyyyyyyyy.......
(PID.TID 0000.0001) //     25 xxxxxxxxxxxxxxxxxxxxxxxxxyyyyyyyyyyyyyyyyyyyyyyyyyyyyyyyyyyyyyyyyyyyy.......
(PID.TID 0000.0001) //     24 xxxxxxxxxxxxxxxxxxxxxxxxxxxxxxxxyyyyyyyyyyyyyyyyyyyyyyyyyyyyyyyyyyyyy.......
(PID.TID 0000.0001) //     23 xxxxxxxxxxxxxxxxxxxxxxxxxxxxxxxxxxxxxxyyyyyyyyyyyyyyyyyyyyyyyyyyyyyyy.......
(PID.TID 0000.0001) //     22 xxxxxxxxxxxxxxxxxxxxxxxxxxxxxxxxxxxxxxxxxxxxxyyyyyyyyyyyyyyyyyyyyyyyy.......
(PID.TID 0000.0001) //     21 xxxxxxxxxxxxxxxxxxxxxxxxxxxxxxxxxxxxxxxxxxxxxxxxxxxxxyyyyyyyyyyyyyyyy.......
(PID.TID 0000.0001) //     20 xxxxxxxxxxxxxxxxxxxxxxxxxxxxxxxxxxxxxxxxxxxxxxxxxxxxxxxxxxxxxyyyyyyyy.......
(PID.TID 0000.0001) //     19 xxxxxxxxxxxxxxxxxxxxxxxxxxxxxxxxxxxxxxxxxxxxxxxxxxxxxxxxxxxxxxxxxxxxx.......
(PID.TID 0000.0001) //     18 xxxxxxxxxxxxxxxxxxxxxxxxxxxxxxxxxxxxxxxxxxxxxxxxxxxxxxxxxxxxxxxxxxxxx.......
(PID.TID 0000.0001) //     17 xxxxxxxxxxxxxxxxxxxxxxxxxxxxxxxxxxxxxxxxxxxxxxxxxxxxxxxxxxxxxxxxxxxxx.......
(PID.TID 0000.0001) //     16 xxxxxxxxxxxxxxxxxxxxxxxxxxxxxxxxxxxxxxxxxxxxxxxxxxxxxxxxxxxxxxxxxxxxx.......
(PID.TID 0000.0001) //     15 xxxxxxxxxxxxxxxxxxxxxxxxxxxxxxxxxxxxxxxxxxxxxxxxxxxxxxxxxxxxxxxxxxxxx.......
(PID.TID 0000.0001) //     14 xxxxxxxxxxxxxxxxxxxxxxxxxxxxxxxxxxxxxxxxxxxxxxxxxxxxxxxxxxxxxxxxxxxxx.......
(PID.TID 0000.0001) //     13 xxxxxxxxxxxxxxxxxxxxxxxxxxxxxxxxxxxxxxxxxxxxxxxxxxxxxxxxxxxxxxxxxxxxx.......
(PID.TID 0000.0001) //     12 xxxxxxxxxxxxxxxxxxxxxxxxxxxxxxxxxxxxxxxxxxxxxxxxxxxxxxxxxxxxxxxxxxxxx.......
(PID.TID 0000.0001) //     11 xxxxxxxxxxxxxxxxxxxxxxxxxxxxxxxxxxxxxxxxxxxxxxxxxxxxxxxxxxxxxxxxxxxxx.......
(PID.TID 0000.0001) //     10 xxxxxxxxxxxxxxxxxxxxxxxxxxxxxxxxxxxxxxxxxxxxxxxxxxxxxxxxxxxxxxxxxxxxx.......
(PID.TID 0000.0001) //      9 wwwwxxxxxxxxxxxxxxxxxxxxxxxxxxxxxxxxxxxxxxxxxxxxxxxxxxxxxxxxxxxxxxxxx.......
(PID.TID 0000.0001) //      8 wwwwwwwwwxxxxxxxxxxxxxxxxxxxxxxxxxxxxxxxxxxxxxxxxxxxxxxxxxxxxxxxxxxxx.......
(PID.TID 0000.0001) //      7 wwwwwwwwwwwwwwwxxxxxxxxxxxxxxxxxxxxxxxxxxxxxxxxxxxxxxxxxxxxxxxxxxxxxx.......
(PID.TID 0000.0001) //      6 wwwwwwwwwwwwwwwwwwwwwxxxxxxxxxxxxxxxxxxxxxxxxxxxxxxxxxxxxxxxxxxxxxxxx.......
(PID.TID 0000.0001) //      5 wwwwwwwwwwwwwwwwwwwwwwwwwwwxxxxxxxxxxxxxxxxxxxxxxxxxxxxxxxxxxxxxxxxxx.......
(PID.TID 0000.0001) //      4 wwwwwwwwwwwwwwwwwwwwwwwwwwwwwwwwwwxxxxxxxxxxxxxxxxxxxxxxxxxxxxxxxxxxx.......
(PID.TID 0000.0001) //      3 wwwwwwwwwwwwwwwwwwwwwwwwwwwwwwwwwwwwwwwwwxxxxxxxxxxxxxxxxxxxxxxxxxxxx.......
(PID.TID 0000.0001) //      2 wwwwwwwwwwwwwwwwwwwwwwwwwwwwwwwwwwwwwwwwwwwwwwwwxxxxxxxxxxxxxxxxxxxxx.......
(PID.TID 0000.0001) //      1 wwwwwwwwwwwwwwwwwwwwwwwwwwwwwwwwwwwwwwwwwwwwwwwwwwwwwwwwxxxxxxxxxxxxx.......
(PID.TID 0000.0001) //      0 wwwwwwww....................................................................
(PID.TID 0000.0001) //     -1 wwwwwwww....................................................................
(PID.TID 0000.0001) //     -2 wwwwwwww....................................................................
(PID.TID 0000.0001) //     -3 wwwwwwww....................................................................
(PID.TID 0000.0001) //     -4 wwwwwwww....................................................................
(PID.TID 0000.0001) //     -5 wwwwwwww....................................................................
(PID.TID 0000.0001) //     -6 wwwwwwww....................................................................
(PID.TID 0000.0001) //     -7 --------....................................................................
(PID.TID 0000.0001) // =======================================================
(PID.TID 0000.0001) // END OF FIELD                                          =
(PID.TID 0000.0001) // =======================================================
(PID.TID 0000.0001) 
(PID.TID 0000.0001) // =======================================================
(PID.TID 0000.0001) // Field Current rAz      at iteration          0
(PID.TID 0000.0001) // CMIN =          5.985387237649631E+06
(PID.TID 0000.0001) // CMAX =          7.292647646075957E+06
(PID.TID 0000.0001) // CINT =          4.841705216393799E+04
(PID.TID 0000.0001) // SYMBOLS (CMIN->CMAX): -abcdefghijklmnopqrstuvwxyz+
(PID.TID 0000.0001) //                  0.0: .
(PID.TID 0000.0001) // RANGE I (Lo:Hi:Step):(    -7:    68:     1)
(PID.TID 0000.0001) // RANGE J (Lo:Hi:Step):(    68:    -7:    -1)
(PID.TID 0000.0001) // RANGE K (Lo:Hi:Step):(   1:   1:   1)
(PID.TID 0000.0001) // =======================================================
(PID.TID 0000.0001) K =   1
(PID.TID 0000.0001) //                I=2       I=12      I=22      I=32      I=42      I=52      I=62
(PID.TID 0000.0001) // |--J--|765432101|345678901|345678901|345678901|345678901|345678901|345678901|345678
(PID.TID 0000.0001) //     68 zzzzzzzzzzzzzzzzzzzzzzzzzzzzzzzzzzzz++++++++++++++++++++++++++++++++++++++++
(PID.TID 0000.0001) //     67 zzzzzzzzzzzzzzzzzzzzzzzzzzzzzzzzzzzzzzzzzzzzzzzzzzzzzzzzzzzzzzzzz+++++++++++
(PID.TID 0000.0001) //     66 yyyyyyyyyyyyyyyyyyyyyzzzzzzzzzzzzzzzzzzzzzzzzzzzzzzzzzzzzzzzzzzzzzzzzzzzzzzz
(PID.TID 0000.0001) //     65 yyyyyyyyyyyyyyyyyyyyyyyyyyyyyyyyyyyyyyyyyyyyyyyzzzzzzzzzzzzzzzzzzzzzzzzzzzzz
(PID.TID 0000.0001) //     64 xxxxxxxyyyyyyyyyyyyyyyyyyyyyyyyyyyyyyyyyyyyyyyyyyyyyyyyyyyyyyyyyyyyyyyyyyyyy
(PID.TID 0000.0001) //     63 xxxxxxxxxxxxxxxxxxxxxxxxxxxxxxyyyyyyyyyyyyyyyyyyyyyyyyyyyyyyyyyyyyyyyyyyyyyy
(PID.TID 0000.0001) //     62 xxxxxxxxxxxxxxxxxxxxxxxxxxxxxxxxxxxxxxxxxxxxxxxxxxxxxxxxxxyyyyyyyyyyyyyyyyyy
(PID.TID 0000.0001) //     61 wwwwwwwwwwwwwwwxxxxxxxxxxxxxxxxxxxxxxxxxxxxxxxxxxxxxxxxxxxxxxxxxxxxxxxxxxxxx
(PID.TID 0000.0001) //     60 wwwwwwwwwwwwwwwwwwwwwwwwwwwwwwwwwwwwwwwwxxxxxxxxxxxxxxxxxxxxxxxxxxxxx.......
(PID.TID 0000.0001) //     59 vwwwwwwwwwwwwwwwwwwwwwwwwwwwwwwwwwwwwwwwwwwwwwwwwwwwwwwwwwwwwwwwwwwww.......
(PID.TID 0000.0001) //     58 vvvvvvvvvvvvvvvvvvvvvvvwwwwwwwwwwwwwwwwwwwwwwwwwwwwwwwwwwwwwwwwwwwwww.......
(PID.TID 0000.0001) //     57 vvvvvvvvvvvvvvvvvvvvvvvvvvvvvvvvvvvvvvvvvvvvvvvvvvwwwwwwwwwwwwwwwwwww.......
(PID.TID 0000.0001) //     56 uuuuuuuuvvvvvvvvvvvvvvvvvvvvvvvvvvvvvvvvvvvvvvvvvvvvvvvvvvvvvvvvvvvvv.......
(PID.TID 0000.0001) //     55 uuuuuuuuuuuuuuuuuuuuuuuuuuuuuuuuvvvvvvvvvvvvvvvvvvvvvvvvvvvvvvvvvvvvv.......
(PID.TID 0000.0001) //     54 uuuuuuuuuuuuuuuuuuuuuuuuuuuuuuuuuuuuuuuuuuuuuuuuuuuuuuuuuuuuvvvvvvvvv.......
(PID.TID 0000.0001) //     53 tttttttttttttttuuuuuuuuuuuuuuuuuuuuuuuuuuuuuuuuuuuuuuuuuuuuuuuuuuuuuu.......
(PID.TID 0000.0001) //     52 ttttttttttttttttttttttttttttttttttttttttuuuuuuuuuuuuuuuuuuuuuuuuuuuuu.......
(PID.TID 0000.0001) //     51 ttttttttttttttttttttttttttttttttttttttttttttttttttttttttttttttttttttt.......
(PID.TID 0000.0001) //     50 ssssssssssssssssssssssttttttttttttttttttttttttttttttttttttttttttttttt.......
(PID.TID 0000.0001) //     49 ssssssssssssssssssssssssssssssssssssssssssssssssttttttttttttttttttttt.......
(PID.TID 0000.0001) //     48 rrrrrrsssssssssssssssssssssssssssssssssssssssssssssssssssssssssssssss.......
(PID.TID 0000.0001) //     47 rrrrrrrrrrrrrrrrrrrrrrrrrrrrrssssssssssssssssssssssssssssssssssssssss.......
(PID.TID 0000.0001) //     46 rrrrrrrrrrrrrrrrrrrrrrrrrrrrrrrrrrrrrrrrrrrrrrrrrrrrrrrrsssssssssssss.......
(PID.TID 0000.0001) //     45 qqqqqqqqqqqqrrrrrrrrrrrrrrrrrrrrrrrrrrrrrrrrrrrrrrrrrrrrrrrrrrrrrrrrr.......
(PID.TID 0000.0001) //     44 qqqqqqqqqqqqqqqqqqqqqqqqqqqqqqqqqqqrrrrrrrrrrrrrrrrrrrrrrrrrrrrrrrrrr.......
(PID.TID 0000.0001) //     43 qqqqqqqqqqqqqqqqqqqqqqqqqqqqqqqqqqqqqqqqqqqqqqqqqqqqqqqqqqqqqqqqrrrrr.......
(PID.TID 0000.0001) //     42 pppppppppppppppppqqqqqqqqqqqqqqqqqqqqqqqqqqqqqqqqqqqqqqqqqqqqqqqqqqqq.......
(PID.TID 0000.0001) //     41 pppppppppppppppppppppppppppppppppppppppppqqqqqqqqqqqqqqqqqqqqqqqqqqqq.......
(PID.TID 0000.0001) //     40 ppppppppppppppppppppppppppppppppppppppppppppppppppppppppppppppppppppp.......
(PID.TID 0000.0001) //     39 ooooooooooooooooooooooppppppppppppppppppppppppppppppppppppppppppppppp.......
(PID.TID 0000.0001) //     38 ooooooooooooooooooooooooooooooooooooooooooooooopppppppppppppppppppppp.......
(PID.TID 0000.0001) //     37 nnnnooooooooooooooooooooooooooooooooooooooooooooooooooooooooooooooooo.......
(PID.TID 0000.0001) //     36 nnnnnnnnnnnnnnnnnnnnnnnnnnooooooooooooooooooooooooooooooooooooooooooo.......
(PID.TID 0000.0001) //     35 nnnnnnnnnnnnnnnnnnnnnnnnnnnnnnnnnnnnnnnnnnnnnnnnnnnnnoooooooooooooooo.......
(PID.TID 0000.0001) //     34 mmmmmmmmnnnnnnnnnnnnnnnnnnnnnnnnnnnnnnnnnnnnnnnnnnnnnnnnnnnnnnnnnnnnn.......
(PID.TID 0000.0001) //     33 mmmmmmmmmmmmmmmmmmmmmmmmmmmmmmmnnnnnnnnnnnnnnnnnnnnnnnnnnnnnnnnnnnnnn.......
(PID.TID 0000.0001) //     32 mmmmmmmmmmmmmmmmmmmmmmmmmmmmmmmmmmmmmmmmmmmmmmmmmmmmmmmmmmnnnnnnnnnnn.......
(PID.TID 0000.0001) //     31 lllllllllllmmmmmmmmmmmmmmmmmmmmmmmmmmmmmmmmmmmmmmmmmmmmmmmmmmmmmmmmmm.......
(PID.TID 0000.0001) //     30 lllllllllllllllllllllllllllllllllllmmmmmmmmmmmmmmmmmmmmmmmmmmmmmmmmmm.......
(PID.TID 0000.0001) //     29 lllllllllllllllllllllllllllllllllllllllllllllllllllllllllllllllmmmmmm.......
(PID.TID 0000.0001) //     28 kkkkkkkkkkkkkklllllllllllllllllllllllllllllllllllllllllllllllllllllll.......
(PID.TID 0000.0001) //     27 kkkkkkkkkkkkkkkkkkkkkkkkkkkkkkkkkkkkkklllllllllllllllllllllllllllllll.......
(PID.TID 0000.0001) //     26 kkkkkkkkkkkkkkkkkkkkkkkkkkkkkkkkkkkkkkkkkkkkkkkkkkkkkkkkkkkkkkkkkkkll.......
(PID.TID 0000.0001) //     25 jjjjjjjjjjjjjjjjjkkkkkkkkkkkkkkkkkkkkkkkkkkkkkkkkkkkkkkkkkkkkkkkkkkkk.......
(PID.TID 0000.0001) //     24 jjjjjjjjjjjjjjjjjjjjjjjjjjjjjjjjjjjjjjjjjkkkkkkkkkkkkkkkkkkkkkkkkkkkk.......
(PID.TID 0000.0001) //     23 jjjjjjjjjjjjjjjjjjjjjjjjjjjjjjjjjjjjjjjjjjjjjjjjjjjjjjjjjjjjjjjjjjjjj.......
(PID.TID 0000.0001) //     22 iiiiiiiiiiiiiiiiiijjjjjjjjjjjjjjjjjjjjjjjjjjjjjjjjjjjjjjjjjjjjjjjjjjj.......
(PID.TID 0000.0001) //     21 iiiiiiiiiiiiiiiiiiiiiiiiiiiiiiiiiiiiiiiiiiijjjjjjjjjjjjjjjjjjjjjjjjjj.......
(PID.TID 0000.0001) //     20 iiiiiiiiiiiiiiiiiiiiiiiiiiiiiiiiiiiiiiiiiiiiiiiiiiiiiiiiiiiiiiiiiiiii.......
(PID.TID 0000.0001) //     19 hhhhhhhhhhhhhhhhhhhhiiiiiiiiiiiiiiiiiiiiiiiiiiiiiiiiiiiiiiiiiiiiiiiii.......
(PID.TID 0000.0001) //     18 hhhhhhhhhhhhhhhhhhhhhhhhhhhhhhhhhhhhhhhhhhhhhiiiiiiiiiiiiiiiiiiiiiiii.......
(PID.TID 0000.0001) //     17 hhhhhhhhhhhhhhhhhhhhhhhhhhhhhhhhhhhhhhhhhhhhhhhhhhhhhhhhhhhhhhhhhhhhh.......
(PID.TID 0000.0001) //     16 ggggggggggggggggggggghhhhhhhhhhhhhhhhhhhhhhhhhhhhhhhhhhhhhhhhhhhhhhhh.......
(PID.TID 0000.0001) //     15 gggggggggggggggggggggggggggggggggggggggggggggghhhhhhhhhhhhhhhhhhhhhhh.......
(PID.TID 0000.0001) //     14 ggggggggggggggggggggggggggggggggggggggggggggggggggggggggggggggggggggg.......
(PID.TID 0000.0001) //     13 fffffffffffffffffffffgggggggggggggggggggggggggggggggggggggggggggggggg.......
(PID.TID 0000.0001) //     12 ffffffffffffffffffffffffffffffffffffffffffffffggggggggggggggggggggggg.......
(PID.TID 0000.0001) //     11 fffffffffffffffffffffffffffffffffffffffffffffffffffffffffffffffffffff.......
(PID.TID 0000.0001) //     10 eeeeeeeeeeeeeeeeeeeeeffffffffffffffffffffffffffffffffffffffffffffffff.......
(PID.TID 0000.0001) //      9 eeeeeeeeeeeeeeeeeeeeeeeeeeeeeeeeeeeeeeeeeeeeeefffffffffffffffffffffff.......
(PID.TID 0000.0001) //      8 eeeeeeeeeeeeeeeeeeeeeeeeeeeeeeeeeeeeeeeeeeeeeeeeeeeeeeeeeeeeeeeeeeeee.......
(PID.TID 0000.0001) //      7 ddddddddddddddddddddeeeeeeeeeeeeeeeeeeeeeeeeeeeeeeeeeeeeeeeeeeeeeeeee.......
(PID.TID 0000.0001) //      6 dddddddddddddddddddddddddddddddddddddddddddddeeeeeeeeeeeeeeeeeeeeeeee.......
(PID.TID 0000.0001) //      5 ddddddddddddddddddddddddddddddddddddddddddddddddddddddddddddddddddddd.......
(PID.TID 0000.0001) //      4 cccccccccccccccccccdddddddddddddddddddddddddddddddddddddddddddddddddd.......
(PID.TID 0000.0001) //      3 cccccccccccccccccccccccccccccccccccccccccccdddddddddddddddddddddddddd.......
(PID.TID 0000.0001) //      2 ccccccccccccccccccccccccccccccccccccccccccccccccccccccccccccccccccccc.......
(PID.TID 0000.0001) //      1 bbbbbbbbbbbbbbbbbcccccccccccccccccccccccccccccccccccccccccccccccccccc.......
(PID.TID 0000.0001) //      0 bbbbbbbb....................................................................
(PID.TID 0000.0001) //     -1 bbbbbbbb....................................................................
(PID.TID 0000.0001) //     -2 aaaaaaaa....................................................................
(PID.TID 0000.0001) //     -3 aaaaaaaa....................................................................
(PID.TID 0000.0001) //     -4 aaaaaaaa....................................................................
(PID.TID 0000.0001) //     -5 --------....................................................................
(PID.TID 0000.0001) //     -6 --------....................................................................
(PID.TID 0000.0001) //     -7 --------....................................................................
(PID.TID 0000.0001) // =======================================================
(PID.TID 0000.0001) // END OF FIELD                                          =
(PID.TID 0000.0001) // =======================================================
(PID.TID 0000.0001) 
(PID.TID 0000.0001) // =======================================================
(PID.TID 0000.0001) // Field Current dxC      at iteration          0
(PID.TID 0000.0001) // CMIN =          1.855769599111000E+03
(PID.TID 0000.0001) // CMAX =          2.103155242849426E+03
(PID.TID 0000.0001) // CINT =          9.162431249571320E+00
(PID.TID 0000.0001) // SYMBOLS (CMIN->CMAX): -abcdefghijklmnopqrstuvwxyz+
(PID.TID 0000.0001) //                  0.0: .
(PID.TID 0000.0001) // RANGE I (Lo:Hi:Step):(    -7:    68:     1)
(PID.TID 0000.0001) // RANGE J (Lo:Hi:Step):(    68:    -7:    -1)
(PID.TID 0000.0001) // RANGE K (Lo:Hi:Step):(   1:   1:   1)
(PID.TID 0000.0001) // =======================================================
(PID.TID 0000.0001) K =   1
(PID.TID 0000.0001) //                I=2       I=12      I=22      I=32      I=42      I=52      I=62
(PID.TID 0000.0001) // |--J--|765432101|345678901|345678901|345678901|345678901|345678901|345678901|345678
(PID.TID 0000.0001) //     68 +++++++++++++++++++++++++++++++++++++++++++++++++++++++++zzzzzzzzzzzzzzzzzzz
(PID.TID 0000.0001) //     67 +++++++++++zzzzzzzzzzzzzzzzzzzzzzzzzzzzzzzzzzzzzzzzzzzzzzzzzzzzzzzzzzzzzzzzz
(PID.TID 0000.0001) //     66 zzzzzzzzzzzzzzzzzzzzzzzzzzzzzzzzzzzzzzzzzzzzzzzzzzzzzzzzzzzzzzzzzzzzzzzzzzzz
(PID.TID 0000.0001) //     65 zzzzzzzzzzzzzzzzzzzzzzzzzzzzzzzzzzyyyyyyyyyyyyyyyyyyyyyyyyyyyyyyyyyyyyyyyyyy
(PID.TID 0000.0001) //     64 yyyyyyyyyyyyyyyyyyyyyyyyyyyyyyyyyyyyyyyyyyyyyyyyyyyyyyyyyyyyyyyyyyyyyyyyyyyy
(PID.TID 0000.0001) //     63 yyyyyyyyyyyyyyyyyyyyyyyyyyyyyyyyyyyyyyyyyyyyyyyyyyyyyyyyyyyyyyyyxxxxxxxxxxxx
(PID.TID 0000.0001) //     62 yyyyyyyyyyyyyyyyxxxxxxxxxxxxxxxxxxxxxxxxxxxxxxxxxxxxxxxxxxxxxxxxxxxxxxxxxxxx
(PID.TID 0000.0001) //     61 xxxxxxxxxxxxxxxxxxxxxxxxxxxxxxxxxxxxxxxxxxxxxxxxxxxxxxxxxxxxxxxxxxxxxxxxxxxx
(PID.TID 0000.0001) //     60 xxxxxxxxxxxxxxxxxxxxxxxxxxxxxxxxxxxxxxxxxxwwwwwwwwwwwwwwwwwwwwwwwwwww.......
(PID.TID 0000.0001) //     59 wwwwwwwwwwwwwwwwwwwwwwwwwwwwwwwwwwwwwwwwwwwwwwwwwwwwwwwwwwwwwwwwwwwww.......
(PID.TID 0000.0001) //     58 wwwwwwwwwwwwwwwwwwwwwwwwwwwwwwwwwwwwwwwwwwwwwwwwwwwwwwwwwwwwwwwwwwwww.......
(PID.TID 0000.0001) //     57 wwwwwwwwwwwwwwwwwwwwwwwwvvvvvvvvvvvvvvvvvvvvvvvvvvvvvvvvvvvvvvvvvvvvv.......
(PID.TID 0000.0001) //     56 vvvvvvvvvvvvvvvvvvvvvvvvvvvvvvvvvvvvvvvvvvvvvvvvvvvvvvvvvvvvvvvvvvvvv.......
(PID.TID 0000.0001) //     55 vvvvvvvvvvvvvvvvvvvvvvvvvvvvvvvvvvvvvvvvvvvvvvvvvvvvvuuuuuuuuuuuuuuuu.......
(PID.TID 0000.0001) //     54 vvvvvvvvvuuuuuuuuuuuuuuuuuuuuuuuuuuuuuuuuuuuuuuuuuuuuuuuuuuuuuuuuuuuu.......
(PID.TID 0000.0001) //     53 uuuuuuuuuuuuuuuuuuuuuuuuuuuuuuuuuuuuuuuuuuuuuuuuuuuuuuuuuuuuuuuuuuuuu.......
(PID.TID 0000.0001) //     52 uuuuuuuuuuuuuuuuuuuuuuuuuuuuuuuuuuutttttttttttttttttttttttttttttttttt.......
(PID.TID 0000.0001) //     51 ttttttttttttttttttttttttttttttttttttttttttttttttttttttttttttttttttttt.......
(PID.TID 0000.0001) //     50 ttttttttttttttttttttttttttttttttttttttttttttttttttttttttttttttttttttt.......
(PID.TID 0000.0001) //     49 ttttttttttttttttttttsssssssssssssssssssssssssssssssssssssssssssssssss.......
(PID.TID 0000.0001) //     48 sssssssssssssssssssssssssssssssssssssssssssssssssssssssssssssssssssss.......
(PID.TID 0000.0001) //     47 sssssssssssssssssssssssssssssssssssssssssssssssssssrrrrrrrrrrrrrrrrrr.......
(PID.TID 0000.0001) //     46 sssssssrrrrrrrrrrrrrrrrrrrrrrrrrrrrrrrrrrrrrrrrrrrrrrrrrrrrrrrrrrrrrr.......
(PID.TID 0000.0001) //     45 rrrrrrrrrrrrrrrrrrrrrrrrrrrrrrrrrrrrrrrrrrrrrrrrrrrrrrrrrrrrrrrrrrrrr.......
(PID.TID 0000.0001) //     44 rrrrrrrrrrrrrrrrrrrrrrrrrrrrrrrrrrrrqqqqqqqqqqqqqqqqqqqqqqqqqqqqqqqqq.......
(PID.TID 0000.0001) //     43 qqqqqqqqqqqqqqqqqqqqqqqqqqqqqqqqqqqqqqqqqqqqqqqqqqqqqqqqqqqqqqqqqqqqq.......
(PID.TID 0000.0001) //     42 qqqqqqqqqqqqqqqqqqqqqqqqqqqqqqqqqqqqqqqqqqqqqqqqqqqqqqqqqqqqqqqqqqqqq.......
(PID.TID 0000.0001) //     41 qqqqqqqqqqqqqqqqqqqqqqqpppppppppppppppppppppppppppppppppppppppppppppp.......
(PID.TID 0000.0001) //     40 ppppppppppppppppppppppppppppppppppppppppppppppppppppppppppppppppppppp.......
(PID.TID 0000.0001) //     39 ppppppppppppppppppppppppppppppppppppppppppppppppppppppppppooooooooooo.......
(PID.TID 0000.0001) //     38 ppppppppppppooooooooooooooooooooooooooooooooooooooooooooooooooooooooo.......
(PID.TID 0000.0001) //     37 ooooooooooooooooooooooooooooooooooooooooooooooooooooooooooooooooooooo.......
(PID.TID 0000.0001) //     36 oooooooooooooooooooooooooooooooooooooooooooonnnnnnnnnnnnnnnnnnnnnnnnn.......
(PID.TID 0000.0001) //     35 oonnnnnnnnnnnnnnnnnnnnnnnnnnnnnnnnnnnnnnnnnnnnnnnnnnnnnnnnnnnnnnnnnnn.......
(PID.TID 0000.0001) //     34 nnnnnnnnnnnnnnnnnnnnnnnnnnnnnnnnnnnnnnnnnnnnnnnnnnnnnnnnnnnnnnnnnnnnn.......
(PID.TID 0000.0001) //     33 nnnnnnnnnnnnnnnnnnnnnnnnnnnnnnnnnmmmmmmmmmmmmmmmmmmmmmmmmmmmmmmmmmmmm.......
(PID.TID 0000.0001) //     32 mmmmmmmmmmmmmmmmmmmmmmmmmmmmmmmmmmmmmmmmmmmmmmmmmmmmmmmmmmmmmmmmmmmmm.......
(PID.TID 0000.0001) //     31 mmmmmmmmmmmmmmmmmmmmmmmmmmmmmmmmmmmmmmmmmmmmmmmmmmmmmmmmmmmmmmmmmmmmm.......
(PID.TID 0000.0001) //     30 mmmmmmmmmmmmmmmmmmmmmmmmlllllllllllllllllllllllllllllllllllllllllllll.......
(PID.TID 0000.0001) //     29 lllllllllllllllllllllllllllllllllllllllllllllllllllllllllllllllllllll.......
(PID.TID 0000.0001) //     28 lllllllllllllllllllllllllllllllllllllllllllllllllllllllllllllllkkkkkk.......
(PID.TID 0000.0001) //     27 llllllllllllllllkkkkkkkkkkkkkkkkkkkkkkkkkkkkkkkkkkkkkkkkkkkkkkkkkkkkk.......
(PID.TID 0000.0001) //     26 kkkkkkkkkkkkkkkkkkkkkkkkkkkkkkkkkkkkkkkkkkkkkkkkkkkkkkkkkkkkkkkkkkkkk.......
(PID.TID 0000.0001) //     25 kkkkkkkkkkkkkkkkkkkkkkkkkkkkkkkkkkkkkkkkkkkkkkkkkkkkkjjjjjjjjjjjjjjjj.......
(PID.TID 0000.0001) //     24 kkkkkkkkkjjjjjjjjjjjjjjjjjjjjjjjjjjjjjjjjjjjjjjjjjjjjjjjjjjjjjjjjjjjj.......
(PID.TID 0000.0001) //     23 jjjjjjjjjjjjjjjjjjjjjjjjjjjjjjjjjjjjjjjjjjjjjjjjjjjjjjjjjjjjjjjjjjjjj.......
(PID.TID 0000.0001) //     22 jjjjjjjjjjjjjjjjjjjjjjjjjjjjjjjjjjjjjjjjjjjjjiiiiiiiiiiiiiiiiiiiiiiii.......
(PID.TID 0000.0001) //     21 jjjiiiiiiiiiiiiiiiiiiiiiiiiiiiiiiiiiiiiiiiiiiiiiiiiiiiiiiiiiiiiiiiiii.......
(PID.TID 0000.0001) //     20 iiiiiiiiiiiiiiiiiiiiiiiiiiiiiiiiiiiiiiiiiiiiiiiiiiiiiiiiiiiiiiiiiiiii.......
(PID.TID 0000.0001) //     19 iiiiiiiiiiiiiiiiiiiiiiiiiiiiiiiiiiiiiihhhhhhhhhhhhhhhhhhhhhhhhhhhhhhh.......
(PID.TID 0000.0001) //     18 hhhhhhhhhhhhhhhhhhhhhhhhhhhhhhhhhhhhhhhhhhhhhhhhhhhhhhhhhhhhhhhhhhhhh.......
(PID.TID 0000.0001) //     17 hhhhhhhhhhhhhhhhhhhhhhhhhhhhhhhhhhhhhhhhhhhhhhhhhhhhhhhhhhhhhhhhhhhhh.......
(PID.TID 0000.0001) //     16 hhhhhhhhhhhhhhhhhhhhhhhhhhhhhhhhhgggggggggggggggggggggggggggggggggggg.......
(PID.TID 0000.0001) //     15 ggggggggggggggggggggggggggggggggggggggggggggggggggggggggggggggggggggg.......
(PID.TID 0000.0001) //     14 ggggggggggggggggggggggggggggggggggggggggggggggggggggggggggggggggggggg.......
(PID.TID 0000.0001) //     13 gggggggggggggggggggggggggggggffffffffffffffffffffffffffffffffffffffff.......
(PID.TID 0000.0001) //     12 fffffffffffffffffffffffffffffffffffffffffffffffffffffffffffffffffffff.......
(PID.TID 0000.0001) //     11 fffffffffffffffffffffffffffffffffffffffffffffffffffffffffffffffffffff.......
(PID.TID 0000.0001) //     10 ffffffffffffffffffffffffffeeeeeeeeeeeeeeeeeeeeeeeeeeeeeeeeeeeeeeeeeee.......
(PID.TID 0000.0001) //      9 eeeeeeeeeeeeeeeeeeeeeeeeeeeeeeeeeeeeeeeeeeeeeeeeeeeeeeeeeeeeeeeeeeeee.......
(PID.TID 0000.0001) //      8 eeeeeeeeeeeeeeeeeeeeeeeeeeeeeeeeeeeeeeeeeeeeeeeeeeeeeeeeeeeeeeeeeeeee.......
(PID.TID 0000.0001) //      7 eeeeeeeeeeeeeeeeeeeeeeeeddddddddddddddddddddddddddddddddddddddddddddd.......
(PID.TID 0000.0001) //      6 ddddddddddddddddddddddddddddddddddddddddddddddddddddddddddddddddddddd.......
(PID.TID 0000.0001) //      5 ddddddddddddddddddddddddddddddddddddddddddddddddddddddddddddddddddddd.......
(PID.TID 0000.0001) //      4 dddddddddddddddddddddddcccccccccccccccccccccccccccccccccccccccccccccc.......
(PID.TID 0000.0001) //      3 ccccccccccccccccccccccccccccccccccccccccccccccccccccccccccccccccccccc.......
(PID.TID 0000.0001) //      2 ccccccccccccccccccccccccccccccccccccccccccccccccccccccccccccccccccccc.......
(PID.TID 0000.0001) //      1 cccccccccccccccccccccccbbbbbbbbbbbbbbbbbbbbbbbbbbbbbbbbbbbbbbbbbbbbbb.......
(PID.TID 0000.0001) //      0 bbbbbbbb....................................................................
(PID.TID 0000.0001) //     -1 bbbbbbbb....................................................................
(PID.TID 0000.0001) //     -2 bbbbbbbb....................................................................
(PID.TID 0000.0001) //     -3 aaaaaaaa....................................................................
(PID.TID 0000.0001) //     -4 aaaaaaaa....................................................................
(PID.TID 0000.0001) //     -5 aaaaaaaa....................................................................
(PID.TID 0000.0001) //     -6 --------....................................................................
(PID.TID 0000.0001) //     -7 --------....................................................................
(PID.TID 0000.0001) // =======================================================
(PID.TID 0000.0001) // END OF FIELD                                          =
(PID.TID 0000.0001) // =======================================================
(PID.TID 0000.0001) 
(PID.TID 0000.0001) // =======================================================
(PID.TID 0000.0001) // Field Current dyC      at iteration          0
(PID.TID 0000.0001) // CMIN =          3.222048207559994E+03
(PID.TID 0000.0001) // CMAX =          3.480057724005812E+03
(PID.TID 0000.0001) // CINT =          9.555908016511795E+00
(PID.TID 0000.0001) // SYMBOLS (CMIN->CMAX): -abcdefghijklmnopqrstuvwxyz+
(PID.TID 0000.0001) //                  0.0: .
(PID.TID 0000.0001) // RANGE I (Lo:Hi:Step):(    -7:    68:     1)
(PID.TID 0000.0001) // RANGE J (Lo:Hi:Step):(    68:    -7:    -1)
(PID.TID 0000.0001) // RANGE K (Lo:Hi:Step):(   1:   1:   1)
(PID.TID 0000.0001) // =======================================================
(PID.TID 0000.0001) K =   1
(PID.TID 0000.0001) //                I=2       I=12      I=22      I=32      I=42      I=52      I=62
(PID.TID 0000.0001) // |--J--|765432101|345678901|345678901|345678901|345678901|345678901|345678901|345678
(PID.TID 0000.0001) //     68 wwxxxxxxxxxxxxxxxxxyyyyyyyyyyyyyyyyyyyyzzzzzzzzzzzzzzzzzzzzzzz++++++++++++++
(PID.TID 0000.0001) //     67 wwwwwwwxxxxxxxxxxxxxxxxxxyyyyyyyyyyyyyyyyyyyyzzzzzzzzzzzzzzzzzzzzzzzzz++++++
(PID.TID 0000.0001) //     66 wwwwwwwwwwwwwxxxxxxxxxxxxxxxxxxyyyyyyyyyyyyyyyyyyyyyyzzzzzzzzzzzzzzzzzzzzzzz
(PID.TID 0000.0001) //     65 vwwwwwwwwwwwwwwwwwxxxxxxxxxxxxxxxxxxxyyyyyyyyyyyyyyyyyyyyyyyzzzzzzzzzzzzzzzz
(PID.TID 0000.0001) //     64 vvvvvvwwwwwwwwwwwwwwwwwwxxxxxxxxxxxxxxxxxxxxyyyyyyyyyyyyyyyyyyyyyyyyyzzzzzzz
(PID.TID 0000.0001) //     63 vvvvvvvvvvvvwwwwwwwwwwwwwwwwwwxxxxxxxxxxxxxxxxxxxxxyyyyyyyyyyyyyyyyyyyyyyyyy
(PID.TID 0000.0001) //     62 vvvvvvvvvvvvvvvvvwwwwwwwwwwwwwwwwwwwxxxxxxxxxxxxxxxxxxxxxxxyyyyyyyyyyyyyyyyy
(PID.TID 0000.0001) //     61 uuuuuvvvvvvvvvvvvvvvvvvwwwwwwwwwwwwwwwwwwwwxxxxxxxxxxxxxxxxxxxxxxxxyyyyyyyyy
(PID.TID 0000.0001) //     60 uuuuuuuuuuvvvvvvvvvvvvvvvvvvvwwwwwwwwwwwwwwwwwwwwwxxxxxxxxxxxxxxxxxxx.......
(PID.TID 0000.0001) //     59 uuuuuuuuuuuuuuuuvvvvvvvvvvvvvvvvvvvwwwwwwwwwwwwwwwwwwwwwwxxxxxxxxxxxx.......
(PID.TID 0000.0001) //     58 ttttuuuuuuuuuuuuuuuuuuvvvvvvvvvvvvvvvvvvvvwwwwwwwwwwwwwwwwwwwwwwwwxxx.......
(PID.TID 0000.0001) //     57 tttttttttuuuuuuuuuuuuuuuuuuuvvvvvvvvvvvvvvvvvvvvvwwwwwwwwwwwwwwwwwwww.......
(PID.TID 0000.0001) //     56 tttttttttttttttuuuuuuuuuuuuuuuuuuuvvvvvvvvvvvvvvvvvvvvvvwwwwwwwwwwwww.......
(PID.TID 0000.0001) //     55 sssttttttttttttttttttuuuuuuuuuuuuuuuuuuuvvvvvvvvvvvvvvvvvvvvvvvvwwwww.......
(PID.TID 0000.0001) //     54 ssssssssttttttttttttttttttuuuuuuuuuuuuuuuuuuuuuvvvvvvvvvvvvvvvvvvvvvv.......
(PID.TID 0000.0001) //     53 sssssssssssssstttttttttttttttttttuuuuuuuuuuuuuuuuuuuuuuvvvvvvvvvvvvvv.......
(PID.TID 0000.0001) //     52 rrsssssssssssssssssttttttttttttttttttttuuuuuuuuuuuuuuuuuuuuuuuuvvvvvv.......
(PID.TID 0000.0001) //     51 rrrrrrrsssssssssssssssssstttttttttttttttttttttuuuuuuuuuuuuuuuuuuuuuuu.......
(PID.TID 0000.0001) //     50 rrrrrrrrrrrrrssssssssssssssssssstttttttttttttttttttttuuuuuuuuuuuuuuuu.......
(PID.TID 0000.0001) //     49 qrrrrrrrrrrrrrrrrrsssssssssssssssssssstttttttttttttttttttttttuuuuuuuu.......
(PID.TID 0000.0001) //     48 qqqqqqrrrrrrrrrrrrrrrrrrssssssssssssssssssssstttttttttttttttttttttttt.......
(PID.TID 0000.0001) //     47 qqqqqqqqqqqqrrrrrrrrrrrrrrrrrrssssssssssssssssssssssttttttttttttttttt.......
(PID.TID 0000.0001) //     46 qqqqqqqqqqqqqqqqqrrrrrrrrrrrrrrrrrrrrsssssssssssssssssssssssttttttttt.......
(PID.TID 0000.0001) //     45 pppppqqqqqqqqqqqqqqqqqqrrrrrrrrrrrrrrrrrrrrrsssssssssssssssssssssssst.......
(PID.TID 0000.0001) //     44 pppppppppppqqqqqqqqqqqqqqqqqqrrrrrrrrrrrrrrrrrrrrrrssssssssssssssssss.......
(PID.TID 0000.0001) //     43 ppppppppppppppppqqqqqqqqqqqqqqqqqqqqrrrrrrrrrrrrrrrrrrrrrrrssssssssss.......
(PID.TID 0000.0001) //     42 ooooppppppppppppppppppqqqqqqqqqqqqqqqqqqqqqrrrrrrrrrrrrrrrrrrrrrrrrss.......
(PID.TID 0000.0001) //     41 ooooooooooppppppppppppppppppqqqqqqqqqqqqqqqqqqqqqqrrrrrrrrrrrrrrrrrrr.......
(PID.TID 0000.0001) //     40 oooooooooooooooppppppppppppppppppppqqqqqqqqqqqqqqqqqqqqqqrrrrrrrrrrrr.......
(PID.TID 0000.0001) //     39 nnnnoooooooooooooooooppppppppppppppppppppqqqqqqqqqqqqqqqqqqqqqqqqqrrr.......
(PID.TID 0000.0001) //     38 nnnnnnnnnooooooooooooooooooppppppppppppppppppppppqqqqqqqqqqqqqqqqqqqq.......
(PID.TID 0000.0001) //     37 nnnnnnnnnnnnnnooooooooooooooooooooppppppppppppppppppppppqqqqqqqqqqqqq.......
(PID.TID 0000.0001) //     36 mmmnnnnnnnnnnnnnnnnnooooooooooooooooooooppppppppppppppppppppppppqqqqq.......
(PID.TID 0000.0001) //     35 mmmmmmmmnnnnnnnnnnnnnnnnnnooooooooooooooooooooopppppppppppppppppppppp.......
(PID.TID 0000.0001) //     34 mmmmmmmmmmmmmmnnnnnnnnnnnnnnnnnnnoooooooooooooooooooooopppppppppppppp.......
(PID.TID 0000.0001) //     33 llmmmmmmmmmmmmmmmmmnnnnnnnnnnnnnnnnnnnnoooooooooooooooooooooooopppppp.......
(PID.TID 0000.0001) //     32 lllllllmmmmmmmmmmmmmmmmmmnnnnnnnnnnnnnnnnnnnnnooooooooooooooooooooooo.......
(PID.TID 0000.0001) //     31 lllllllllllllmmmmmmmmmmmmmmmmmmmnnnnnnnnnnnnnnnnnnnnnnooooooooooooooo.......
(PID.TID 0000.0001) //     30 klllllllllllllllllmmmmmmmmmmmmmmmmmmmmnnnnnnnnnnnnnnnnnnnnnnnnooooooo.......
(PID.TID 0000.0001) //     29 kkkkkkllllllllllllllllllmmmmmmmmmmmmmmmmmmmmmnnnnnnnnnnnnnnnnnnnnnnnn.......
(PID.TID 0000.0001) //     28 kkkkkkkkkkkklllllllllllllllllllmmmmmmmmmmmmmmmmmmmmmmnnnnnnnnnnnnnnnn.......
(PID.TID 0000.0001) //     27 kkkkkkkkkkkkkkkkkllllllllllllllllllllmmmmmmmmmmmmmmmmmmmmmmmmnnnnnnnn.......
(PID.TID 0000.0001) //     26 jjjjjkkkkkkkkkkkkkkkkkklllllllllllllllllllllmmmmmmmmmmmmmmmmmmmmmmmmm.......
(PID.TID 0000.0001) //     25 jjjjjjjjjjjkkkkkkkkkkkkkkkkkkkllllllllllllllllllllllmmmmmmmmmmmmmmmmm.......
(PID.TID 0000.0001) //     24 jjjjjjjjjjjjjjjjjkkkkkkkkkkkkkkkkkkkllllllllllllllllllllllllmmmmmmmmm.......
(PID.TID 0000.0001) //     23 iiiiijjjjjjjjjjjjjjjjjjkkkkkkkkkkkkkkkkkkkklllllllllllllllllllllllllm.......
(PID.TID 0000.0001) //     22 iiiiiiiiiijjjjjjjjjjjjjjjjjjjkkkkkkkkkkkkkkkkkkkkkkllllllllllllllllll.......
(PID.TID 0000.0001) //     21 iiiiiiiiiiiiiiiijjjjjjjjjjjjjjjjjjjkkkkkkkkkkkkkkkkkkkkkkklllllllllll.......
(PID.TID 0000.0001) //     20 hhhhiiiiiiiiiiiiiiiiiijjjjjjjjjjjjjjjjjjjjkkkkkkkkkkkkkkkkkkkkkkkkkll.......
(PID.TID 0000.0001) //     19 hhhhhhhhhiiiiiiiiiiiiiiiiiiijjjjjjjjjjjjjjjjjjjjjjkkkkkkkkkkkkkkkkkkk.......
(PID.TID 0000.0001) //     18 hhhhhhhhhhhhhhhiiiiiiiiiiiiiiiiiiijjjjjjjjjjjjjjjjjjjjjjjkkkkkkkkkkkk.......
(PID.TID 0000.0001) //     17 ggghhhhhhhhhhhhhhhhhhiiiiiiiiiiiiiiiiiiiijjjjjjjjjjjjjjjjjjjjjjjjjkkk.......
(PID.TID 0000.0001) //     16 gggggggghhhhhhhhhhhhhhhhhhhiiiiiiiiiiiiiiiiiiiiiijjjjjjjjjjjjjjjjjjjj.......
(PID.TID 0000.0001) //     15 gggggggggggggghhhhhhhhhhhhhhhhhhhhiiiiiiiiiiiiiiiiiiiiiijjjjjjjjjjjjj.......
(PID.TID 0000.0001) //     14 ffgggggggggggggggggghhhhhhhhhhhhhhhhhhhhiiiiiiiiiiiiiiiiiiiiiiiiijjjj.......
(PID.TID 0000.0001) //     13 ffffffffgggggggggggggggggghhhhhhhhhhhhhhhhhhhhhhiiiiiiiiiiiiiiiiiiiii.......
(PID.TID 0000.0001) //     12 fffffffffffffgggggggggggggggggggghhhhhhhhhhhhhhhhhhhhhhiiiiiiiiiiiiii.......
(PID.TID 0000.0001) //     11 effffffffffffffffffgggggggggggggggggggghhhhhhhhhhhhhhhhhhhhhhhhhiiiii.......
(PID.TID 0000.0001) //     10 eeeeeeeffffffffffffffffffgggggggggggggggggggggghhhhhhhhhhhhhhhhhhhhhh.......
(PID.TID 0000.0001) //      9 eeeeeeeeeeeeefffffffffffffffffffgggggggggggggggggggggghhhhhhhhhhhhhhh.......
(PID.TID 0000.0001) //      8 deeeeeeeeeeeeeeeeefffffffffffffffffffffgggggggggggggggggggggggghhhhhh.......
(PID.TID 0000.0001) //      7 ddddddeeeeeeeeeeeeeeeeeeefffffffffffffffffffffggggggggggggggggggggggg.......
(PID.TID 0000.0001) //      6 ddddddddddddeeeeeeeeeeeeeeeeeeeffffffffffffffffffffffgggggggggggggggg.......
(PID.TID 0000.0001) //      5 ddddddddddddddddddeeeeeeeeeeeeeeeeeeeeffffffffffffffffffffffffggggggg.......
(PID.TID 0000.0001) //      4 ccccccddddddddddddddddddeeeeeeeeeeeeeeeeeeeeeffffffffffffffffffffffff.......
(PID.TID 0000.0001) //      3 cccccccccccdddddddddddddddddddeeeeeeeeeeeeeeeeeeeeeefffffffffffffffff.......
(PID.TID 0000.0001) //      2 cccccccccccccccccddddddddddddddddddddeeeeeeeeeeeeeeeeeeeeeeeeffffffff.......
(PID.TID 0000.0001) //      1 bbbbbccccccccccccccccccdddddddddddddddddddddeeeeeeeeeeeeeeeeeeeeeeeee.......
(PID.TID 0000.0001) //      0 bbbbbbbb....................................................................
(PID.TID 0000.0001) //     -1 bbbbbbbb....................................................................
(PID.TID 0000.0001) //     -2 aaaabbbb....................................................................
(PID.TID 0000.0001) //     -3 aaaaaaaa....................................................................
(PID.TID 0000.0001) //     -4 aaaaaaaa....................................................................
(PID.TID 0000.0001) //     -5 ----aaaa....................................................................
(PID.TID 0000.0001) //     -6 --------....................................................................
(PID.TID 0000.0001) //     -7 ............................................................................
(PID.TID 0000.0001) // =======================================================
(PID.TID 0000.0001) // END OF FIELD                                          =
(PID.TID 0000.0001) // =======================================================
(PID.TID 0000.0001) 
(PID.TID 0000.0001) // =======================================================
(PID.TID 0000.0001) // Field Current rAw      at iteration          0
(PID.TID 0000.0001) // CMIN =          5.977736676776590E+06
(PID.TID 0000.0001) // CMAX =          7.302044448166533E+06
(PID.TID 0000.0001) // CINT =          4.904843597740532E+04
(PID.TID 0000.0001) // SYMBOLS (CMIN->CMAX): -abcdefghijklmnopqrstuvwxyz+
(PID.TID 0000.0001) //                  0.0: .
(PID.TID 0000.0001) // RANGE I (Lo:Hi:Step):(    -7:    68:     1)
(PID.TID 0000.0001) // RANGE J (Lo:Hi:Step):(    68:    -7:    -1)
(PID.TID 0000.0001) // RANGE K (Lo:Hi:Step):(   1:   1:   1)
(PID.TID 0000.0001) // =======================================================
(PID.TID 0000.0001) K =   1
(PID.TID 0000.0001) //                I=2       I=12      I=22      I=32      I=42      I=52      I=62
(PID.TID 0000.0001) // |--J--|765432101|345678901|345678901|345678901|345678901|345678901|345678901|345678
(PID.TID 0000.0001) //     68 zzzzzzzzzzzzzzzzzzzzzzzzzzzzzzzzzzz+++++++++++++++++++++++++++++++++++++++++
(PID.TID 0000.0001) //     67 zzzzzzzzzzzzzzzzzzzzzzzzzzzzzzzzzzzzzzzzzzzzzzzzzzzzzzzzzzzzzzzzz+++++++++++
(PID.TID 0000.0001) //     66 yyyyyyyyyyyyyyyyyyyyzzzzzzzzzzzzzzzzzzzzzzzzzzzzzzzzzzzzzzzzzzzzzzzzzzzzzzzz
(PID.TID 0000.0001) //     65 yyyyyyyyyyyyyyyyyyyyyyyyyyyyyyyyyyyyyyyyyyyyyzzzzzzzzzzzzzzzzzzzzzzzzzzzzzzz
(PID.TID 0000.0001) //     64 xxxxxxyyyyyyyyyyyyyyyyyyyyyyyyyyyyyyyyyyyyyyyyyyyyyyyyyyyyyyyyyyyyyyyyyyyyyy
(PID.TID 0000.0001) //     63 xxxxxxxxxxxxxxxxxxxxxxxxxxxxyyyyyyyyyyyyyyyyyyyyyyyyyyyyyyyyyyyyyyyyyyyyyyyy
(PID.TID 0000.0001) //     62 xxxxxxxxxxxxxxxxxxxxxxxxxxxxxxxxxxxxxxxxxxxxxxxxxxxxxxxxyyyyyyyyyyyyyyyyyyyy
(PID.TID 0000.0001) //     61 wwwwwwwwwwwwwxxxxxxxxxxxxxxxxxxxxxxxxxxxxxxxxxxxxxxxxxxxxxxxxxxxxxxxxxxxxxxx
(PID.TID 0000.0001) //     60 wwwwwwwwwwwwwwwwwwwwwwwwwwwwwwwwwwwwwxxxxxxxxxxxxxxxxxxxxxxxxxxxxxxxx.......
(PID.TID 0000.0001) //     59 wwwwwwwwwwwwwwwwwwwwwwwwwwwwwwwwwwwwwwwwwwwwwwwwwwwwwwwwwwwwwwwwwwwxx.......
(PID.TID 0000.0001) //     58 vvvvvvvvvvvvvvvvvvvvwwwwwwwwwwwwwwwwwwwwwwwwwwwwwwwwwwwwwwwwwwwwwwwww.......
(PID.TID 0000.0001) //     57 vvvvvvvvvvvvvvvvvvvvvvvvvvvvvvvvvvvvvvvvvvvvvvwwwwwwwwwwwwwwwwwwwwwww.......
(PID.TID 0000.0001) //     56 uuuuuvvvvvvvvvvvvvvvvvvvvvvvvvvvvvvvvvvvvvvvvvvvvvvvvvvvvvvvvvvvvvvvv.......
(PID.TID 0000.0001) //     55 uuuuuuuuuuuuuuuuuuuuuuuuuuuvvvvvvvvvvvvvvvvvvvvvvvvvvvvvvvvvvvvvvvvvv.......
(PID.TID 0000.0001) //     54 uuuuuuuuuuuuuuuuuuuuuuuuuuuuuuuuuuuuuuuuuuuuuuuuuuuuuuvvvvvvvvvvvvvvv.......
(PID.TID 0000.0001) //     53 tttttttttttuuuuuuuuuuuuuuuuuuuuuuuuuuuuuuuuuuuuuuuuuuuuuuuuuuuuuuuuuu.......
(PID.TID 0000.0001) //     52 ttttttttttttttttttttttttttttttttttuuuuuuuuuuuuuuuuuuuuuuuuuuuuuuuuuuu.......
(PID.TID 0000.0001) //     51 tttttttttttttttttttttttttttttttttttttttttttttttttttttttttttttttuuuuuu.......
(PID.TID 0000.0001) //     50 ssssssssssssssssstttttttttttttttttttttttttttttttttttttttttttttttttttt.......
(PID.TID 0000.0001) //     49 ssssssssssssssssssssssssssssssssssssssssstttttttttttttttttttttttttttt.......
(PID.TID 0000.0001) //     48 sssssssssssssssssssssssssssssssssssssssssssssssssssssssssssssssssssss.......
(PID.TID 0000.0001) //     47 rrrrrrrrrrrrrrrrrrrrrrsssssssssssssssssssssssssssssssssssssssssssssss.......
(PID.TID 0000.0001) //     46 rrrrrrrrrrrrrrrrrrrrrrrrrrrrrrrrrrrrrrrrrrrrrrrrsssssssssssssssssssss.......
(PID.TID 0000.0001) //     45 qqqqqrrrrrrrrrrrrrrrrrrrrrrrrrrrrrrrrrrrrrrrrrrrrrrrrrrrrrrrrrrrrrrrr.......
(PID.TID 0000.0001) //     44 qqqqqqqqqqqqqqqqqqqqqqqqqqqrrrrrrrrrrrrrrrrrrrrrrrrrrrrrrrrrrrrrrrrrr.......
(PID.TID 0000.0001) //     43 qqqqqqqqqqqqqqqqqqqqqqqqqqqqqqqqqqqqqqqqqqqqqqqqqqqqqqqrrrrrrrrrrrrrr.......
(PID.TID 0000.0001) //     42 pppppppppqqqqqqqqqqqqqqqqqqqqqqqqqqqqqqqqqqqqqqqqqqqqqqqqqqqqqqqqqqqq.......
(PID.TID 0000.0001) //     41 pppppppppppppppppppppppppppppppppqqqqqqqqqqqqqqqqqqqqqqqqqqqqqqqqqqqq.......
(PID.TID 0000.0001) //     40 pppppppppppppppppppppppppppppppppppppppppppppppppppppppppppppqqqqqqqq.......
(PID.TID 0000.0001) //     39 ooooooooooooopppppppppppppppppppppppppppppppppppppppppppppppppppppppp.......
(PID.TID 0000.0001) //     38 ooooooooooooooooooooooooooooooooooooopppppppppppppppppppppppppppppppp.......
(PID.TID 0000.0001) //     37 ooooooooooooooooooooooooooooooooooooooooooooooooooooooooooooooooooopp.......
(PID.TID 0000.0001) //     36 nnnnnnnnnnnnnnnnnoooooooooooooooooooooooooooooooooooooooooooooooooooo.......
(PID.TID 0000.0001) //     35 nnnnnnnnnnnnnnnnnnnnnnnnnnnnnnnnnnnnnnnnnoooooooooooooooooooooooooooo.......
(PID.TID 0000.0001) //     34 nnnnnnnnnnnnnnnnnnnnnnnnnnnnnnnnnnnnnnnnnnnnnnnnnnnnnnnnnnnnnnnnnnnnn.......
(PID.TID 0000.0001) //     33 mmmmmmmmmmmmmmmmmmmmnnnnnnnnnnnnnnnnnnnnnnnnnnnnnnnnnnnnnnnnnnnnnnnnn.......
(PID.TID 0000.0001) //     32 mmmmmmmmmmmmmmmmmmmmmmmmmmmmmmmmmmmmmmmmmmmmmnnnnnnnnnnnnnnnnnnnnnnnn.......
(PID.TID 0000.0001) //     31 lmmmmmmmmmmmmmmmmmmmmmmmmmmmmmmmmmmmmmmmmmmmmmmmmmmmmmmmmmmmmmmmmmmmm.......
(PID.TID 0000.0001) //     30 lllllllllllllllllllllllmmmmmmmmmmmmmmmmmmmmmmmmmmmmmmmmmmmmmmmmmmmmmm.......
(PID.TID 0000.0001) //     29 llllllllllllllllllllllllllllllllllllllllllllllllmmmmmmmmmmmmmmmmmmmmm.......
(PID.TID 0000.0001) //     28 kkkllllllllllllllllllllllllllllllllllllllllllllllllllllllllllllllllll.......
(PID.TID 0000.0001) //     27 kkkkkkkkkkkkkkkkkkkkkkkkkllllllllllllllllllllllllllllllllllllllllllll.......
(PID.TID 0000.0001) //     26 kkkkkkkkkkkkkkkkkkkkkkkkkkkkkkkkkkkkkkkkkkkkkkkkkkkllllllllllllllllll.......
(PID.TID 0000.0001) //     25 jjjjjkkkkkkkkkkkkkkkkkkkkkkkkkkkkkkkkkkkkkkkkkkkkkkkkkkkkkkkkkkkkkkkk.......
(PID.TID 0000.0001) //     24 jjjjjjjjjjjjjjjjjjjjjjjjjjjkkkkkkkkkkkkkkkkkkkkkkkkkkkkkkkkkkkkkkkkkk.......
(PID.TID 0000.0001) //     23 jjjjjjjjjjjjjjjjjjjjjjjjjjjjjjjjjjjjjjjjjjjjjjjjjjjjjkkkkkkkkkkkkkkkk.......
(PID.TID 0000.0001) //     22 iiiiiijjjjjjjjjjjjjjjjjjjjjjjjjjjjjjjjjjjjjjjjjjjjjjjjjjjjjjjjjjjjjjj.......
(PID.TID 0000.0001) //     21 iiiiiiiiiiiiiiiiiiiiiiiiiiiijjjjjjjjjjjjjjjjjjjjjjjjjjjjjjjjjjjjjjjjj.......
(PID.TID 0000.0001) //     20 iiiiiiiiiiiiiiiiiiiiiiiiiiiiiiiiiiiiiiiiiiiiiiiiiiiiiijjjjjjjjjjjjjjj.......
(PID.TID 0000.0001) //     19 hhhhhhiiiiiiiiiiiiiiiiiiiiiiiiiiiiiiiiiiiiiiiiiiiiiiiiiiiiiiiiiiiiiii.......
(PID.TID 0000.0001) //     18 hhhhhhhhhhhhhhhhhhhhhhhhhhhhiiiiiiiiiiiiiiiiiiiiiiiiiiiiiiiiiiiiiiiii.......
(PID.TID 0000.0001) //     17 hhhhhhhhhhhhhhhhhhhhhhhhhhhhhhhhhhhhhhhhhhhhhhhhhhhhhhhiiiiiiiiiiiiii.......
(PID.TID 0000.0001) //     16 gggggghhhhhhhhhhhhhhhhhhhhhhhhhhhhhhhhhhhhhhhhhhhhhhhhhhhhhhhhhhhhhhh.......
(PID.TID 0000.0001) //     15 gggggggggggggggggggggggggggghhhhhhhhhhhhhhhhhhhhhhhhhhhhhhhhhhhhhhhhh.......
(PID.TID 0000.0001) //     14 ggggggggggggggggggggggggggggggggggggggggggggggggggggggghhhhhhhhhhhhhh.......
(PID.TID 0000.0001) //     13 ffffffggggggggggggggggggggggggggggggggggggggggggggggggggggggggggggggg.......
(PID.TID 0000.0001) //     12 ffffffffffffffffffffffffffffggggggggggggggggggggggggggggggggggggggggg.......
(PID.TID 0000.0001) //     11 ffffffffffffffffffffffffffffffffffffffffffffffffffffffggggggggggggggg.......
(PID.TID 0000.0001) //     10 eeeeeffffffffffffffffffffffffffffffffffffffffffffffffffffffffffffffff.......
(PID.TID 0000.0001) //      9 eeeeeeeeeeeeeeeeeeeeeeeeeefffffffffffffffffffffffffffffffffffffffffff.......
(PID.TID 0000.0001) //      8 eeeeeeeeeeeeeeeeeeeeeeeeeeeeeeeeeeeeeeeeeeeeeeeeeeeefffffffffffffffff.......
(PID.TID 0000.0001) //      7 dddeeeeeeeeeeeeeeeeeeeeeeeeeeeeeeeeeeeeeeeeeeeeeeeeeeeeeeeeeeeeeeeeee.......
(PID.TID 0000.0001) //      6 dddddddddddddddddddddddddeeeeeeeeeeeeeeeeeeeeeeeeeeeeeeeeeeeeeeeeeeee.......
(PID.TID 0000.0001) //      5 ddddddddddddddddddddddddddddddddddddddddddddddddddeeeeeeeeeeeeeeeeeee.......
(PID.TID 0000.0001) //      4 ccddddddddddddddddddddddddddddddddddddddddddddddddddddddddddddddddddd.......
(PID.TID 0000.0001) //      3 ccccccccccccccccccccccddddddddddddddddddddddddddddddddddddddddddddddd.......
(PID.TID 0000.0001) //      2 cccccccccccccccccccccccccccccccccccccccccccccccdddddddddddddddddddddd.......
(PID.TID 0000.0001) //      1 ccccccccccccccccccccccccccccccccccccccccccccccccccccccccccccccccccccc.......
(PID.TID 0000.0001) //      0 bbbbbbbb....................................................................
(PID.TID 0000.0001) //     -1 bbbbbbbb....................................................................
(PID.TID 0000.0001) //     -2 bbbbbbbb....................................................................
(PID.TID 0000.0001) //     -3 aaaaaaaa....................................................................
(PID.TID 0000.0001) //     -4 aaaaaaaa....................................................................
(PID.TID 0000.0001) //     -5 aaaaaaaa....................................................................
(PID.TID 0000.0001) //     -6 --------....................................................................
(PID.TID 0000.0001) //     -7 --------....................................................................
(PID.TID 0000.0001) // =======================================================
(PID.TID 0000.0001) // END OF FIELD                                          =
(PID.TID 0000.0001) // =======================================================
(PID.TID 0000.0001) 
(PID.TID 0000.0001) // =======================================================
(PID.TID 0000.0001) // Field Current rAs      at iteration          0
(PID.TID 0000.0001) // CMIN =          5.985790483916320E+06
(PID.TID 0000.0001) // CMAX =          7.292893705945990E+06
(PID.TID 0000.0001) // CINT =          4.841123044554334E+04
(PID.TID 0000.0001) // SYMBOLS (CMIN->CMAX): -abcdefghijklmnopqrstuvwxyz+
(PID.TID 0000.0001) //                  0.0: .
(PID.TID 0000.0001) // RANGE I (Lo:Hi:Step):(    -7:    68:     1)
(PID.TID 0000.0001) // RANGE J (Lo:Hi:Step):(    68:    -7:    -1)
(PID.TID 0000.0001) // RANGE K (Lo:Hi:Step):(   1:   1:   1)
(PID.TID 0000.0001) // =======================================================
(PID.TID 0000.0001) K =   1
(PID.TID 0000.0001) //                I=2       I=12      I=22      I=32      I=42      I=52      I=62
(PID.TID 0000.0001) // |--J--|765432101|345678901|345678901|345678901|345678901|345678901|345678901|345678
(PID.TID 0000.0001) //     68 zzzzzzzzzzzzzzzzzzzzzzzzzzzzzzzzzzz+++++++++++++++++++++++++++++++++++++++++
(PID.TID 0000.0001) //     67 zzzzzzzzzzzzzzzzzzzzzzzzzzzzzzzzzzzzzzzzzzzzzzzzzzzzzzzzzzzzzzzzz+++++++++++
(PID.TID 0000.0001) //     66 yyyyyyyyyyyyyyyyyyyyyzzzzzzzzzzzzzzzzzzzzzzzzzzzzzzzzzzzzzzzzzzzzzzzzzzzzzzz
(PID.TID 0000.0001) //     65 yyyyyyyyyyyyyyyyyyyyyyyyyyyyyyyyyyyyyyyyyyyyyyzzzzzzzzzzzzzzzzzzzzzzzzzzzzzz
(PID.TID 0000.0001) //     64 xxxxxxxyyyyyyyyyyyyyyyyyyyyyyyyyyyyyyyyyyyyyyyyyyyyyyyyyyyyyyyyyyyyyyyyyyyyy
(PID.TID 0000.0001) //     63 xxxxxxxxxxxxxxxxxxxxxxxxxxxxxxyyyyyyyyyyyyyyyyyyyyyyyyyyyyyyyyyyyyyyyyyyyyyy
(PID.TID 0000.0001) //     62 xxxxxxxxxxxxxxxxxxxxxxxxxxxxxxxxxxxxxxxxxxxxxxxxxxxxxxxxxxyyyyyyyyyyyyyyyyyy
(PID.TID 0000.0001) //     61 wwwwwwwwwwwwwwwxxxxxxxxxxxxxxxxxxxxxxxxxxxxxxxxxxxxxxxxxxxxxxxxxxxxxxxxxxxxx
(PID.TID 0000.0001) //     60 wwwwwwwwwwwwwwwwwwwwwwwwwwwwwwwwwwwwwwwwxxxxxxxxxxxxxxxxxxxxxxxxxxxxx.......
(PID.TID 0000.0001) //     59 vwwwwwwwwwwwwwwwwwwwwwwwwwwwwwwwwwwwwwwwwwwwwwwwwwwwwwwwwwwwwwwwwwwww.......
(PID.TID 0000.0001) //     58 vvvvvvvvvvvvvvvvvvvvvvvwwwwwwwwwwwwwwwwwwwwwwwwwwwwwwwwwwwwwwwwwwwwww.......
(PID.TID 0000.0001) //     57 vvvvvvvvvvvvvvvvvvvvvvvvvvvvvvvvvvvvvvvvvvvvvvvvvvwwwwwwwwwwwwwwwwwww.......
(PID.TID 0000.0001) //     56 uuuuuuuuvvvvvvvvvvvvvvvvvvvvvvvvvvvvvvvvvvvvvvvvvvvvvvvvvvvvvvvvvvvvv.......
(PID.TID 0000.0001) //     55 uuuuuuuuuuuuuuuuuuuuuuuuuuuuuuuvvvvvvvvvvvvvvvvvvvvvvvvvvvvvvvvvvvvvv.......
(PID.TID 0000.0001) //     54 uuuuuuuuuuuuuuuuuuuuuuuuuuuuuuuuuuuuuuuuuuuuuuuuuuuuuuuuuuuuvvvvvvvvv.......
(PID.TID 0000.0001) //     53 tttttttttttttttuuuuuuuuuuuuuuuuuuuuuuuuuuuuuuuuuuuuuuuuuuuuuuuuuuuuuu.......
(PID.TID 0000.0001) //     52 ttttttttttttttttttttttttttttttttttttttttuuuuuuuuuuuuuuuuuuuuuuuuuuuuu.......
(PID.TID 0000.0001) //     51 ttttttttttttttttttttttttttttttttttttttttttttttttttttttttttttttttttttt.......
(PID.TID 0000.0001) //     50 ssssssssssssssssssssssttttttttttttttttttttttttttttttttttttttttttttttt.......
(PID.TID 0000.0001) //     49 ssssssssssssssssssssssssssssssssssssssssssssssssttttttttttttttttttttt.......
(PID.TID 0000.0001) //     48 rrrrrrsssssssssssssssssssssssssssssssssssssssssssssssssssssssssssssss.......
(PID.TID 0000.0001) //     47 rrrrrrrrrrrrrrrrrrrrrrrrrrrrrssssssssssssssssssssssssssssssssssssssss.......
(PID.TID 0000.0001) //     46 rrrrrrrrrrrrrrrrrrrrrrrrrrrrrrrrrrrrrrrrrrrrrrrrrrrrrrrrsssssssssssss.......
(PID.TID 0000.0001) //     45 qqqqqqqqqqqrrrrrrrrrrrrrrrrrrrrrrrrrrrrrrrrrrrrrrrrrrrrrrrrrrrrrrrrrr.......
(PID.TID 0000.0001) //     44 qqqqqqqqqqqqqqqqqqqqqqqqqqqqqqqqqqqrrrrrrrrrrrrrrrrrrrrrrrrrrrrrrrrrr.......
(PID.TID 0000.0001) //     43 qqqqqqqqqqqqqqqqqqqqqqqqqqqqqqqqqqqqqqqqqqqqqqqqqqqqqqqqqqqqqqqqqrrrr.......
(PID.TID 0000.0001) //     42 pppppppppppppppppqqqqqqqqqqqqqqqqqqqqqqqqqqqqqqqqqqqqqqqqqqqqqqqqqqqq.......
(PID.TID 0000.0001) //     41 pppppppppppppppppppppppppppppppppppppppppqqqqqqqqqqqqqqqqqqqqqqqqqqqq.......
(PID.TID 0000.0001) //     40 ppppppppppppppppppppppppppppppppppppppppppppppppppppppppppppppppppppp.......
(PID.TID 0000.0001) //     39 ooooooooooooooooooooooppppppppppppppppppppppppppppppppppppppppppppppp.......
(PID.TID 0000.0001) //     38 ooooooooooooooooooooooooooooooooooooooooooooooopppppppppppppppppppppp.......
(PID.TID 0000.0001) //     37 nnnnooooooooooooooooooooooooooooooooooooooooooooooooooooooooooooooooo.......
(PID.TID 0000.0001) //     36 nnnnnnnnnnnnnnnnnnnnnnnnnnooooooooooooooooooooooooooooooooooooooooooo.......
(PID.TID 0000.0001) //     35 nnnnnnnnnnnnnnnnnnnnnnnnnnnnnnnnnnnnnnnnnnnnnnnnnnnnnoooooooooooooooo.......
(PID.TID 0000.0001) //     34 mmmmmmmmnnnnnnnnnnnnnnnnnnnnnnnnnnnnnnnnnnnnnnnnnnnnnnnnnnnnnnnnnnnnn.......
(PID.TID 0000.0001) //     33 mmmmmmmmmmmmmmmmmmmmmmmmmmmmmmmnnnnnnnnnnnnnnnnnnnnnnnnnnnnnnnnnnnnnn.......
(PID.TID 0000.0001) //     32 mmmmmmmmmmmmmmmmmmmmmmmmmmmmmmmmmmmmmmmmmmmmmmmmmmmmmmmmmmnnnnnnnnnnn.......
(PID.TID 0000.0001) //     31 lllllllllllmmmmmmmmmmmmmmmmmmmmmmmmmmmmmmmmmmmmmmmmmmmmmmmmmmmmmmmmmm.......
(PID.TID 0000.0001) //     30 lllllllllllllllllllllllllllllllllllmmmmmmmmmmmmmmmmmmmmmmmmmmmmmmmmmm.......
(PID.TID 0000.0001) //     29 lllllllllllllllllllllllllllllllllllllllllllllllllllllllllllllllmmmmmm.......
(PID.TID 0000.0001) //     28 kkkkkkkkkkkkkklllllllllllllllllllllllllllllllllllllllllllllllllllllll.......
(PID.TID 0000.0001) //     27 kkkkkkkkkkkkkkkkkkkkkkkkkkkkkkkkkkkkkklllllllllllllllllllllllllllllll.......
(PID.TID 0000.0001) //     26 kkkkkkkkkkkkkkkkkkkkkkkkkkkkkkkkkkkkkkkkkkkkkkkkkkkkkkkkkkkkkkkkkkkkl.......
(PID.TID 0000.0001) //     25 jjjjjjjjjjjjjjjjjkkkkkkkkkkkkkkkkkkkkkkkkkkkkkkkkkkkkkkkkkkkkkkkkkkkk.......
(PID.TID 0000.0001) //     24 jjjjjjjjjjjjjjjjjjjjjjjjjjjjjjjjjjjjjjjjjkkkkkkkkkkkkkkkkkkkkkkkkkkkk.......
(PID.TID 0000.0001) //     23 jjjjjjjjjjjjjjjjjjjjjjjjjjjjjjjjjjjjjjjjjjjjjjjjjjjjjjjjjjjjjjjjjjjjj.......
(PID.TID 0000.0001) //     22 iiiiiiiiiiiiiiiiiijjjjjjjjjjjjjjjjjjjjjjjjjjjjjjjjjjjjjjjjjjjjjjjjjjj.......
(PID.TID 0000.0001) //     21 iiiiiiiiiiiiiiiiiiiiiiiiiiiiiiiiiiiiiiiiiiijjjjjjjjjjjjjjjjjjjjjjjjjj.......
(PID.TID 0000.0001) //     20 iiiiiiiiiiiiiiiiiiiiiiiiiiiiiiiiiiiiiiiiiiiiiiiiiiiiiiiiiiiiiiiiiiiii.......
(PID.TID 0000.0001) //     19 hhhhhhhhhhhhhhhhhhhhiiiiiiiiiiiiiiiiiiiiiiiiiiiiiiiiiiiiiiiiiiiiiiiii.......
(PID.TID 0000.0001) //     18 hhhhhhhhhhhhhhhhhhhhhhhhhhhhhhhhhhhhhhhhhhhhhiiiiiiiiiiiiiiiiiiiiiiii.......
(PID.TID 0000.0001) //     17 hhhhhhhhhhhhhhhhhhhhhhhhhhhhhhhhhhhhhhhhhhhhhhhhhhhhhhhhhhhhhhhhhhhhh.......
(PID.TID 0000.0001) //     16 ggggggggggggggggggggghhhhhhhhhhhhhhhhhhhhhhhhhhhhhhhhhhhhhhhhhhhhhhhh.......
(PID.TID 0000.0001) //     15 gggggggggggggggggggggggggggggggggggggggggggggghhhhhhhhhhhhhhhhhhhhhhh.......
(PID.TID 0000.0001) //     14 ggggggggggggggggggggggggggggggggggggggggggggggggggggggggggggggggggggg.......
(PID.TID 0000.0001) //     13 fffffffffffffffffffffgggggggggggggggggggggggggggggggggggggggggggggggg.......
(PID.TID 0000.0001) //     12 ffffffffffffffffffffffffffffffffffffffffffffffggggggggggggggggggggggg.......
(PID.TID 0000.0001) //     11 fffffffffffffffffffffffffffffffffffffffffffffffffffffffffffffffffffff.......
(PID.TID 0000.0001) //     10 eeeeeeeeeeeeeeeeeeeeeffffffffffffffffffffffffffffffffffffffffffffffff.......
(PID.TID 0000.0001) //      9 eeeeeeeeeeeeeeeeeeeeeeeeeeeeeeeeeeeeeeeeeeeeeefffffffffffffffffffffff.......
(PID.TID 0000.0001) //      8 eeeeeeeeeeeeeeeeeeeeeeeeeeeeeeeeeeeeeeeeeeeeeeeeeeeeeeeeeeeeeeeeeeeee.......
(PID.TID 0000.0001) //      7 ddddddddddddddddddddeeeeeeeeeeeeeeeeeeeeeeeeeeeeeeeeeeeeeeeeeeeeeeeee.......
(PID.TID 0000.0001) //      6 dddddddddddddddddddddddddddddddddddddddddddddeeeeeeeeeeeeeeeeeeeeeeee.......
(PID.TID 0000.0001) //      5 ddddddddddddddddddddddddddddddddddddddddddddddddddddddddddddddddddddd.......
(PID.TID 0000.0001) //      4 cccccccccccccccccccdddddddddddddddddddddddddddddddddddddddddddddddddd.......
(PID.TID 0000.0001) //      3 cccccccccccccccccccccccccccccccccccccccccccdddddddddddddddddddddddddd.......
(PID.TID 0000.0001) //      2 ccccccccccccccccccccccccccccccccccccccccccccccccccccccccccccccccccccc.......
(PID.TID 0000.0001) //      1 bbbbbbbbbbbbbbbbbcccccccccccccccccccccccccccccccccccccccccccccccccccc.......
(PID.TID 0000.0001) //      0 bbbbbbbb....................................................................
(PID.TID 0000.0001) //     -1 bbbbbbbb....................................................................
(PID.TID 0000.0001) //     -2 aaaaaaaa....................................................................
(PID.TID 0000.0001) //     -3 aaaaaaaa....................................................................
(PID.TID 0000.0001) //     -4 aaaaaaaa....................................................................
(PID.TID 0000.0001) //     -5 --------....................................................................
(PID.TID 0000.0001) //     -6 --------....................................................................
(PID.TID 0000.0001) //     -7 ............................................................................
(PID.TID 0000.0001) // =======================================================
(PID.TID 0000.0001) // END OF FIELD                                          =
(PID.TID 0000.0001) // =======================================================
(PID.TID 0000.0001) 
(PID.TID 0000.0001) // =======================================================
(PID.TID 0000.0001) // Field Current dxG      at iteration          0
(PID.TID 0000.0001) // CMIN =          1.857221421190305E+03
(PID.TID 0000.0001) // CMAX =          2.101306016950025E+03
(PID.TID 0000.0001) // CINT =          9.040170213322991E+00
(PID.TID 0000.0001) // SYMBOLS (CMIN->CMAX): -abcdefghijklmnopqrstuvwxyz+
(PID.TID 0000.0001) //                  0.0: .
(PID.TID 0000.0001) // RANGE I (Lo:Hi:Step):(    -7:    68:     1)
(PID.TID 0000.0001) // RANGE J (Lo:Hi:Step):(    68:    -7:    -1)
(PID.TID 0000.0001) // RANGE K (Lo:Hi:Step):(   1:   1:   1)
(PID.TID 0000.0001) // =======================================================
(PID.TID 0000.0001) K =   1
(PID.TID 0000.0001) //                I=2       I=12      I=22      I=32      I=42      I=52      I=62
(PID.TID 0000.0001) // |--J--|765432101|345678901|345678901|345678901|345678901|345678901|345678901|345678
(PID.TID 0000.0001) //     68 ++++++++++++++++++++++++++++++++++++++++++++++++++++++++zzzzzzzzzzzzzzzzzzzz
(PID.TID 0000.0001) //     67 ++++++++++zzzzzzzzzzzzzzzzzzzzzzzzzzzzzzzzzzzzzzzzzzzzzzzzzzzzzzzzzzzzzzzzzz
(PID.TID 0000.0001) //     66 zzzzzzzzzzzzzzzzzzzzzzzzzzzzzzzzzzzzzzzzzzzzzzzzzzzzzzzzzzzzzzzzzzzzzzzzzzzz
(PID.TID 0000.0001) //     65 zzzzzzzzzzzzzzzzzzzzzzzzzzzzzzzzyyyyyyyyyyyyyyyyyyyyyyyyyyyyyyyyyyyyyyyyyyyy
(PID.TID 0000.0001) //     64 yyyyyyyyyyyyyyyyyyyyyyyyyyyyyyyyyyyyyyyyyyyyyyyyyyyyyyyyyyyyyyyyyyyyyyyyyyyy
(PID.TID 0000.0001) //     63 yyyyyyyyyyyyyyyyyyyyyyyyyyyyyyyyyyyyyyyyyyyyyyyyyyyyyyyyyyyyxxxxxxxxxxxxxxxx
(PID.TID 0000.0001) //     62 yyyyyyyyyyyyyxxxxxxxxxxxxxxxxxxxxxxxxxxxxxxxxxxxxxxxxxxxxxxxxxxxxxxxxxxxxxxx
(PID.TID 0000.0001) //     61 xxxxxxxxxxxxxxxxxxxxxxxxxxxxxxxxxxxxxxxxxxxxxxxxxxxxxxxxxxxxxxxxxxxxxxxxxxxx
(PID.TID 0000.0001) //     60 xxxxxxxxxxxxxxxxxxxxxxxxxxxxxxxxxxxxxwwwwwwwwwwwwwwwwwwwwwwwwwwwwwwww.......
(PID.TID 0000.0001) //     59 wwwwwwwwwwwwwwwwwwwwwwwwwwwwwwwwwwwwwwwwwwwwwwwwwwwwwwwwwwwwwwwwwwwww.......
(PID.TID 0000.0001) //     58 wwwwwwwwwwwwwwwwwwwwwwwwwwwwwwwwwwwwwwwwwwwwwwwwwwwwwwwwwwwwwwwwwwwvv.......
(PID.TID 0000.0001) //     57 wwwwwwwwwwwwwwwwwwvvvvvvvvvvvvvvvvvvvvvvvvvvvvvvvvvvvvvvvvvvvvvvvvvvv.......
(PID.TID 0000.0001) //     56 vvvvvvvvvvvvvvvvvvvvvvvvvvvvvvvvvvvvvvvvvvvvvvvvvvvvvvvvvvvvvvvvvvvvv.......
(PID.TID 0000.0001) //     55 vvvvvvvvvvvvvvvvvvvvvvvvvvvvvvvvvvvvvvvvvvvvuuuuuuuuuuuuuuuuuuuuuuuuu.......
(PID.TID 0000.0001) //     54 vvuuuuuuuuuuuuuuuuuuuuuuuuuuuuuuuuuuuuuuuuuuuuuuuuuuuuuuuuuuuuuuuuuuu.......
(PID.TID 0000.0001) //     53 uuuuuuuuuuuuuuuuuuuuuuuuuuuuuuuuuuuuuuuuuuuuuuuuuuuuuuuuuuuuuuuuuuuuu.......
(PID.TID 0000.0001) //     52 uuuuuuuuuuuuuuuuuuuuuuuuuuttttttttttttttttttttttttttttttttttttttttttt.......
(PID.TID 0000.0001) //     51 ttttttttttttttttttttttttttttttttttttttttttttttttttttttttttttttttttttt.......
(PID.TID 0000.0001) //     50 ttttttttttttttttttttttttttttttttttttttttttttttttttttttttsssssssssssss.......
(PID.TID 0000.0001) //     49 tttttttttttssssssssssssssssssssssssssssssssssssssssssssssssssssssssss.......
(PID.TID 0000.0001) //     48 sssssssssssssssssssssssssssssssssssssssssssssssssssssssssssssssssssss.......
(PID.TID 0000.0001) //     47 ssssssssssssssssssssssssssssssssssssssrrrrrrrrrrrrrrrrrrrrrrrrrrrrrrr.......
(PID.TID 0000.0001) //     46 rrrrrrrrrrrrrrrrrrrrrrrrrrrrrrrrrrrrrrrrrrrrrrrrrrrrrrrrrrrrrrrrrrrrr.......
(PID.TID 0000.0001) //     45 rrrrrrrrrrrrrrrrrrrrrrrrrrrrrrrrrrrrrrrrrrrrrrrrrrrrrrrrrrrrrrrrrrrrr.......
(PID.TID 0000.0001) //     44 rrrrrrrrrrrrrrrrrrrrrrqqqqqqqqqqqqqqqqqqqqqqqqqqqqqqqqqqqqqqqqqqqqqqq.......
(PID.TID 0000.0001) //     43 qqqqqqqqqqqqqqqqqqqqqqqqqqqqqqqqqqqqqqqqqqqqqqqqqqqqqqqqqqqqqqqqqqqqq.......
(PID.TID 0000.0001) //     42 qqqqqqqqqqqqqqqqqqqqqqqqqqqqqqqqqqqqqqqqqqqqqqqqqqqqqqppppppppppppppp.......
(PID.TID 0000.0001) //     41 qqqqqqqqqpppppppppppppppppppppppppppppppppppppppppppppppppppppppppppp.......
(PID.TID 0000.0001) //     40 ppppppppppppppppppppppppppppppppppppppppppppppppppppppppppppppppppppp.......
(PID.TID 0000.0001) //     39 ppppppppppppppppppppppppppppppppppppppooooooooooooooooooooooooooooooo.......
(PID.TID 0000.0001) //     38 ooooooooooooooooooooooooooooooooooooooooooooooooooooooooooooooooooooo.......
(PID.TID 0000.0001) //     37 ooooooooooooooooooooooooooooooooooooooooooooooooooooooooooooooooooooo.......
(PID.TID 0000.0001) //     36 ooooooooooooooooooooooooonnnnnnnnnnnnnnnnnnnnnnnnnnnnnnnnnnnnnnnnnnnn.......
(PID.TID 0000.0001) //     35 nnnnnnnnnnnnnnnnnnnnnnnnnnnnnnnnnnnnnnnnnnnnnnnnnnnnnnnnnnnnnnnnnnnnn.......
(PID.TID 0000.0001) //     34 nnnnnnnnnnnnnnnnnnnnnnnnnnnnnnnnnnnnnnnnnnnnnnnnnnnnnnnnnnnnnmmmmmmmm.......
(PID.TID 0000.0001) //     33 nnnnnnnnnnnnnnmmmmmmmmmmmmmmmmmmmmmmmmmmmmmmmmmmmmmmmmmmmmmmmmmmmmmmm.......
(PID.TID 0000.0001) //     32 mmmmmmmmmmmmmmmmmmmmmmmmmmmmmmmmmmmmmmmmmmmmmmmmmmmmmmmmmmmmmmmmmmmmm.......
(PID.TID 0000.0001) //     31 mmmmmmmmmmmmmmmmmmmmmmmmmmmmmmmmmmmmmmmmmmmmmmmllllllllllllllllllllll.......
(PID.TID 0000.0001) //     30 mmmmlllllllllllllllllllllllllllllllllllllllllllllllllllllllllllllllll.......
(PID.TID 0000.0001) //     29 lllllllllllllllllllllllllllllllllllllllllllllllllllllllllllllllllllll.......
(PID.TID 0000.0001) //     28 llllllllllllllllllllllllllllllllllllkkkkkkkkkkkkkkkkkkkkkkkkkkkkkkkkk.......
(PID.TID 0000.0001) //     27 kkkkkkkkkkkkkkkkkkkkkkkkkkkkkkkkkkkkkkkkkkkkkkkkkkkkkkkkkkkkkkkkkkkkk.......
(PID.TID 0000.0001) //     26 kkkkkkkkkkkkkkkkkkkkkkkkkkkkkkkkkkkkkkkkkkkkkkkkkkkkkkkkkkkkkkkkkkkkk.......
(PID.TID 0000.0001) //     25 kkkkkkkkkkkkkkkkkkkkkkkkkkjjjjjjjjjjjjjjjjjjjjjjjjjjjjjjjjjjjjjjjjjjj.......
(PID.TID 0000.0001) //     24 jjjjjjjjjjjjjjjjjjjjjjjjjjjjjjjjjjjjjjjjjjjjjjjjjjjjjjjjjjjjjjjjjjjjj.......
(PID.TID 0000.0001) //     23 jjjjjjjjjjjjjjjjjjjjjjjjjjjjjjjjjjjjjjjjjjjjjjjjjjjjjjjjjjjjjjjjjjjii.......
(PID.TID 0000.0001) //     22 jjjjjjjjjjjjjjjjjjiiiiiiiiiiiiiiiiiiiiiiiiiiiiiiiiiiiiiiiiiiiiiiiiiii.......
(PID.TID 0000.0001) //     21 iiiiiiiiiiiiiiiiiiiiiiiiiiiiiiiiiiiiiiiiiiiiiiiiiiiiiiiiiiiiiiiiiiiii.......
(PID.TID 0000.0001) //     20 iiiiiiiiiiiiiiiiiiiiiiiiiiiiiiiiiiiiiiiiiiiiiiiiiiiiiiiiihhhhhhhhhhhh.......
(PID.TID 0000.0001) //     19 iiiiiiiiiiihhhhhhhhhhhhhhhhhhhhhhhhhhhhhhhhhhhhhhhhhhhhhhhhhhhhhhhhhh.......
(PID.TID 0000.0001) //     18 hhhhhhhhhhhhhhhhhhhhhhhhhhhhhhhhhhhhhhhhhhhhhhhhhhhhhhhhhhhhhhhhhhhhh.......
(PID.TID 0000.0001) //     17 hhhhhhhhhhhhhhhhhhhhhhhhhhhhhhhhhhhhhhhhhhhhhhhhhgggggggggggggggggggg.......
(PID.TID 0000.0001) //     16 hhhhhgggggggggggggggggggggggggggggggggggggggggggggggggggggggggggggggg.......
(PID.TID 0000.0001) //     15 ggggggggggggggggggggggggggggggggggggggggggggggggggggggggggggggggggggg.......
(PID.TID 0000.0001) //     14 ggggggggggggggggggggggggggggggggggggggggggfffffffffffffffffffffffffff.......
(PID.TID 0000.0001) //     13 fffffffffffffffffffffffffffffffffffffffffffffffffffffffffffffffffffff.......
(PID.TID 0000.0001) //     12 fffffffffffffffffffffffffffffffffffffffffffffffffffffffffffffffffffff.......
(PID.TID 0000.0001) //     11 fffffffffffffffffffffffffffffffffffffeeeeeeeeeeeeeeeeeeeeeeeeeeeeeeee.......
(PID.TID 0000.0001) //     10 eeeeeeeeeeeeeeeeeeeeeeeeeeeeeeeeeeeeeeeeeeeeeeeeeeeeeeeeeeeeeeeeeeeee.......
(PID.TID 0000.0001) //      9 eeeeeeeeeeeeeeeeeeeeeeeeeeeeeeeeeeeeeeeeeeeeeeeeeeeeeeeeeeeeeeeeeeeee.......
(PID.TID 0000.0001) //      8 eeeeeeeeeeeeeeeeeeeeeeeeeeeeeeeeedddddddddddddddddddddddddddddddddddd.......
(PID.TID 0000.0001) //      7 ddddddddddddddddddddddddddddddddddddddddddddddddddddddddddddddddddddd.......
(PID.TID 0000.0001) //      6 ddddddddddddddddddddddddddddddddddddddddddddddddddddddddddddddddddddd.......
(PID.TID 0000.0001) //      5 ddddddddddddddddddddddddddddddccccccccccccccccccccccccccccccccccccccc.......
(PID.TID 0000.0001) //      4 ccccccccccccccccccccccccccccccccccccccccccccccccccccccccccccccccccccc.......
(PID.TID 0000.0001) //      3 ccccccccccccccccccccccccccccccccccccccccccccccccccccccccccccccccccccc.......
(PID.TID 0000.0001) //      2 ccccccccccccccccccccccccccccbbbbbbbbbbbbbbbbbbbbbbbbbbbbbbbbbbbbbbbbb.......
(PID.TID 0000.0001) //      1 bbbbbbbbbbbbbbbbbbbbbbbbbbbbbbbbbbbbbbbbbbbbbbbbbbbbbbbbbbbbbbbbbbbbb.......
(PID.TID 0000.0001) //      0 bbbbbbbb....................................................................
(PID.TID 0000.0001) //     -1 bbbbbbbb....................................................................
(PID.TID 0000.0001) //     -2 aaaaaaaa....................................................................
(PID.TID 0000.0001) //     -3 aaaaaaaa....................................................................
(PID.TID 0000.0001) //     -4 aaaaaaaa....................................................................
(PID.TID 0000.0001) //     -5 --------....................................................................
(PID.TID 0000.0001) //     -6 --------....................................................................
(PID.TID 0000.0001) //     -7 ............................................................................
(PID.TID 0000.0001) // =======================================================
(PID.TID 0000.0001) // END OF FIELD                                          =
(PID.TID 0000.0001) // =======================================================
(PID.TID 0000.0001) 
(PID.TID 0000.0001) // =======================================================
(PID.TID 0000.0001) // Field Current dyG      at iteration          0
(PID.TID 0000.0001) // CMIN =          3.220228819930843E+03
(PID.TID 0000.0001) // CMAX =          3.481395522810717E+03
(PID.TID 0000.0001) // CINT =          9.672840847402751E+00
(PID.TID 0000.0001) // SYMBOLS (CMIN->CMAX): -abcdefghijklmnopqrstuvwxyz+
(PID.TID 0000.0001) //                  0.0: .
(PID.TID 0000.0001) // RANGE I (Lo:Hi:Step):(    -7:    68:     1)
(PID.TID 0000.0001) // RANGE J (Lo:Hi:Step):(    68:    -7:    -1)
(PID.TID 0000.0001) // RANGE K (Lo:Hi:Step):(   1:   1:   1)
(PID.TID 0000.0001) // =======================================================
(PID.TID 0000.0001) K =   1
(PID.TID 0000.0001) //                I=2       I=12      I=22      I=32      I=42      I=52      I=62
(PID.TID 0000.0001) // |--J--|765432101|345678901|345678901|345678901|345678901|345678901|345678901|345678
(PID.TID 0000.0001) //     68 wwxxxxxxxxxxxxxxxxxyyyyyyyyyyyyyyyyyyyyzzzzzzzzzzzzzzzzzzzzzzz++++++++++++++
(PID.TID 0000.0001) //     67 wwwwwwwxxxxxxxxxxxxxxxxxxyyyyyyyyyyyyyyyyyyyyzzzzzzzzzzzzzzzzzzzzzzzzz++++++
(PID.TID 0000.0001) //     66 wwwwwwwwwwwwxxxxxxxxxxxxxxxxxxxyyyyyyyyyyyyyyyyyyyyyzzzzzzzzzzzzzzzzzzzzzzzz
(PID.TID 0000.0001) //     65 wwwwwwwwwwwwwwwwwwxxxxxxxxxxxxxxxxxxxyyyyyyyyyyyyyyyyyyyyyyyzzzzzzzzzzzzzzzz
(PID.TID 0000.0001) //     64 vvvvvvwwwwwwwwwwwwwwwwwxxxxxxxxxxxxxxxxxxxxxyyyyyyyyyyyyyyyyyyyyyyyyzzzzzzzz
(PID.TID 0000.0001) //     63 vvvvvvvvvvvwwwwwwwwwwwwwwwwwwxxxxxxxxxxxxxxxxxxxxxxyyyyyyyyyyyyyyyyyyyyyyyyy
(PID.TID 0000.0001) //     62 vvvvvvvvvvvvvvvvwwwwwwwwwwwwwwwwwwwwxxxxxxxxxxxxxxxxxxxxxxyyyyyyyyyyyyyyyyyy
(PID.TID 0000.0001) //     61 uuuuvvvvvvvvvvvvvvvvvvwwwwwwwwwwwwwwwwwwwwxxxxxxxxxxxxxxxxxxxxxxxxyyyyyyyyyy
(PID.TID 0000.0001) //     60 uuuuuuuuuuvvvvvvvvvvvvvvvvvvwwwwwwwwwwwwwwwwwwwwwxxxxxxxxxxxxxxxxxxxx.......
(PID.TID 0000.0001) //     59 uuuuuuuuuuuuuuuvvvvvvvvvvvvvvvvvvvwwwwwwwwwwwwwwwwwwwwwwxxxxxxxxxxxxx.......
(PID.TID 0000.0001) //     58 tttuuuuuuuuuuuuuuuuuuvvvvvvvvvvvvvvvvvvvvwwwwwwwwwwwwwwwwwwwwwwwxxxxx.......
(PID.TID 0000.0001) //     57 ttttttttuuuuuuuuuuuuuuuuuuvvvvvvvvvvvvvvvvvvvvvwwwwwwwwwwwwwwwwwwwwww.......
(PID.TID 0000.0001) //     56 ttttttttttttttuuuuuuuuuuuuuuuuuuuvvvvvvvvvvvvvvvvvvvvvvwwwwwwwwwwwwww.......
(PID.TID 0000.0001) //     55 sstttttttttttttttttuuuuuuuuuuuuuuuuuuuuvvvvvvvvvvvvvvvvvvvvvvvvwwwwww.......
(PID.TID 0000.0001) //     54 sssssssttttttttttttttttttuuuuuuuuuuuuuuuuuuuuuvvvvvvvvvvvvvvvvvvvvvvv.......
(PID.TID 0000.0001) //     53 sssssssssssstttttttttttttttttttuuuuuuuuuuuuuuuuuuuuuuvvvvvvvvvvvvvvvv.......
(PID.TID 0000.0001) //     52 rsssssssssssssssssttttttttttttttttttttuuuuuuuuuuuuuuuuuuuuuuuvvvvvvvv.......
(PID.TID 0000.0001) //     51 rrrrrrssssssssssssssssssttttttttttttttttttttuuuuuuuuuuuuuuuuuuuuuuuuu.......
(PID.TID 0000.0001) //     50 rrrrrrrrrrrsssssssssssssssssssttttttttttttttttttttttuuuuuuuuuuuuuuuuu.......
(PID.TID 0000.0001) //     49 rrrrrrrrrrrrrrrrrssssssssssssssssssstttttttttttttttttttttttuuuuuuuuuu.......
(PID.TID 0000.0001) //     48 qqqqqrrrrrrrrrrrrrrrrrssssssssssssssssssssstttttttttttttttttttttttttu.......
(PID.TID 0000.0001) //     47 qqqqqqqqqqrrrrrrrrrrrrrrrrrrrsssssssssssssssssssssttttttttttttttttttt.......
(PID.TID 0000.0001) //     46 qqqqqqqqqqqqqqqrrrrrrrrrrrrrrrrrrrrsssssssssssssssssssssssttttttttttt.......
(PID.TID 0000.0001) //     45 pppqqqqqqqqqqqqqqqqqqrrrrrrrrrrrrrrrrrrrrrssssssssssssssssssssssssttt.......
(PID.TID 0000.0001) //     44 pppppppppqqqqqqqqqqqqqqqqqqrrrrrrrrrrrrrrrrrrrrrrssssssssssssssssssss.......
(PID.TID 0000.0001) //     43 ppppppppppppppqqqqqqqqqqqqqqqqqqqrrrrrrrrrrrrrrrrrrrrrrrsssssssssssss.......
(PID.TID 0000.0001) //     42 ooppppppppppppppppppqqqqqqqqqqqqqqqqqqqqrrrrrrrrrrrrrrrrrrrrrrrrsssss.......
(PID.TID 0000.0001) //     41 ooooooooppppppppppppppppppqqqqqqqqqqqqqqqqqqqqqrrrrrrrrrrrrrrrrrrrrrr.......
(PID.TID 0000.0001) //     40 ooooooooooooopppppppppppppppppppqqqqqqqqqqqqqqqqqqqqqqqrrrrrrrrrrrrrr.......
(PID.TID 0000.0001) //     39 nooooooooooooooooooppppppppppppppppppppqqqqqqqqqqqqqqqqqqqqqqqqrrrrrr.......
(PID.TID 0000.0001) //     38 nnnnnnooooooooooooooooooopppppppppppppppppppppqqqqqqqqqqqqqqqqqqqqqqq.......
(PID.TID 0000.0001) //     37 nnnnnnnnnnnnoooooooooooooooooooppppppppppppppppppppppqqqqqqqqqqqqqqqq.......
(PID.TID 0000.0001) //     36 nnnnnnnnnnnnnnnnnnoooooooooooooooooooppppppppppppppppppppppppqqqqqqqq.......
(PID.TID 0000.0001) //     35 mmmmmnnnnnnnnnnnnnnnnnnoooooooooooooooooooooppppppppppppppppppppppppp.......
(PID.TID 0000.0001) //     34 mmmmmmmmmmmnnnnnnnnnnnnnnnnnnnooooooooooooooooooooooppppppppppppppppp.......
(PID.TID 0000.0001) //     33 mmmmmmmmmmmmmmmmnnnnnnnnnnnnnnnnnnnnooooooooooooooooooooooopppppppppp.......
(PID.TID 0000.0001) //     32 llllmmmmmmmmmmmmmmmmmmnnnnnnnnnnnnnnnnnnnnnooooooooooooooooooooooooop.......
(PID.TID 0000.0001) //     31 llllllllllmmmmmmmmmmmmmmmmmmnnnnnnnnnnnnnnnnnnnnnnooooooooooooooooooo.......
(PID.TID 0000.0001) //     30 lllllllllllllllmmmmmmmmmmmmmmmmmmmmnnnnnnnnnnnnnnnnnnnnnnnooooooooooo.......
(PID.TID 0000.0001) //     29 kkkllllllllllllllllllmmmmmmmmmmmmmmmmmmmmmnnnnnnnnnnnnnnnnnnnnnnnnooo.......
(PID.TID 0000.0001) //     28 kkkkkkkkkllllllllllllllllllmmmmmmmmmmmmmmmmmmmmmmnnnnnnnnnnnnnnnnnnnn.......
(PID.TID 0000.0001) //     27 kkkkkkkkkkkkkkllllllllllllllllllllmmmmmmmmmmmmmmmmmmmmmmmnnnnnnnnnnnn.......
(PID.TID 0000.0001) //     26 jjkkkkkkkkkkkkkkkkkkllllllllllllllllllllmmmmmmmmmmmmmmmmmmmmmmmmmnnnn.......
(PID.TID 0000.0001) //     25 jjjjjjjjkkkkkkkkkkkkkkkkkklllllllllllllllllllllmmmmmmmmmmmmmmmmmmmmmm.......
(PID.TID 0000.0001) //     24 jjjjjjjjjjjjjkkkkkkkkkkkkkkkkkkklllllllllllllllllllllllmmmmmmmmmmmmmm.......
(PID.TID 0000.0001) //     23 ijjjjjjjjjjjjjjjjjjkkkkkkkkkkkkkkkkkkkkllllllllllllllllllllllllmmmmmm.......
(PID.TID 0000.0001) //     22 iiiiiijjjjjjjjjjjjjjjjjjjkkkkkkkkkkkkkkkkkkkkklllllllllllllllllllllll.......
(PID.TID 0000.0001) //     21 iiiiiiiiiiiijjjjjjjjjjjjjjjjjjjkkkkkkkkkkkkkkkkkkkkkkklllllllllllllll.......
(PID.TID 0000.0001) //     20 iiiiiiiiiiiiiiiiiijjjjjjjjjjjjjjjjjjjjkkkkkkkkkkkkkkkkkkkkkkkklllllll.......
(PID.TID 0000.0001) //     19 hhhhhiiiiiiiiiiiiiiiiiiijjjjjjjjjjjjjjjjjjjjjkkkkkkkkkkkkkkkkkkkkkkkk.......
(PID.TID 0000.0001) //     18 hhhhhhhhhhhiiiiiiiiiiiiiiiiiiijjjjjjjjjjjjjjjjjjjjjjkkkkkkkkkkkkkkkkk.......
(PID.TID 0000.0001) //     17 hhhhhhhhhhhhhhhhhiiiiiiiiiiiiiiiiiiiijjjjjjjjjjjjjjjjjjjjjjjkkkkkkkkk.......
(PID.TID 0000.0001) //     16 ggggghhhhhhhhhhhhhhhhhhiiiiiiiiiiiiiiiiiiiiijjjjjjjjjjjjjjjjjjjjjjjjj.......
(PID.TID 0000.0001) //     15 gggggggggghhhhhhhhhhhhhhhhhhhiiiiiiiiiiiiiiiiiiiiiijjjjjjjjjjjjjjjjjj.......
(PID.TID 0000.0001) //     14 gggggggggggggggghhhhhhhhhhhhhhhhhhhhiiiiiiiiiiiiiiiiiiiiiiijjjjjjjjjj.......
(PID.TID 0000.0001) //     13 ffffgggggggggggggggggghhhhhhhhhhhhhhhhhhhhiiiiiiiiiiiiiiiiiiiiiiiiiij.......
(PID.TID 0000.0001) //     12 fffffffffggggggggggggggggggghhhhhhhhhhhhhhhhhhhhhhiiiiiiiiiiiiiiiiiii.......
(PID.TID 0000.0001) //     11 fffffffffffffffggggggggggggggggggghhhhhhhhhhhhhhhhhhhhhhhhiiiiiiiiiii.......
(PID.TID 0000.0001) //     10 eeeffffffffffffffffffgggggggggggggggggggghhhhhhhhhhhhhhhhhhhhhhhhhiii.......
(PID.TID 0000.0001) //      9 eeeeeeeefffffffffffffffffffgggggggggggggggggggggghhhhhhhhhhhhhhhhhhhh.......
(PID.TID 0000.0001) //      8 eeeeeeeeeeeeeefffffffffffffffffffggggggggggggggggggggggghhhhhhhhhhhhh.......
(PID.TID 0000.0001) //      7 ddeeeeeeeeeeeeeeeeeeffffffffffffffffffffggggggggggggggggggggggggghhhh.......
(PID.TID 0000.0001) //      6 dddddddeeeeeeeeeeeeeeeeeeefffffffffffffffffffffgggggggggggggggggggggg.......
(PID.TID 0000.0001) //      5 dddddddddddddeeeeeeeeeeeeeeeeeeefffffffffffffffffffffffgggggggggggggg.......
(PID.TID 0000.0001) //      4 cddddddddddddddddddeeeeeeeeeeeeeeeeeeeeffffffffffffffffffffffffgggggg.......
(PID.TID 0000.0001) //      3 ccccccdddddddddddddddddddeeeeeeeeeeeeeeeeeeeeefffffffffffffffffffffff.......
(PID.TID 0000.0001) //      2 ccccccccccccdddddddddddddddddddeeeeeeeeeeeeeeeeeeeeeeefffffffffffffff.......
(PID.TID 0000.0001) //      1 ccccccccccccccccccddddddddddddddddddddeeeeeeeeeeeeeeeeeeeeeeeefffffff.......
(PID.TID 0000.0001) //      0 bbbbbccc....................................................................
(PID.TID 0000.0001) //     -1 bbbbbbbb....................................................................
(PID.TID 0000.0001) //     -2 bbbbbbbb....................................................................
(PID.TID 0000.0001) //     -3 aaaabbbb....................................................................
(PID.TID 0000.0001) //     -4 aaaaaaaa....................................................................
(PID.TID 0000.0001) //     -5 aaaaaaaa....................................................................
(PID.TID 0000.0001) //     -6 ----aaaa....................................................................
(PID.TID 0000.0001) //     -7 --------....................................................................
(PID.TID 0000.0001) // =======================================================
(PID.TID 0000.0001) // END OF FIELD                                          =
(PID.TID 0000.0001) // =======================================================
(PID.TID 0000.0001) 
(PID.TID 0000.0001) // =======================================================
(PID.TID 0000.0001) // Field Current AngleCS  at iteration          0
(PID.TID 0000.0001) // CMIN =          1.051735076925235E-04
(PID.TID 0000.0001) // CMAX =          1.000000000000000E+00
(PID.TID 0000.0001) // CINT =          3.703314172193731E-02
(PID.TID 0000.0001) // SYMBOLS (CMIN->CMAX): -abcdefghijklmnopqrstuvwxyz+
(PID.TID 0000.0001) //                  0.0: .
(PID.TID 0000.0001) // RANGE I (Lo:Hi:Step):(    -7:    68:     1)
(PID.TID 0000.0001) // RANGE J (Lo:Hi:Step):(    68:    -7:    -1)
(PID.TID 0000.0001) // RANGE K (Lo:Hi:Step):(   1:   1:   1)
(PID.TID 0000.0001) // =======================================================
(PID.TID 0000.0001) K =   1
(PID.TID 0000.0001) //                I=2       I=12      I=22      I=32      I=42      I=52      I=62
(PID.TID 0000.0001) // |--J--|765432101|345678901|345678901|345678901|345678901|345678901|345678901|345678
(PID.TID 0000.0001) //     68 ++++++++++++++++++++++++++++++++++++++++++++++++++++++++++++++++++++++++++++
(PID.TID 0000.0001) //     67 ++++++++++++++++++++++++++++++++++++++++++++++++++++++++++++++++++++++++++++
(PID.TID 0000.0001) //     66 ++++++++++++++++++++++++++++++++++++++++++++++++++++++++++++++++++++++++++++
(PID.TID 0000.0001) //     65 ++++++++++++++++++++++++++++++++++++++++++++++++++++++++++++++++++++++++++++
(PID.TID 0000.0001) //     64 ++++++++++++++++++++++++++++++++++++++++++++++++++++++++++++++++++++++++++++
(PID.TID 0000.0001) //     63 ++++++++++++++++++++++++++++++++++++++++++++++++++++++++++++++++++++++++++++
(PID.TID 0000.0001) //     62 ++++++++++++++++++++++++++++++++++++++++++++++++++++++++++++++++++++++++++++
(PID.TID 0000.0001) //     61 ++++++++++++++++++++++++++++++++++++++++++++++++++++++++++++++++++++++++++++
(PID.TID 0000.0001) //     60 ++++++++++++++++++++++++++++++++++++++++++++++++++++++++++++++++++++-......+
(PID.TID 0000.0001) //     59 ++++++++++++++++++++++++++++++++++++++++++++++++++++++++++++++++++++-......+
(PID.TID 0000.0001) //     58 ++++++++++++++++++++++++++++++++++++++++++++++++++++++++++++++++++++-......+
(PID.TID 0000.0001) //     57 ++++++++++++++++++++++++++++++++++++++++++++++++++++++++++++++++++++-......+
(PID.TID 0000.0001) //     56 ++++++++++++++++++++++++++++++++++++++++++++++++++++++++++++++++++++-......+
(PID.TID 0000.0001) //     55 ++++++++++++++++++++++++++++++++++++++++++++++++++++++++++++++++++++-......+
(PID.TID 0000.0001) //     54 ++++++++++++++++++++++++++++++++++++++++++++++++++++++++++++++++++++-......+
(PID.TID 0000.0001) //     53 ++++++++++++++++++++++++++++++++++++++++++++++++++++++++++++++++++++-......+
(PID.TID 0000.0001) //     52 ++++++++++++++++++++++++++++++++++++++++++++++++++++++++++++++++++++-......+
(PID.TID 0000.0001) //     51 ++++++++++++++++++++++++++++++++++++++++++++++++++++++++++++++++++++-......+
(PID.TID 0000.0001) //     50 ++++++++++++++++++++++++++++++++++++++++++++++++++++++++++++++++++++-......+
(PID.TID 0000.0001) //     49 ++++++++++++++++++++++++++++++++++++++++++++++++++++++++++++++++++++-......+
(PID.TID 0000.0001) //     48 ++++++++++++++++++++++++++++++++++++++++++++++++++++++++++++++++++++-......+
(PID.TID 0000.0001) //     47 ++++++++++++++++++++++++++++++++++++++++++++++++++++++++++++++++++++-......+
(PID.TID 0000.0001) //     46 ++++++++++++++++++++++++++++++++++++++++++++++++++++++++++++++++++++-......+
(PID.TID 0000.0001) //     45 ++++++++++++++++++++++++++++++++++++++++++++++++++++++++++++++++++++-......+
(PID.TID 0000.0001) //     44 ++++++++++++++++++++++++++++++++++++++++++++++++++++++++++++++++++++-......+
(PID.TID 0000.0001) //     43 ++++++++++++++++++++++++++++++++++++++++++++++++++++++++++++++++++++-......+
(PID.TID 0000.0001) //     42 ++++++++++++++++++++++++++++++++++++++++++++++++++++++++++++++++++++-......+
(PID.TID 0000.0001) //     41 ++++++++++++++++++++++++++++++++++++++++++++++++++++++++++++++++++++-......+
(PID.TID 0000.0001) //     40 ++++++++++++++++++++++++++++++++++++++++++++++++++++++++++++++++++++-......+
(PID.TID 0000.0001) //     39 ++++++++++++++++++++++++++++++++++++++++++++++++++++++++++++++++++++-......+
(PID.TID 0000.0001) //     38 ++++++++++++++++++++++++++++++++++++++++++++++++++++++++++++++++++++-......+
(PID.TID 0000.0001) //     37 ++++++++++++++++++++++++++++++++++++++++++++++++++++++++++++++++++++-......+
(PID.TID 0000.0001) //     36 ++++++++++++++++++++++++++++++++++++++++++++++++++++++++++++++++++++-......+
(PID.TID 0000.0001) //     35 ++++++++++++++++++++++++++++++++++++++++++++++++++++++++++++++++++++-......+
(PID.TID 0000.0001) //     34 ++++++++++++++++++++++++++++++++++++++++++++++++++++++++++++++++++++-......+
(PID.TID 0000.0001) //     33 ++++++++++++++++++++++++++++++++++++++++++++++++++++++++++++++++++++-......+
(PID.TID 0000.0001) //     32 ++++++++++++++++++++++++++++++++++++++++++++++++++++++++++++++++++++-......+
(PID.TID 0000.0001) //     31 ++++++++++++++++++++++++++++++++++++++++++++++++++++++++++++++++++++-......+
(PID.TID 0000.0001) //     30 ++++++++++++++++++++++++++++++++++++++++++++++++++++++++++++++++++++-......+
(PID.TID 0000.0001) //     29 ++++++++++++++++++++++++++++++++++++++++++++++++++++++++++++++++++++-......+
(PID.TID 0000.0001) //     28 ++++++++++++++++++++++++++++++++++++++++++++++++++++++++++++++++++++-......+
(PID.TID 0000.0001) //     27 ++++++++++++++++++++++++++++++++++++++++++++++++++++++++++++++++++++-......+
(PID.TID 0000.0001) //     26 ++++++++++++++++++++++++++++++++++++++++++++++++++++++++++++++++++++-......+
(PID.TID 0000.0001) //     25 ++++++++++++++++++++++++++++++++++++++++++++++++++++++++++++++++++++-......+
(PID.TID 0000.0001) //     24 ++++++++++++++++++++++++++++++++++++++++++++++++++++++++++++++++++++-......+
(PID.TID 0000.0001) //     23 ++++++++++++++++++++++++++++++++++++++++++++++++++++++++++++++++++++-......+
(PID.TID 0000.0001) //     22 ++++++++++++++++++++++++++++++++++++++++++++++++++++++++++++++++++++-......+
(PID.TID 0000.0001) //     21 ++++++++++++++++++++++++++++++++++++++++++++++++++++++++++++++++++++-......+
(PID.TID 0000.0001) //     20 ++++++++++++++++++++++++++++++++++++++++++++++++++++++++++++++++++++-......+
(PID.TID 0000.0001) //     19 ++++++++++++++++++++++++++++++++++++++++++++++++++++++++++++++++++++-......+
(PID.TID 0000.0001) //     18 ++++++++++++++++++++++++++++++++++++++++++++++++++++++++++++++++++++-......+
(PID.TID 0000.0001) //     17 ++++++++++++++++++++++++++++++++++++++++++++++++++++++++++++++++++++-......+
(PID.TID 0000.0001) //     16 ++++++++++++++++++++++++++++++++++++++++++++++++++++++++++++++++++++-......+
(PID.TID 0000.0001) //     15 ++++++++++++++++++++++++++++++++++++++++++++++++++++++++++++++++++++-......+
(PID.TID 0000.0001) //     14 ++++++++++++++++++++++++++++++++++++++++++++++++++++++++++++++++++++-......+
(PID.TID 0000.0001) //     13 ++++++++++++++++++++++++++++++++++++++++++++++++++++++++++++++++++++-......+
(PID.TID 0000.0001) //     12 ++++++++++++++++++++++++++++++++++++++++++++++++++++++++++++++++++++-......+
(PID.TID 0000.0001) //     11 ++++++++++++++++++++++++++++++++++++++++++++++++++++++++++++++++++++-......+
(PID.TID 0000.0001) //     10 ++++++++++++++++++++++++++++++++++++++++++++++++++++++++++++++++++++-......+
(PID.TID 0000.0001) //      9 ++++++++++++++++++++++++++++++++++++++++++++++++++++++++++++++++++++-......+
(PID.TID 0000.0001) //      8 ++++++++++++++++++++++++++++++++++++++++++++++++++++++++++++++++++++-......+
(PID.TID 0000.0001) //      7 ++++++++++++++++++++++++++++++++++++++++++++++++++++++++++++++++++++-......+
(PID.TID 0000.0001) //      6 ++++++++++++++++++++++++++++++++++++++++++++++++++++++++++++++++++++-......+
(PID.TID 0000.0001) //      5 ++++++++++++++++++++++++++++++++++++++++++++++++++++++++++++++++++++-......+
(PID.TID 0000.0001) //      4 ++++++++++++++++++++++++++++++++++++++++++++++++++++++++++++++++++++-......+
(PID.TID 0000.0001) //      3 ++++++++++++++++++++++++++++++++++++++++++++++++++++++++++++++++++++-......+
(PID.TID 0000.0001) //      2 ++++++++++++++++++++++++++++++++++++++++++++++++++++++++++++++++++++-......+
(PID.TID 0000.0001) //      1 ++++++++++++++++++++++++++++++++++++++++++++++++++++++++++++++++++++-......+
(PID.TID 0000.0001) //      0 +++++++o...................................................................+
(PID.TID 0000.0001) //     -1 +++++++n...................................................................+
(PID.TID 0000.0001) //     -2 +++++++n...................................................................+
(PID.TID 0000.0001) //     -3 +++++++n...................................................................+
(PID.TID 0000.0001) //     -4 +++++++n...................................................................+
(PID.TID 0000.0001) //     -5 +++++++n...................................................................+
(PID.TID 0000.0001) //     -6 +++++++n...................................................................+
(PID.TID 0000.0001) //     -7 +++++++n...................................................................+
(PID.TID 0000.0001) // =======================================================
(PID.TID 0000.0001) // END OF FIELD                                          =
(PID.TID 0000.0001) // =======================================================
(PID.TID 0000.0001) 
(PID.TID 0000.0001) // =======================================================
(PID.TID 0000.0001) // Field Current AngleSN  at iteration          0
(PID.TID 0000.0001) // CMIN =         -1.000000000000000E+00
(PID.TID 0000.0001) // CMAX =          1.000000000000000E+00
(PID.TID 0000.0001) // CINT =          7.407407407407407E-02
(PID.TID 0000.0001) // SYMBOLS (CMIN->CMAX): -abcdefghijklmnopqrstuvwxyz+
(PID.TID 0000.0001) //                  0.0: .
(PID.TID 0000.0001) // RANGE I (Lo:Hi:Step):(    -7:    68:     1)
(PID.TID 0000.0001) // RANGE J (Lo:Hi:Step):(    68:    -7:    -1)
(PID.TID 0000.0001) // RANGE K (Lo:Hi:Step):(   1:   1:   1)
(PID.TID 0000.0001) // =======================================================
(PID.TID 0000.0001) K =   1
(PID.TID 0000.0001) //                I=2       I=12      I=22      I=32      I=42      I=52      I=62
(PID.TID 0000.0001) // |--J--|765432101|345678901|345678901|345678901|345678901|345678901|345678901|345678
(PID.TID 0000.0001) //     68 llllllllllllllllllllmmmmmmmmmmmmmmmmmmmmmmmmmmmmmmmmmmmmmmmmmmmmmmmmmmmmmmmm
(PID.TID 0000.0001) //     67 lllllllllllllllllllllmmmmmmmmmmmmmmmmmmmmmmmmmmmmmmmmmmmmmmmmmmmmmmmmmmmmmmm
(PID.TID 0000.0001) //     66 lllllllllllllllllllllmmmmmmmmmmmmmmmmmmmmmmmmmmmmmmmmmmmmmmmmmmmmmmmmmmmmmmm
(PID.TID 0000.0001) //     65 llllllllllllllllllllllmmmmmmmmmmmmmmmmmmmmmmmmmmmmmmmmmmmmmmmmmmmmmmmmmmmmmm
(PID.TID 0000.0001) //     64 lllllllllllllllllllllllmmmmmmmmmmmmmmmmmmmmmmmmmmmmmmmmmmmmmmmmmmmmmmmmmmmmm
(PID.TID 0000.0001) //     63 llllllllllllllllllllllllmmmmmmmmmmmmmmmmmmmmmmmmmmmmmmmmmmmmmmmmmmmmmmmmmmmm
(PID.TID 0000.0001) //     62 lllllllllllllllllllllllllmmmmmmmmmmmmmmmmmmmmmmmmmmmmmmmmmmmmmmmmmmmmmmmmmmm
(PID.TID 0000.0001) //     61 llllllllllllllllllllllllllmmmmmmmmmmmmmmmmmmmmmmmmmmmmmmmmmmmmmmmmmmmmmmmmmm
(PID.TID 0000.0001) //     60 lllllllllllllllllllllllllllmmmmmmmmmmmmmmmmmmmmmmmmmmmmmmmmmmmmmmmmm+------.
(PID.TID 0000.0001) //     59 lllllllllllllllllllllllllllmmmmmmmmmmmmmmmmmmmmmmmmmmmmmmmmmmmmmmmmm+.......
(PID.TID 0000.0001) //     58 llllllllllllllllllllllllllllmmmmmmmmmmmmmmmmmmmmmmmmmmmmmmmmmmmmmmmm+.......
(PID.TID 0000.0001) //     57 lllllllllllllllllllllllllllllmmmmmmmmmmmmmmmmmmmmmmmmmmmmmmmmmmmmmmm+.......
(PID.TID 0000.0001) //     56 llllllllllllllllllllllllllllllmmmmmmmmmmmmmmmmmmmmmmmmmmmmmmmmmmmmmm+.......
(PID.TID 0000.0001) //     55 lllllllllllllllllllllllllllllllmmmmmmmmmmmmmmmmmmmmmmmmmmmmmmmmmmmmm+.......
(PID.TID 0000.0001) //     54 lllllllllllllllllllllllllllllllmmmmmmmmmmmmmmmmmmmmmmmmmmmmmmmmmmmmm+.......
(PID.TID 0000.0001) //     53 llllllllllllllllllllllllllllllllmmmmmmmmmmmmmmmmmmmmmmmmmmmmmmmmmmmm+.......
(PID.TID 0000.0001) //     52 lllllllllllllllllllllllllllllllllmmmmmmmmmmmmmmmmmmmmmmmmmmmmmmmmmmm+.......
(PID.TID 0000.0001) //     51 llllllllllllllllllllllllllllllllllmmmmmmmmmmmmmmmmmmmmmmmmmmmmmmmmmm+.......
(PID.TID 0000.0001) //     50 llllllllllllllllllllllllllllllllllmmmmmmmmmmmmmmmmmmmmmmmmmmmmmmmmmm+.......
(PID.TID 0000.0001) //     49 lllllllllllllllllllllllllllllllllllmmmmmmmmmmmmmmmmmmmmmmmmmmmmmmmmm+.......
(PID.TID 0000.0001) //     48 llllllllllllllllllllllllllllllllllllmmmmmmmmmmmmmmmmmmmmmmmmmmmmmmmm+.......
(PID.TID 0000.0001) //     47 lllllllllllllllllllllllllllllllllllllmmmmmmmmmmmmmmmmmmmmmmmmmmmmmmm+.......
(PID.TID 0000.0001) //     46 lllllllllllllllllllllllllllllllllllllmmmmmmmmmmmmmmmmmmmmmmmmmmmmmmm+.......
(PID.TID 0000.0001) //     45 llllllllllllllllllllllllllllllllllllllmmmmmmmmmmmmmmmmmmmmmmmmmmmmmm+.......
(PID.TID 0000.0001) //     44 lllllllllllllllllllllllllllllllllllllllmmmmmmmmmmmmmmmmmmmmmmmmmmmmm+.......
(PID.TID 0000.0001) //     43 llllllllllllllllllllllllllllllllllllllllmmmmmmmmmmmmmmmmmmmmmmmmmmmm+.......
(PID.TID 0000.0001) //     42 llllllllllllllllllllllllllllllllllllllllmmmmmmmmmmmmmmmmmmmmmmmmmmmm+.......
(PID.TID 0000.0001) //     41 lllllllllllllllllllllllllllllllllllllllllmmmmmmmmmmmmmmmmmmmmmmmmmmm+.......
(PID.TID 0000.0001) //     40 llllllllllllllllllllllllllllllllllllllllllmmmmmmmmmmmmmmmmmmmmmmmmmm+.......
(PID.TID 0000.0001) //     39 llllllllllllllllllllllllllllllllllllllllllmmmmmmmmmmmmmmmmmmmmmmmmmm+.......
(PID.TID 0000.0001) //     38 lllllllllllllllllllllllllllllllllllllllllllmmmmmmmmmmmmmmmmmmmmmmmmm+.......
(PID.TID 0000.0001) //     37 llllllllllllllllllllllllllllllllllllllllllllmmmmmmmmmmmmmmmmmmmmmmmm+.......
(PID.TID 0000.0001) //     36 lllllllllllllllllllllllllllllllllllllllllllllmmmmmmmmmmmmmmmmmmmmmmm+.......
(PID.TID 0000.0001) //     35 lllllllllllllllllllllllllllllllllllllllllllllmmmmmmmmmmmmmmmmmmmmmmm+.......
(PID.TID 0000.0001) //     34 llllllllllllllllllllllllllllllllllllllllllllllmmmmmmmmmmmmmmmmmmmmmm+.......
(PID.TID 0000.0001) //     33 lllllllllllllllllllllllllllllllllllllllllllllllmmmmmmmmmmmmmmmmmmmmm+.......
(PID.TID 0000.0001) //     32 lllllllllllllllllllllllllllllllllllllllllllllllmmmmmmmmmmmmmmmmmmmmm+.......
(PID.TID 0000.0001) //     31 llllllllllllllllllllllllllllllllllllllllllllllllmmmmmmmmmmmmmmmmmmmm+.......
(PID.TID 0000.0001) //     30 lllllllllllllllllllllllllllllllllllllllllllllllllmmmmmmmmmmmmmmmmmmm+.......
(PID.TID 0000.0001) //     29 lllllllllllllllllllllllllllllllllllllllllllllllllmmmmmmmmmmmmmmmmmmm+.......
(PID.TID 0000.0001) //     28 llllllllllllllllllllllllllllllllllllllllllllllllllmmmmmmmmmmmmmmmmmm+.......
(PID.TID 0000.0001) //     27 lllllllllllllllllllllllllllllllllllllllllllllllllllmmmmmmmmmmmmmmmmm+.......
(PID.TID 0000.0001) //     26 lllllllllllllllllllllllllllllllllllllllllllllllllllmmmmmmmmmmmmmmmmm+.......
(PID.TID 0000.0001) //     25 llllllllllllllllllllllllllllllllllllllllllllllllllllmmmmmmmmmmmmmmmm+.......
(PID.TID 0000.0001) //     24 llllllllllllllllllllllllllllllllllllllllllllllllllllmmmmmmmmmmmmmmmm+.......
(PID.TID 0000.0001) //     23 lllllllllllllllllllllllllllllllllllllllllllllllllllllmmmmmmmmmmmmmmm+.......
(PID.TID 0000.0001) //     22 llllllllllllllllllllllllllllllllllllllllllllllllllllllmmmmmmmmmmmmmm+.......
(PID.TID 0000.0001) //     21 llllllllllllllllllllllllllllllllllllllllllllllllllllllmmmmmmmmmmmmmm+.......
(PID.TID 0000.0001) //     20 lllllllllllllllllllllllllllllllllllllllllllllllllllllllmmmmmmmmmmmmm+.......
(PID.TID 0000.0001) //     19 llllllllllllllllllllllllllllllllllllllllllllllllllllllllmmmmmmmmmmmm+.......
(PID.TID 0000.0001) //     18 llllllllllllllllllllllllllllllllllllllllllllllllllllllllmmmmmmmmmmmm+.......
(PID.TID 0000.0001) //     17 lllllllllllllllllllllllllllllllllllllllllllllllllllllllllmmmmmmmmmmm+.......
(PID.TID 0000.0001) //     16 lllllllllllllllllllllllllllllllllllllllllllllllllllllllllmmmmmmmmmmm+.......
(PID.TID 0000.0001) //     15 llllllllllllllllllllllllllllllllllllllllllllllllllllllllllmmmmmmmmmm+.......
(PID.TID 0000.0001) //     14 llllllllllllllllllllllllllllllllllllllllllllllllllllllllllmmmmmmmmmm+.......
(PID.TID 0000.0001) //     13 lllllllllllllllllllllllllllllllllllllllllllllllllllllllllllmmmmmmmmm+.......
(PID.TID 0000.0001) //     12 llllllllllllllllllllllllllllllllllllllllllllllllllllllllllllmmmmmmmm+.......
(PID.TID 0000.0001) //     11 llllllllllllllllllllllllllllllllllllllllllllllllllllllllllllmmmmmmmm+.......
(PID.TID 0000.0001) //     10 lllllllllllllllllllllllllllllllllllllllllllllllllllllllllllllmmmmmmm+.......
(PID.TID 0000.0001) //      9 lllllllllllllllllllllllllllllllllllllllllllllllllllllllllllllmmmmmmm+.......
(PID.TID 0000.0001) //      8 llllllllllllllllllllllllllllllllllllllllllllllllllllllllllllllmmmmmm+.......
(PID.TID 0000.0001) //      7 llllllllllllllllllllllllllllllllllllllllllllllllllllllllllllllmmmmmm+.......
(PID.TID 0000.0001) //      6 lllllllllllllllllllllllllllllllllllllllllllllllllllllllllllllllmmmmm+.......
(PID.TID 0000.0001) //      5 llllllllllllllllllllllllllllllllllllllllllllllllllllllllllllllllmmmm+.......
(PID.TID 0000.0001) //      4 llllllllllllllllllllllllllllllllllllllllllllllllllllllllllllllllmmmm+.......
(PID.TID 0000.0001) //      3 lllllllllllllllllllllllllllllllllllllllllllllllllllllllllllllllllmmm+.......
(PID.TID 0000.0001) //      2 lllllllllllllllllllllllllllllllllllllllllllllllllllllllllllllllllmmm+.......
(PID.TID 0000.0001) //      1 llllllllllllllllllllllllllllllllllllllllllllllllllllllllllllllllllmm+.......
(PID.TID 0000.0001) //      0 llllllly------------------------------------------------------------+.......
(PID.TID 0000.0001) //     -1 llllllly....................................................................
(PID.TID 0000.0001) //     -2 llllllly....................................................................
(PID.TID 0000.0001) //     -3 llllllly....................................................................
(PID.TID 0000.0001) //     -4 llllllly....................................................................
(PID.TID 0000.0001) //     -5 llllllly....................................................................
(PID.TID 0000.0001) //     -6 llllllly....................................................................
(PID.TID 0000.0001) //     -7 llllllly....................................................................
(PID.TID 0000.0001) // =======================================================
(PID.TID 0000.0001) // END OF FIELD                                          =
(PID.TID 0000.0001) // =======================================================
(PID.TID 0000.0001) 
(PID.TID 0000.0001) %MON XC_max                       =   1.7999997661245E+02
(PID.TID 0000.0001) %MON XC_min                       =  -1.7999983166372E+02
(PID.TID 0000.0001) %MON XC_mean                      =  -8.7277843703109E+00
(PID.TID 0000.0001) %MON XC_sd                        =   1.0668110491630E+02
(PID.TID 0000.0001) %MON XG_max                       =   1.8000000000000E+02
(PID.TID 0000.0001) %MON XG_min                       =  -1.7999998783633E+02
(PID.TID 0000.0001) %MON XG_mean                      =  -8.6678294510917E+00
(PID.TID 0000.0001) %MON XG_sd                        =   1.0668480045103E+02
(PID.TID 0000.0001) %MON DXC_max                      =   9.2647873296049E+03
(PID.TID 0000.0001) %MON DXC_min                      =   4.7340902102574E+02
(PID.TID 0000.0001) %MON DXC_mean                     =   5.9891913953169E+03
(PID.TID 0000.0001) %MON DXC_sd                       =   2.0123154677358E+03
(PID.TID 0000.0001) %MON DXF_max                      =   9.2647873296049E+03
(PID.TID 0000.0001) %MON DXF_min                      =   5.4714796279334E+02
(PID.TID 0000.0001) %MON DXF_mean                     =   5.9890487714398E+03
(PID.TID 0000.0001) %MON DXF_sd                       =   2.0124686886893E+03
(PID.TID 0000.0001) %MON DXG_max                      =   9.2647894460053E+03
(PID.TID 0000.0001) %MON DXG_min                      =   4.6645310556639E+02
(PID.TID 0000.0001) %MON DXG_mean                     =   5.9887440233252E+03
(PID.TID 0000.0001) %MON DXG_sd                       =   2.0125264475695E+03
(PID.TID 0000.0001) %MON DXV_max                      =   9.2647894460060E+03
(PID.TID 0000.0001) %MON DXV_min                      =   3.3563734154589E+02
(PID.TID 0000.0001) %MON DXV_mean                     =   5.9888865523440E+03
(PID.TID 0000.0001) %MON DXV_sd                       =   2.0123734831948E+03
(PID.TID 0000.0001) %MON YC_max                       =   8.9978283338108E+01
(PID.TID 0000.0001) %MON YC_min                       =  -8.8169828022337E+01
(PID.TID 0000.0001) %MON YC_mean                      =  -3.7864693817476E+00
(PID.TID 0000.0001) %MON YC_sd                        =   5.0746582455400E+01
(PID.TID 0000.0001) %MON YG_max                       =   9.0000000000000E+01
(PID.TID 0000.0001) %MON YG_min                       =  -8.8163925318119E+01
(PID.TID 0000.0001) %MON YG_mean                      =  -3.7840770592313E+00
(PID.TID 0000.0001) %MON YG_sd                        =   5.0747362123706E+01
(PID.TID 0000.0001) %MON DYC_max                      =   9.2647873296049E+03
(PID.TID 0000.0001) %MON DYC_min                      =   4.7340902102574E+02
(PID.TID 0000.0001) %MON DYC_mean                     =   5.9936022297357E+03
(PID.TID 0000.0001) %MON DYC_sd                       =   2.0651079805536E+03
(PID.TID 0000.0001) %MON DYF_max                      =   9.2647873296049E+03
(PID.TID 0000.0001) %MON DYF_min                      =   4.7624115303909E+02
(PID.TID 0000.0001) %MON DYF_mean                     =   5.9938342293682E+03
(PID.TID 0000.0001) %MON DYF_sd                       =   2.0650727163853E+03
(PID.TID 0000.0001) %MON DYG_max                      =   9.2647894460053E+03
(PID.TID 0000.0001) %MON DYG_min                      =   4.6645310556639E+02
(PID.TID 0000.0001) %MON DYG_mean                     =   5.9940634051942E+03
(PID.TID 0000.0001) %MON DYG_sd                       =   2.0648170708788E+03
(PID.TID 0000.0001) %MON DYU_max                      =   9.2647894460060E+03
(PID.TID 0000.0001) %MON DYU_min                      =   3.3563734154589E+02
(PID.TID 0000.0001) %MON DYU_mean                     =   5.9938313418546E+03
(PID.TID 0000.0001) %MON DYU_sd                       =   2.0648525418948E+03
(PID.TID 0000.0001) %MON RA_max                       =   7.9779861937138E+07
(PID.TID 0000.0001) %MON RA_min                       =   2.6575621931595E+05
(PID.TID 0000.0001) %MON RA_mean                      =   3.9924654567203E+07
(PID.TID 0000.0001) %MON RA_sd                        =   2.4393474176812E+07
(PID.TID 0000.0001) %MON RAW_max                      =   7.9781310590972E+07
(PID.TID 0000.0001) %MON RAW_min                      =   2.4241391552691E+05
(PID.TID 0000.0001) %MON RAW_mean                     =   3.9926079032507E+07
(PID.TID 0000.0001) %MON RAW_sd                       =   2.4392035384544E+07
(PID.TID 0000.0001) %MON RAS_max                      =   7.9781310590972E+07
(PID.TID 0000.0001) %MON RAS_min                      =   2.4241391552691E+05
(PID.TID 0000.0001) %MON RAS_mean                     =   3.9921622915077E+07
(PID.TID 0000.0001) %MON RAS_sd                       =   2.4393686678616E+07
(PID.TID 0000.0001) %MON RAZ_max                      =   7.9781310428794E+07
(PID.TID 0000.0001) %MON RAZ_min                      =   1.3028138966446E+05
(PID.TID 0000.0001) %MON RAZ_mean                     =   3.9923047264067E+07
(PID.TID 0000.0001) %MON RAZ_sd                       =   2.4392248312869E+07
(PID.TID 0000.0001) %MON AngleCS_max                  =   1.0000000000000E+00
(PID.TID 0000.0001) %MON AngleCS_min                  =  -9.9999977597736E-01
(PID.TID 0000.0001) %MON AngleCS_mean                 =   4.0001909089630E-01
(PID.TID 0000.0001) %MON AngleCS_sd                   =   5.3678027350799E-01
(PID.TID 0000.0001) %MON AngleSN_max                  =   9.9999977597736E-01
(PID.TID 0000.0001) %MON AngleSN_min                  =  -1.0000000000000E+00
(PID.TID 0000.0001) %MON AngleSN_mean                 =  -5.0291037681376E-01
(PID.TID 0000.0001) %MON AngleSN_sd                   =   5.4674748996609E-01
(PID.TID 0000.0001) DEBUG_MSG: CALLING S/R LOAD_REF_FILES
(PID.TID 0000.0001) DEBUG_MSG: CALLING S/R INI_EOS
(PID.TID 0000.0001) DEBUG_MSG: CALLING S/R SET_REF_STATE
(PID.TID 0000.0001)  MDS_WRITEVEC_LOC: open file: RhoRef.data
(PID.TID 0000.0001)  MDS_WR_REC_RL: iRec,Dim =         1         90
(PID.TID 0000.0001) DEBUG_MSG: CALLING S/R SET_GRID_FACTORS
(PID.TID 0000.0001) DEBUG_MSG: CALLING S/R INI_DEPTHS
(PID.TID 0000.0001)  MDS_READ_FIELD: opening global file: bathy1080_g5_r4
(PID.TID 0000.0001) // =======================================================
(PID.TID 0000.0001) // Field Bottom depths (ini_depths)
(PID.TID 0000.0001) // CMIN =         -1.250218994140625E+03
(PID.TID 0000.0001) // CMAX =         -6.513337135314941E+00
(PID.TID 0000.0001) // CINT =          4.606317248167815E+01
(PID.TID 0000.0001) // SYMBOLS (CMIN->CMAX): -abcdefghijklmnopqrstuvwxyz+
(PID.TID 0000.0001) //                  0.0: .
(PID.TID 0000.0001) // RANGE I (Lo:Hi:Step):(    -7:    68:     1)
(PID.TID 0000.0001) // RANGE J (Lo:Hi:Step):(    68:    -7:    -1)
(PID.TID 0000.0001) // RANGE K (Lo:Hi:Step):(   1:   1:   1)
(PID.TID 0000.0001) // =======================================================
(PID.TID 0000.0001) K =   1
(PID.TID 0000.0001) //                I=2       I=12      I=22      I=32      I=42      I=52      I=62
(PID.TID 0000.0001) // |--J--|765432101|345678901|345678901|345678901|345678901|345678901|345678901|345678
(PID.TID 0000.0001) //     68 dddcccccbbbbbaaaabbbbbcdccbbbbcdfghijklmnopqtvwx............................
(PID.TID 0000.0001) //     67 ddcccccbbbbaaaaaaabbbbbbccbbbbcdfgijklmmnoqrtvxz............................
(PID.TID 0000.0001) //     66 dccccbbbbaaaaaaaaaabbbbbbbbbbbcdfgijklmnopqsuxy.............................
(PID.TID 0000.0001) //     65 ccccbbbaaaaaaaaaaaaabbbbbbbbaacdfhijlmnopqsvwy+.............................
(PID.TID 0000.0001) //     64 ccbbbbaaaaaaaaaaaaaabbbbbbbbaabdfhiklmouvwxyy+..............................
(PID.TID 0000.0001) //     63 cbbbaaaaaaaaaaaaaaaabbbbbbbbaabdfhiklmtz...++...............................
(PID.TID 0000.0001) //     62 bbbaaaaaaaaaaaaaaaaabbbbbbbbaabdfhjkmr......................................
(PID.TID 0000.0001) //     61 bbaaaaaaaaaaaaaaaaaabbbbbbbbaabdgijmr.......................................
(PID.TID 0000.0001) //     60 aaaaaaaa-----aaaaaaabbbbbbbaabcegikr........................................
(PID.TID 0000.0001) //     59 bcaaaaa-------aaaaabbbbbbbbaabdegit.........................................
(PID.TID 0000.0001) //     58 egfdb---------aaaaabbbbbbbaabcdfqy+.........................................
(PID.TID 0000.0001) //     57 ikmmifda------aaabbcdddbbabbccfny+..........................................
(PID.TID 0000.0001) //     56 pqrttqhdhjfdjlkjdgijkkgcdeecdhlv............................................
(PID.TID 0000.0001) //     55 wwxyzysotvrtwxxwvttuuqkhnpollpuz............................................
(PID.TID 0000.0001) //     54 ..........z....z++++....z.zxxxz.............................................
(PID.TID 0000.0001) //     53 ............................................................................
(PID.TID 0000.0001) //     52 ............................................................................
(PID.TID 0000.0001) //     51 ............................................................................
(PID.TID 0000.0001) //     50 ............................................................................
(PID.TID 0000.0001) //     49 ............................................................................
(PID.TID 0000.0001) //     48 ............................................................................
(PID.TID 0000.0001) //     47 ............................................................................
(PID.TID 0000.0001) //     46 ............................................................................
(PID.TID 0000.0001) //     45 ............................................................................
(PID.TID 0000.0001) //     44 ............................................................................
(PID.TID 0000.0001) //     43 ............................................................................
(PID.TID 0000.0001) //     42 ............................................................................
(PID.TID 0000.0001) //     41 ............................................................................
(PID.TID 0000.0001) //     40 ............................................................................
(PID.TID 0000.0001) //     39 ............................................................................
(PID.TID 0000.0001) //     38 ............................................................................
(PID.TID 0000.0001) //     37 ............................................................................
(PID.TID 0000.0001) //     36 ............................................................................
(PID.TID 0000.0001) //     35 ............................................................................
(PID.TID 0000.0001) //     34 ............................................................................
(PID.TID 0000.0001) //     33 ............................................................................
(PID.TID 0000.0001) //     32 ............................................................................
(PID.TID 0000.0001) //     31 ............................................................................
(PID.TID 0000.0001) //     30 ............................................................................
(PID.TID 0000.0001) //     29 ............................................................................
(PID.TID 0000.0001) //     28 ............................................................................
(PID.TID 0000.0001) //     27 ............................................................................
(PID.TID 0000.0001) //     26 ............................................................................
(PID.TID 0000.0001) //     25 ............................................................................
(PID.TID 0000.0001) //     24 ............................................................................
(PID.TID 0000.0001) //     23 ............................................................................
(PID.TID 0000.0001) //     22 ............................................................................
(PID.TID 0000.0001) //     21 ............................................................................
(PID.TID 0000.0001) //     20 ............................................................................
(PID.TID 0000.0001) //     19 ............................................................................
(PID.TID 0000.0001) //     18 ............................................................................
(PID.TID 0000.0001) //     17 ............................................................................
(PID.TID 0000.0001) //     16 ............................................................................
(PID.TID 0000.0001) //     15 ............................................................................
(PID.TID 0000.0001) //     14 ............................................................................
(PID.TID 0000.0001) //     13 ............................................................................
(PID.TID 0000.0001) //     12 ............................................................................
(PID.TID 0000.0001) //     11 ............................................................................
(PID.TID 0000.0001) //     10 ............................................................................
(PID.TID 0000.0001) //      9 ............................................................................
(PID.TID 0000.0001) //      8 ............................................................................
(PID.TID 0000.0001) //      7 ............................................................................
(PID.TID 0000.0001) //      6 ............................................................................
(PID.TID 0000.0001) //      5 ............................................................................
(PID.TID 0000.0001) //      4 ............................................................................
(PID.TID 0000.0001) //      3 ............................................................................
(PID.TID 0000.0001) //      2 ............................................................................
(PID.TID 0000.0001) //      1 ............................................................................
(PID.TID 0000.0001) //      0 ............................................................................
(PID.TID 0000.0001) //     -1 ............................................................................
(PID.TID 0000.0001) //     -2 ............................................................................
(PID.TID 0000.0001) //     -3 ............................................................................
(PID.TID 0000.0001) //     -4 ............................................................................
(PID.TID 0000.0001) //     -5 ............................................................................
(PID.TID 0000.0001) //     -6 ............................................................................
(PID.TID 0000.0001) //     -7 ............................................................................
(PID.TID 0000.0001) // =======================================================
(PID.TID 0000.0001) // END OF FIELD                                          =
(PID.TID 0000.0001) // =======================================================
(PID.TID 0000.0001) 
(PID.TID 0000.0001) // =======================================================
(PID.TID 0000.0001) // Field Surface reference r-position (ini_depths)
(PID.TID 0000.0001) // CMIN =          1.000000000000000E+32
(PID.TID 0000.0001) // CMAX =         -1.000000000000000E+32
(PID.TID 0000.0001) // CINT =          0.000000000000000E+00
(PID.TID 0000.0001) // SYMBOLS (CMIN->CMAX): -abcdefghijklmnopqrstuvwxyz+
(PID.TID 0000.0001) //                  0.0: .
(PID.TID 0000.0001) // RANGE I (Lo:Hi:Step):(    -7:    68:     1)
(PID.TID 0000.0001) // RANGE J (Lo:Hi:Step):(    68:    -7:    -1)
(PID.TID 0000.0001) // RANGE K (Lo:Hi:Step):(   1:   1:   1)
(PID.TID 0000.0001) // =======================================================
(PID.TID 0000.0001) // =======================================================
(PID.TID 0000.0001) // END OF FIELD                                          =
(PID.TID 0000.0001) // =======================================================
(PID.TID 0000.0001) 
(PID.TID 0000.0001) DEBUG_MSG: CALLING S/R INI_MASKS_ETC
(PID.TID 0000.0001) // =======================================================
(PID.TID 0000.0001) // Field Model R_low (ini_masks_etc)
(PID.TID 0000.0001) // CMIN =         -1.250218994140625E+03
(PID.TID 0000.0001) // CMAX =         -6.513337135314941E+00
(PID.TID 0000.0001) // CINT =          4.606317248167815E+01
(PID.TID 0000.0001) // SYMBOLS (CMIN->CMAX): -abcdefghijklmnopqrstuvwxyz+
(PID.TID 0000.0001) //                  0.0: .
(PID.TID 0000.0001) // RANGE I (Lo:Hi:Step):(    -7:    68:     1)
(PID.TID 0000.0001) // RANGE J (Lo:Hi:Step):(    68:    -7:    -1)
(PID.TID 0000.0001) // RANGE K (Lo:Hi:Step):(   1:   1:   1)
(PID.TID 0000.0001) // =======================================================
(PID.TID 0000.0001) K =   1
(PID.TID 0000.0001) //                I=2       I=12      I=22      I=32      I=42      I=52      I=62
(PID.TID 0000.0001) // |--J--|765432101|345678901|345678901|345678901|345678901|345678901|345678901|345678
(PID.TID 0000.0001) //     68 dddcccccbbbbaaaaaabbbbcdccbbbbcdfghijklmnopqtvwx............................
(PID.TID 0000.0001) //     67 ddcccccbbbaaaaaaaaabbbbbccbbbbcdfgijklmmnoqrtvxz............................
(PID.TID 0000.0001) //     66 dccccbbbbaaaaaaaaaaabbbbbbbbbbcdfgijklmnopqsuxy.............................
(PID.TID 0000.0001) //     65 ccccbbbaaaaaaaaaaaaaabbbbbbbaacdfhijkmnopqsvwy+.............................
(PID.TID 0000.0001) //     64 ccbbbaaaaaaaaaaaaaaaabbbbbbbaabdfhiklmouvwxyy+..............................
(PID.TID 0000.0001) //     63 cbbbaaaaaaaaaaaaaaaaabbbbbbbaabdfhiklmtz...++...............................
(PID.TID 0000.0001) //     62 bbbaaaaaaaaaaaaaaaaaabbbbbbbaabdfhjkmr......................................
(PID.TID 0000.0001) //     61 baaaaaaaaaaaaaaaaaaaabbbbbbaaabdgijmr.......................................
(PID.TID 0000.0001) //     60 aaaaaaaa-----aaaaaaabbbbbbbaabcegikr........................................
(PID.TID 0000.0001) //     59 bcaaaaa-------aaaaaabbbbbbbaabdegit.........................................
(PID.TID 0000.0001) //     58 egfdb---------aaaaaabbbbbbaabcdfqx+.........................................
(PID.TID 0000.0001) //     57 ikmmifda------aaabbcdddbbaabccfny+..........................................
(PID.TID 0000.0001) //     56 pqrttqhdhjfdjkkjdgijkkgcdeecdhlv............................................
(PID.TID 0000.0001) //     55 wwxyzysotvrtwxxwvttuuqkhnpollpuz............................................
(PID.TID 0000.0001) //     54 ..........z....z++++....z.zxxxz.............................................
(PID.TID 0000.0001) //     53 ............................................................................
(PID.TID 0000.0001) //     52 ............................................................................
(PID.TID 0000.0001) //     51 ............................................................................
(PID.TID 0000.0001) //     50 ............................................................................
(PID.TID 0000.0001) //     49 ............................................................................
(PID.TID 0000.0001) //     48 ............................................................................
(PID.TID 0000.0001) //     47 ............................................................................
(PID.TID 0000.0001) //     46 ............................................................................
(PID.TID 0000.0001) //     45 ............................................................................
(PID.TID 0000.0001) //     44 ............................................................................
(PID.TID 0000.0001) //     43 ............................................................................
(PID.TID 0000.0001) //     42 ............................................................................
(PID.TID 0000.0001) //     41 ............................................................................
(PID.TID 0000.0001) //     40 ............................................................................
(PID.TID 0000.0001) //     39 ............................................................................
(PID.TID 0000.0001) //     38 ............................................................................
(PID.TID 0000.0001) //     37 ............................................................................
(PID.TID 0000.0001) //     36 ............................................................................
(PID.TID 0000.0001) //     35 ............................................................................
(PID.TID 0000.0001) //     34 ............................................................................
(PID.TID 0000.0001) //     33 ............................................................................
(PID.TID 0000.0001) //     32 ............................................................................
(PID.TID 0000.0001) //     31 ............................................................................
(PID.TID 0000.0001) //     30 ............................................................................
(PID.TID 0000.0001) //     29 ............................................................................
(PID.TID 0000.0001) //     28 ............................................................................
(PID.TID 0000.0001) //     27 ............................................................................
(PID.TID 0000.0001) //     26 ............................................................................
(PID.TID 0000.0001) //     25 ............................................................................
(PID.TID 0000.0001) //     24 ............................................................................
(PID.TID 0000.0001) //     23 ............................................................................
(PID.TID 0000.0001) //     22 ............................................................................
(PID.TID 0000.0001) //     21 ............................................................................
(PID.TID 0000.0001) //     20 ............................................................................
(PID.TID 0000.0001) //     19 ............................................................................
(PID.TID 0000.0001) //     18 ............................................................................
(PID.TID 0000.0001) //     17 ............................................................................
(PID.TID 0000.0001) //     16 ............................................................................
(PID.TID 0000.0001) //     15 ............................................................................
(PID.TID 0000.0001) //     14 ............................................................................
(PID.TID 0000.0001) //     13 ............................................................................
(PID.TID 0000.0001) //     12 ............................................................................
(PID.TID 0000.0001) //     11 ............................................................................
(PID.TID 0000.0001) //     10 ............................................................................
(PID.TID 0000.0001) //      9 ............................................................................
(PID.TID 0000.0001) //      8 ............................................................................
(PID.TID 0000.0001) //      7 ............................................................................
(PID.TID 0000.0001) //      6 ............................................................................
(PID.TID 0000.0001) //      5 ............................................................................
(PID.TID 0000.0001) //      4 ............................................................................
(PID.TID 0000.0001) //      3 ............................................................................
(PID.TID 0000.0001) //      2 ............................................................................
(PID.TID 0000.0001) //      1 ............................................................................
(PID.TID 0000.0001) //      0 ............................................................................
(PID.TID 0000.0001) //     -1 ............................................................................
(PID.TID 0000.0001) //     -2 ............................................................................
(PID.TID 0000.0001) //     -3 ............................................................................
(PID.TID 0000.0001) //     -4 ............................................................................
(PID.TID 0000.0001) //     -5 ............................................................................
(PID.TID 0000.0001) //     -6 ............................................................................
(PID.TID 0000.0001) //     -7 ............................................................................
(PID.TID 0000.0001) // =======================================================
(PID.TID 0000.0001) // END OF FIELD                                          =
(PID.TID 0000.0001) // =======================================================
(PID.TID 0000.0001) 
(PID.TID 0000.0001) // =======================================================
(PID.TID 0000.0001) // Field Model Ro_surf (ini_masks_etc)
(PID.TID 0000.0001) // CMIN =          1.000000000000000E+32
(PID.TID 0000.0001) // CMAX =         -1.000000000000000E+32
(PID.TID 0000.0001) // CINT =          0.000000000000000E+00
(PID.TID 0000.0001) // SYMBOLS (CMIN->CMAX): -abcdefghijklmnopqrstuvwxyz+
(PID.TID 0000.0001) //                  0.0: .
(PID.TID 0000.0001) // RANGE I (Lo:Hi:Step):(    -7:    68:     1)
(PID.TID 0000.0001) // RANGE J (Lo:Hi:Step):(    68:    -7:    -1)
(PID.TID 0000.0001) // RANGE K (Lo:Hi:Step):(   1:   1:   1)
(PID.TID 0000.0001) // =======================================================
(PID.TID 0000.0001) // =======================================================
(PID.TID 0000.0001) // END OF FIELD                                          =
(PID.TID 0000.0001) // =======================================================
(PID.TID 0000.0001) 
(PID.TID 0000.0001) // =======================================================
(PID.TID 0000.0001) // Field hFacC at iteration          0
(PID.TID 0000.0001) // CMIN =          1.000000000000000E+00
(PID.TID 0000.0001) // CMAX =          1.000000000000000E+00
(PID.TID 0000.0001) // CINT =          0.000000000000000E+00
(PID.TID 0000.0001) // SYMBOLS (CMIN->CMAX): -abcdefghijklmnopqrstuvwxyz+
(PID.TID 0000.0001) //                  0.0: .
(PID.TID 0000.0001) // RANGE I (Lo:Hi:Step):(    -7:    68:     1)
(PID.TID 0000.0001) // RANGE J (Lo:Hi:Step):(    68:    -7:    -1)
(PID.TID 0000.0001) // RANGE K (Lo:Hi:Step):(   1:   1:   1)
(PID.TID 0000.0001) // =======================================================
(PID.TID 0000.0001) // =======================================================
(PID.TID 0000.0001) // END OF FIELD                                          =
(PID.TID 0000.0001) // =======================================================
(PID.TID 0000.0001) 
(PID.TID 0000.0001) // =======================================================
(PID.TID 0000.0001) // Field hFacW at iteration          0
(PID.TID 0000.0001) // CMIN =          1.000000000000000E+00
(PID.TID 0000.0001) // CMAX =          1.000000000000000E+00
(PID.TID 0000.0001) // CINT =          0.000000000000000E+00
(PID.TID 0000.0001) // SYMBOLS (CMIN->CMAX): -abcdefghijklmnopqrstuvwxyz+
(PID.TID 0000.0001) //                  0.0: .
(PID.TID 0000.0001) // RANGE I (Lo:Hi:Step):(    -7:    68:     1)
(PID.TID 0000.0001) // RANGE J (Lo:Hi:Step):(    68:    -7:    -1)
(PID.TID 0000.0001) // RANGE K (Lo:Hi:Step):(   1:   1:   1)
(PID.TID 0000.0001) // =======================================================
(PID.TID 0000.0001) // =======================================================
(PID.TID 0000.0001) // END OF FIELD                                          =
(PID.TID 0000.0001) // =======================================================
(PID.TID 0000.0001) 
(PID.TID 0000.0001) // =======================================================
(PID.TID 0000.0001) // Field hFacS at iteration          0
(PID.TID 0000.0001) // CMIN =          1.000000000000000E+00
(PID.TID 0000.0001) // CMAX =          1.000000000000000E+00
(PID.TID 0000.0001) // CINT =          0.000000000000000E+00
(PID.TID 0000.0001) // SYMBOLS (CMIN->CMAX): -abcdefghijklmnopqrstuvwxyz+
(PID.TID 0000.0001) //                  0.0: .
(PID.TID 0000.0001) // RANGE I (Lo:Hi:Step):(    -7:    68:     1)
(PID.TID 0000.0001) // RANGE J (Lo:Hi:Step):(    68:    -7:    -1)
(PID.TID 0000.0001) // RANGE K (Lo:Hi:Step):(   1:   1:   1)
(PID.TID 0000.0001) // =======================================================
(PID.TID 0000.0001) // =======================================================
(PID.TID 0000.0001) // END OF FIELD                                          =
(PID.TID 0000.0001) // =======================================================
(PID.TID 0000.0001) 
(PID.TID 0000.0001) DEBUG_MSG: CALLING S/R PACKAGES_INIT_FIXED
(PID.TID 0000.0001) DEBUG_MSG: ENTERED S/R PACKAGES_INIT_FIXED
(PID.TID 0000.0001) DEBUG_MSG: CALLING S/R CAL_INIT_FIXED
(PID.TID 0000.0001) DEBUG_MSG: ENTERED S/R CAL_INIT_FIXED
(PID.TID 0000.0001) 
(PID.TID 0000.0001) // =======================================================
(PID.TID 0000.0001) // Calendar configuration >>> START <<<
(PID.TID 0000.0001) // =======================================================
(PID.TID 0000.0001) 
(PID.TID 0000.0001) modelstart = /* Start time of the model integration [s] */
(PID.TID 0000.0001)                 2.194560000000000E+08
(PID.TID 0000.0001)     ;
(PID.TID 0000.0001) modelend  = /* End time of the model integration [s] */
(PID.TID 0000.0001)                 2.195424000000000E+08
(PID.TID 0000.0001)     ;
(PID.TID 0000.0001) modelStep = /* Time interval for a model forward step [s] */
(PID.TID 0000.0001)                 3.000000000000000E+02
(PID.TID 0000.0001)     ;
(PID.TID 0000.0001) usingGregorianCalendar= /* Calendar Type: Gregorian Calendar */
(PID.TID 0000.0001)                   T
(PID.TID 0000.0001)     ;
(PID.TID 0000.0001) usingJulianCalendar = /* Calendar Type: Julian Calendar */
(PID.TID 0000.0001)                   F
(PID.TID 0000.0001)     ;
(PID.TID 0000.0001) usingNoLeapYearCal  = /* Calendar Type: without Leap Year */
(PID.TID 0000.0001)                   F
(PID.TID 0000.0001)     ;
(PID.TID 0000.0001) usingModelCalendar  = /* Calendar Type: Model Calendar */
(PID.TID 0000.0001)                   F
(PID.TID 0000.0001)     ;
(PID.TID 0000.0001) modelStartDate YYYYMMDD = /* Model start date YYYY-MM-DD */
(PID.TID 0000.0001)                20161215
(PID.TID 0000.0001)     ;
(PID.TID 0000.0001)   modelStartDate HHMMSS = /* Model start date HH-MM-SS  */
(PID.TID 0000.0001)                       0
(PID.TID 0000.0001)     ;
(PID.TID 0000.0001) modelEndDate   YYYYMMDD = /* Model end date YYYY-MM-DD */
(PID.TID 0000.0001)                20161216
(PID.TID 0000.0001)     ;
(PID.TID 0000.0001)   modelEndDate   HHMMSS = /* Model end date HH-MM-SS  */
(PID.TID 0000.0001)                       0
(PID.TID 0000.0001)     ;
(PID.TID 0000.0001) intyears = /* Number of calendar years affected by the integration */
(PID.TID 0000.0001)                       1
(PID.TID 0000.0001)     ;
(PID.TID 0000.0001) intmonths= /* Number of calendar months affected by the integration */
(PID.TID 0000.0001)                       1
(PID.TID 0000.0001)     ;
(PID.TID 0000.0001) intdays = /* Number of calendar days affected by the integration */
(PID.TID 0000.0001)                       1
(PID.TID 0000.0001)     ;
(PID.TID 0000.0001) modelIter0 = /* Base timestep number  */
(PID.TID 0000.0001)                  731520
(PID.TID 0000.0001)     ;
(PID.TID 0000.0001) modelIterEnd = /* Final timestep number  */
(PID.TID 0000.0001)                  731808
(PID.TID 0000.0001)     ;
(PID.TID 0000.0001) modelIntSteps= /* Number of model timesteps  */
(PID.TID 0000.0001)                     288
(PID.TID 0000.0001)     ;
(PID.TID 0000.0001) 
(PID.TID 0000.0001) // =======================================================
(PID.TID 0000.0001) // Calendar configuration  >>> END <<<
(PID.TID 0000.0001) // =======================================================
(PID.TID 0000.0001) 
(PID.TID 0000.0001) DEBUG_MSG: LEAVING S/R CAL_INIT_FIXED
(PID.TID 0000.0001) DEBUG_MSG: CALLING S/R DIAGNOSTICS_INIT_EARLY
(PID.TID 0000.0001) DEBUG_MSG: CALLING S/R DIAGNOSTICS_MAIN_INIT
(PID.TID 0000.0001) DEBUG_MSG: CALLING S/R GAD_INIT_FIXED
(PID.TID 0000.0001) GAD_INIT_FIXED: GAD_OlMinSize=  4  0  2
(PID.TID 0000.0001) 
(PID.TID 0000.0001) // ===================================
(PID.TID 0000.0001) // GAD parameters :
(PID.TID 0000.0001) // ===================================
(PID.TID 0000.0001) tempAdvScheme =   /* Temp. Horiz.Advection scheme selector */
(PID.TID 0000.0001)                       7
(PID.TID 0000.0001)     ;
(PID.TID 0000.0001) tempVertAdvScheme =   /* Temp. Vert. Advection scheme selector */
(PID.TID 0000.0001)                       7
(PID.TID 0000.0001)     ;
(PID.TID 0000.0001) tempMultiDimAdvec =   /* use Muti-Dim Advec method for Temp */
(PID.TID 0000.0001)                   T
(PID.TID 0000.0001)     ;
(PID.TID 0000.0001) tempSOM_Advection = /* use 2nd Order Moment Advection for Temp */
(PID.TID 0000.0001)                   F
(PID.TID 0000.0001)     ;
(PID.TID 0000.0001) AdamsBashforthGt = /* apply Adams-Bashforth extrapolation on Gt */
(PID.TID 0000.0001)                   F
(PID.TID 0000.0001)     ;
(PID.TID 0000.0001) AdamsBashforth_T = /* apply Adams-Bashforth extrapolation on Temp */
(PID.TID 0000.0001)                   F
(PID.TID 0000.0001)     ;
(PID.TID 0000.0001) saltAdvScheme =   /* Salt. Horiz.advection scheme selector */
(PID.TID 0000.0001)                       7
(PID.TID 0000.0001)     ;
(PID.TID 0000.0001) saltVertAdvScheme =   /* Salt. Vert. Advection scheme selector */
(PID.TID 0000.0001)                       7
(PID.TID 0000.0001)     ;
(PID.TID 0000.0001) saltMultiDimAdvec =   /* use Muti-Dim Advec method for Salt */
(PID.TID 0000.0001)                   T
(PID.TID 0000.0001)     ;
(PID.TID 0000.0001) saltSOM_Advection = /* use 2nd Order Moment Advection for Salt */
(PID.TID 0000.0001)                   F
(PID.TID 0000.0001)     ;
(PID.TID 0000.0001) AdamsBashforthGs = /* apply Adams-Bashforth extrapolation on Gs */
(PID.TID 0000.0001)                   F
(PID.TID 0000.0001)     ;
(PID.TID 0000.0001) AdamsBashforth_S = /* apply Adams-Bashforth extrapolation on Salt */
(PID.TID 0000.0001)                   F
(PID.TID 0000.0001)     ;
(PID.TID 0000.0001) // ===================================
(PID.TID 0000.0001) DEBUG_MSG: CALLING S/R MOM_INIT_FIXED
(PID.TID 0000.0001) DEBUG_MSG: CALLING S/R KPP_INIT_FIXED
(PID.TID 0000.0001) DEBUG_MSG: CALLING S/R FRAZIL_INIT_FIXED
(PID.TID 0000.0001) DEBUG_MSG: CALLING S/R DIAGNOSTICS_INIT_FIXED
(PID.TID 0000.0001) ------------------------------------------------------------
(PID.TID 0000.0001) DIAGNOSTICS_SET_LEVELS: done
(PID.TID 0000.0001)  Total Nb of available Diagnostics: ndiagt=   204
(PID.TID 0000.0001)  write list of available Diagnostics to file: available_diagnostics.log
(PID.TID 0000.0001) SETDIAG: Allocate  1 x  1 Levels for Diagnostic #    80 oceTAUX
(PID.TID 0000.0001) SETDIAG: Allocate  1 x  1 Levels for Diagnostic #    81 oceTAUY
(PID.TID 0000.0001) SETDIAG: Allocate  1 x  1 Levels for Diagnostic #    84 oceFWflx
(PID.TID 0000.0001) SETDIAG: Allocate  1 x  1 Levels for Diagnostic #    85 oceSflux
(PID.TID 0000.0001) SETDIAG: Allocate  1 x  1 Levels for Diagnostic #    86 oceQnet
(PID.TID 0000.0001) SETDIAG: Allocate  1 x  1 Levels for Diagnostic #    87 oceQsw
(PID.TID 0000.0001) SETDIAG: Allocate 90 x  1 Levels for Diagnostic #    27 SALT
(PID.TID 0000.0001) SETDIAG: Allocate 90 x  1 Levels for Diagnostic #    26 THETA
(PID.TID 0000.0001) SETDIAG: Allocate 90 x  1 Levels for Diagnostic #    45 UVELMASS
(PID.TID 0000.0001) SETDIAG: Allocate 90 x  1 Levels for Diagnostic #    46 VVELMASS
(PID.TID 0000.0001)   space allocated for all diagnostics:     366 levels
(PID.TID 0000.0001)   set mate pointer for diag #    80  oceTAUX  , Parms: UU      U1 , mate:    81
(PID.TID 0000.0001)   set mate pointer for diag #    81  oceTAUY  , Parms: VV      U1 , mate:    80
(PID.TID 0000.0001)   set mate pointer for diag #    45  UVELMASS , Parms: UUr     MR , mate:    46
(PID.TID 0000.0001)   set mate pointer for diag #    46  VVELMASS , Parms: VVr     MR , mate:    45
(PID.TID 0000.0001) DIAGNOSTICS_SET_POINTERS: Set levels for Outp.Stream: state_2d_set1
(PID.TID 0000.0001)  Levels:       1.
(PID.TID 0000.0001) DIAGNOSTICS_SET_POINTERS: done
(PID.TID 0000.0001) ------------------------------------------------------------
(PID.TID 0000.0001) DIAGSTATS_SET_REGIONS: define   0 regions:
(PID.TID 0000.0001) ------------------------------------------------------------
(PID.TID 0000.0001) SETDIAG: Allocate  1 Levels for Stats-Diag #    23 ETAN
(PID.TID 0000.0001) SETDIAG: Allocate 90 Levels for Stats-Diag #    26 THETA
(PID.TID 0000.0001) SETDIAG: Allocate 90 Levels for Stats-Diag #    27 SALT
(PID.TID 0000.0001) SETDIAG: Allocate  1 Levels for Stats-Diag #    86 oceQnet
(PID.TID 0000.0001) SETDIAG: Allocate  1 Levels for Stats-Diag #    84 oceFWflx
(PID.TID 0000.0001) SETDIAG: Allocate  1 Levels for Stats-Diag #    85 oceSflux
(PID.TID 0000.0001)   space allocated for all stats-diags:     184 levels
(PID.TID 0000.0001) DIAGSTATS_SET_POINTERS: done
(PID.TID 0000.0001) ------------------------------------------------------------
(PID.TID 0000.0001) DIAGSTATS_INI_IO: open file: dynStDiag.0000731520.txt , unit=    16
(PID.TID 0000.0001) DEBUG_MSG: LEAVING S/R PACKAGES_INIT_FIXED
(PID.TID 0000.0001) DEBUG_MSG: CALLING S/R INI_GLOBAL_DOMAIN
(PID.TID 0000.0001) INI_GLOBAL_DOMAIN: Found   0 CS-corner Pts in the domain
(PID.TID 0000.0001) DEBUG_MSG: CALLING S/R INI_LINEAR_PHISURF
(PID.TID 0000.0001) DEBUG_MSG: CALLING S/R INI_CORI
(PID.TID 0000.0001) %MON fCori_max                    =   1.4584245986382E-04
(PID.TID 0000.0001) %MON fCori_min                    =  -1.4576807330487E-04
(PID.TID 0000.0001) %MON fCori_mean                   =  -9.5842565964973E-06
(PID.TID 0000.0001) %MON fCori_sd                     =   1.0415165928033E-04
(PID.TID 0000.0001) %MON fCoriG_max                   =   1.4584247033981E-04
(PID.TID 0000.0001) %MON fCoriG_min                   =  -1.4576759267876E-04
(PID.TID 0000.0001) %MON fCoriG_mean                  =  -9.5802452299389E-06
(PID.TID 0000.0001) %MON fCoriG_sd                    =   1.0415424348933E-04
(PID.TID 0000.0001) %MON fCoriCos_max                 =   1.4584243702430E-04
(PID.TID 0000.0001) %MON fCoriCos_min                 =   5.5278269514630E-08
(PID.TID 0000.0001) %MON fCoriCos_mean                =   9.4102345496721E-05
(PID.TID 0000.0001) %MON fCoriCos_sd                  =   3.8410267136279E-05
(PID.TID 0000.0001) DEBUG_MSG: CALLING S/R INI_CG2D
(PID.TID 0000.0001) INI_CG2D: CG2D normalisation factor =  1.3131014046065476E-04
(PID.TID 0000.0001) 
(PID.TID 0000.0001) DEBUG_MSG: CALLING S/R CONFIG_SUMMARY
(PID.TID 0000.0001) // =======================================================
(PID.TID 0000.0001) // Model configuration
(PID.TID 0000.0001) // =======================================================
(PID.TID 0000.0001) //
(PID.TID 0000.0001) // "Physical" paramters ( PARM01 in namelist )
(PID.TID 0000.0001) //
(PID.TID 0000.0001) buoyancyRelation = /* Type of relation to get Buoyancy */
(PID.TID 0000.0001)               'OCEANIC'
(PID.TID 0000.0001)     ;
(PID.TID 0000.0001) fluidIsAir   =  /* fluid major constituent is Air */
(PID.TID 0000.0001)                   F
(PID.TID 0000.0001)     ;
(PID.TID 0000.0001) fluidIsWater =  /* fluid major constituent is Water */
(PID.TID 0000.0001)                   T
(PID.TID 0000.0001)     ;
(PID.TID 0000.0001) usingPCoords =  /* use p (or p*) vertical coordinate */
(PID.TID 0000.0001)                   F
(PID.TID 0000.0001)     ;
(PID.TID 0000.0001) usingZCoords =  /* use z (or z*) vertical coordinate */
(PID.TID 0000.0001)                   T
(PID.TID 0000.0001)     ;
(PID.TID 0000.0001) tRef =   /* Reference temperature profile ( oC or K ) */
(PID.TID 0000.0001)     5 @  1.889000000000000E+01,             /* K =  1:  5 */
(PID.TID 0000.0001)                 1.887000000000000E+01,      /* K =  6 */
(PID.TID 0000.0001)                 1.885000000000000E+01,      /* K =  7 */
(PID.TID 0000.0001)                 1.882000000000000E+01,      /* K =  8 */
(PID.TID 0000.0001)                 1.880000000000000E+01,      /* K =  9 */
(PID.TID 0000.0001)                 1.873000000000000E+01,      /* K = 10 */
(PID.TID 0000.0001)                 1.865000000000000E+01,      /* K = 11 */
(PID.TID 0000.0001)                 1.857000000000000E+01,      /* K = 12 */
(PID.TID 0000.0001)                 1.840000000000000E+01,      /* K = 13 */
(PID.TID 0000.0001)                 1.822000000000000E+01,      /* K = 14 */
(PID.TID 0000.0001)                 1.800000000000000E+01,      /* K = 15 */
(PID.TID 0000.0001)                 1.774000000000000E+01,      /* K = 16 */
(PID.TID 0000.0001)                 1.744000000000000E+01,      /* K = 17 */
(PID.TID 0000.0001)                 1.712000000000000E+01,      /* K = 18 */
(PID.TID 0000.0001)                 1.676000000000000E+01,      /* K = 19 */
(PID.TID 0000.0001)                 1.639000000000000E+01,      /* K = 20 */
(PID.TID 0000.0001)                 1.598000000000000E+01,      /* K = 21 */
(PID.TID 0000.0001)                 1.555000000000000E+01,      /* K = 22 */
(PID.TID 0000.0001)                 1.508000000000000E+01,      /* K = 23 */
(PID.TID 0000.0001)                 1.459000000000000E+01,      /* K = 24 */
(PID.TID 0000.0001)                 1.407000000000000E+01,      /* K = 25 */
(PID.TID 0000.0001)                 1.353000000000000E+01,      /* K = 26 */
(PID.TID 0000.0001)                 1.299000000000000E+01,      /* K = 27 */
(PID.TID 0000.0001)                 1.247000000000000E+01,      /* K = 28 */
(PID.TID 0000.0001)                 1.197000000000000E+01,      /* K = 29 */
(PID.TID 0000.0001)                 1.149000000000000E+01,      /* K = 30 */
(PID.TID 0000.0001)                 1.102000000000000E+01,      /* K = 31 */
(PID.TID 0000.0001)                 1.057000000000000E+01,      /* K = 32 */
(PID.TID 0000.0001)                 1.012000000000000E+01,      /* K = 33 */
(PID.TID 0000.0001)                 9.710000000000001E+00,      /* K = 34 */
(PID.TID 0000.0001)                 9.270000000000000E+00,      /* K = 35 */
(PID.TID 0000.0001)                 8.880000000000001E+00,      /* K = 36 */
(PID.TID 0000.0001)                 8.460000000000001E+00,      /* K = 37 */
(PID.TID 0000.0001)                 8.090000000000000E+00,      /* K = 38 */
(PID.TID 0000.0001)                 7.710000000000000E+00,      /* K = 39 */
(PID.TID 0000.0001)                 7.370000000000000E+00,      /* K = 40 */
(PID.TID 0000.0001)                 7.030000000000000E+00,      /* K = 41 */
(PID.TID 0000.0001)                 6.720000000000000E+00,      /* K = 42 */
(PID.TID 0000.0001)                 6.420000000000000E+00,      /* K = 43 */
(PID.TID 0000.0001)                 6.130000000000000E+00,      /* K = 44 */
(PID.TID 0000.0001)                 5.860000000000000E+00,      /* K = 45 */
(PID.TID 0000.0001)                 5.590000000000000E+00,      /* K = 46 */
(PID.TID 0000.0001)                 5.340000000000000E+00,      /* K = 47 */
(PID.TID 0000.0001)                 5.090000000000000E+00,      /* K = 48 */
(PID.TID 0000.0001)                 4.870000000000000E+00,      /* K = 49 */
(PID.TID 0000.0001)                 4.650000000000000E+00,      /* K = 50 */
(PID.TID 0000.0001)                 4.450000000000000E+00,      /* K = 51 */
(PID.TID 0000.0001)                 4.260000000000000E+00,      /* K = 52 */
(PID.TID 0000.0001)                 4.080000000000000E+00,      /* K = 53 */
(PID.TID 0000.0001)                 3.910000000000000E+00,      /* K = 54 */
(PID.TID 0000.0001)                 3.750000000000000E+00,      /* K = 55 */
(PID.TID 0000.0001)                 3.600000000000000E+00,      /* K = 56 */
(PID.TID 0000.0001)                 3.470000000000000E+00,      /* K = 57 */
(PID.TID 0000.0001)                 3.330000000000000E+00,      /* K = 58 */
(PID.TID 0000.0001)                 3.200000000000000E+00,      /* K = 59 */
(PID.TID 0000.0001)                 3.080000000000000E+00,      /* K = 60 */
(PID.TID 0000.0001)                 2.960000000000000E+00,      /* K = 61 */
(PID.TID 0000.0001)                 2.840000000000000E+00,      /* K = 62 */
(PID.TID 0000.0001)                 2.730000000000000E+00,      /* K = 63 */
(PID.TID 0000.0001)                 2.620000000000000E+00,      /* K = 64 */
(PID.TID 0000.0001)                 2.510000000000000E+00,      /* K = 65 */
(PID.TID 0000.0001)                 2.420000000000000E+00,      /* K = 66 */
(PID.TID 0000.0001)                 2.320000000000000E+00,      /* K = 67 */
(PID.TID 0000.0001)                 2.230000000000000E+00,      /* K = 68 */
(PID.TID 0000.0001)                 2.140000000000000E+00,      /* K = 69 */
(PID.TID 0000.0001)                 2.060000000000000E+00,      /* K = 70 */
(PID.TID 0000.0001)                 1.980000000000000E+00,      /* K = 71 */
(PID.TID 0000.0001)                 1.900000000000000E+00,      /* K = 72 */
(PID.TID 0000.0001)                 1.810000000000000E+00,      /* K = 73 */
(PID.TID 0000.0001)                 1.730000000000000E+00,      /* K = 74 */
(PID.TID 0000.0001)                 1.650000000000000E+00,      /* K = 75 */
(PID.TID 0000.0001)                 1.570000000000000E+00,      /* K = 76 */
(PID.TID 0000.0001)                 1.490000000000000E+00,      /* K = 77 */
(PID.TID 0000.0001)                 1.410000000000000E+00,      /* K = 78 */
(PID.TID 0000.0001)                 1.330000000000000E+00,      /* K = 79 */
(PID.TID 0000.0001)                 1.240000000000000E+00,      /* K = 80 */
(PID.TID 0000.0001)                 1.150000000000000E+00,      /* K = 81 */
(PID.TID 0000.0001)                 1.060000000000000E+00,      /* K = 82 */
(PID.TID 0000.0001)                 9.800000000000000E-01,      /* K = 83 */
(PID.TID 0000.0001)                 9.399999999999999E-01,      /* K = 84 */
(PID.TID 0000.0001)                 9.100000000000000E-01,      /* K = 85 */
(PID.TID 0000.0001)                 9.200000000000000E-01,      /* K = 86 */
(PID.TID 0000.0001)     4 @  9.800000000000000E-01              /* K = 87: 90 */
(PID.TID 0000.0001)     ;
(PID.TID 0000.0001) sRef =   /* Reference salinity profile ( psu ) */
(PID.TID 0000.0001)     6 @  3.484000000000000E+01,             /* K =  1:  6 */
(PID.TID 0000.0001)     3 @  3.485000000000000E+01,             /* K =  7:  9 */
(PID.TID 0000.0001)                 3.486000000000000E+01,      /* K = 10 */
(PID.TID 0000.0001)                 3.487000000000000E+01,      /* K = 11 */
(PID.TID 0000.0001)                 3.488000000000000E+01,      /* K = 12 */
(PID.TID 0000.0001)                 3.489000000000000E+01,      /* K = 13 */
(PID.TID 0000.0001)                 3.490000000000000E+01,      /* K = 14 */
(PID.TID 0000.0001)                 3.492000000000000E+01,      /* K = 15 */
(PID.TID 0000.0001)                 3.494000000000000E+01,      /* K = 16 */
(PID.TID 0000.0001)                 3.496000000000000E+01,      /* K = 17 */
(PID.TID 0000.0001)                 3.498000000000000E+01,      /* K = 18 */
(PID.TID 0000.0001)                 3.500000000000000E+01,      /* K = 19 */
(PID.TID 0000.0001)                 3.502000000000000E+01,      /* K = 20 */
(PID.TID 0000.0001)                 3.504000000000000E+01,      /* K = 21 */
(PID.TID 0000.0001)                 3.506000000000000E+01,      /* K = 22 */
(PID.TID 0000.0001)     3 @  3.507000000000000E+01,             /* K = 23: 25 */
(PID.TID 0000.0001)                 3.505000000000000E+01,      /* K = 26 */
(PID.TID 0000.0001)                 3.503000000000000E+01,      /* K = 27 */
(PID.TID 0000.0001)                 3.501000000000000E+01,      /* K = 28 */
(PID.TID 0000.0001)                 3.498000000000000E+01,      /* K = 29 */
(PID.TID 0000.0001)                 3.495000000000000E+01,      /* K = 30 */
(PID.TID 0000.0001)                 3.492000000000000E+01,      /* K = 31 */
(PID.TID 0000.0001)                 3.489000000000000E+01,      /* K = 32 */
(PID.TID 0000.0001)                 3.485000000000000E+01,      /* K = 33 */
(PID.TID 0000.0001)                 3.482000000000000E+01,      /* K = 34 */
(PID.TID 0000.0001)                 3.479000000000000E+01,      /* K = 35 */
(PID.TID 0000.0001)                 3.476000000000000E+01,      /* K = 36 */
(PID.TID 0000.0001)                 3.473000000000000E+01,      /* K = 37 */
(PID.TID 0000.0001)                 3.471000000000000E+01,      /* K = 38 */
(PID.TID 0000.0001)                 3.468000000000000E+01,      /* K = 39 */
(PID.TID 0000.0001)                 3.466000000000000E+01,      /* K = 40 */
(PID.TID 0000.0001)                 3.464000000000000E+01,      /* K = 41 */
(PID.TID 0000.0001)                 3.462000000000000E+01,      /* K = 42 */
(PID.TID 0000.0001)                 3.461000000000000E+01,      /* K = 43 */
(PID.TID 0000.0001)                 3.460000000000000E+01,      /* K = 44 */
(PID.TID 0000.0001)     2 @  3.459000000000000E+01,             /* K = 45: 46 */
(PID.TID 0000.0001)     2 @  3.458000000000000E+01,             /* K = 47: 48 */
(PID.TID 0000.0001)     2 @  3.459000000000000E+01,             /* K = 49: 50 */
(PID.TID 0000.0001)     2 @  3.460000000000000E+01,             /* K = 51: 52 */
(PID.TID 0000.0001)                 3.461000000000000E+01,      /* K = 53 */
(PID.TID 0000.0001)                 3.462000000000000E+01,      /* K = 54 */
(PID.TID 0000.0001)                 3.463000000000000E+01,      /* K = 55 */
(PID.TID 0000.0001)                 3.464000000000000E+01,      /* K = 56 */
(PID.TID 0000.0001)                 3.465000000000000E+01,      /* K = 57 */
(PID.TID 0000.0001)                 3.466000000000000E+01,      /* K = 58 */
(PID.TID 0000.0001)                 3.467000000000000E+01,      /* K = 59 */
(PID.TID 0000.0001)                 3.468000000000000E+01,      /* K = 60 */
(PID.TID 0000.0001)                 3.469000000000000E+01,      /* K = 61 */
(PID.TID 0000.0001)                 3.470000000000000E+01,      /* K = 62 */
(PID.TID 0000.0001)     2 @  3.471000000000000E+01,             /* K = 63: 64 */
(PID.TID 0000.0001)     2 @  3.472000000000000E+01,             /* K = 65: 66 */
(PID.TID 0000.0001)     2 @  3.473000000000000E+01,             /* K = 67: 68 */
(PID.TID 0000.0001)     4 @  3.474000000000000E+01,             /* K = 69: 72 */
(PID.TID 0000.0001)                 3.475000000000000E+01,      /* K = 73 */
(PID.TID 0000.0001)     7 @  3.474000000000000E+01,             /* K = 74: 80 */
(PID.TID 0000.0001)     5 @  3.473000000000000E+01,             /* K = 81: 85 */
(PID.TID 0000.0001)     5 @  3.472000000000000E+01              /* K = 86: 90 */
(PID.TID 0000.0001)     ;
(PID.TID 0000.0001) useStrainTensionVisc= /* Use StrainTension Form of Viscous Operator */
(PID.TID 0000.0001)                   F
(PID.TID 0000.0001)     ;
(PID.TID 0000.0001) useVariableVisc = /* Use variable horizontal viscosity */
(PID.TID 0000.0001)                   T
(PID.TID 0000.0001)     ;
(PID.TID 0000.0001) useHarmonicVisc = /* Use harmonic horizontal viscosity */
(PID.TID 0000.0001)                   F
(PID.TID 0000.0001)     ;
(PID.TID 0000.0001) useBiharmonicVisc= /* Use biharmonic horiz.  viscosity */
(PID.TID 0000.0001)                   T
(PID.TID 0000.0001)     ;
(PID.TID 0000.0001) useSmag3D = /* Use isotropic 3-D Smagorinsky viscosity */
(PID.TID 0000.0001)                   F
(PID.TID 0000.0001)     ;
(PID.TID 0000.0001) viscAh  =   /* Lateral harmonic viscosity ( m^2/s ) */
(PID.TID 0000.0001)                 0.000000000000000E+00
(PID.TID 0000.0001)     ;
(PID.TID 0000.0001) viscAhMax = /* Maximum lateral harmonic viscosity ( m^2/s ) */
(PID.TID 0000.0001)                 1.000000000000000E+21
(PID.TID 0000.0001)     ;
(PID.TID 0000.0001) viscAhGrid = /* Grid dependent lateral harmonic viscosity ( non-dim. ) */
(PID.TID 0000.0001)                 0.000000000000000E+00
(PID.TID 0000.0001)     ;
(PID.TID 0000.0001) useFullLeith = /* Use Full Form of Leith Viscosity on/off flag*/
(PID.TID 0000.0001)                   F
(PID.TID 0000.0001)     ;
(PID.TID 0000.0001) useAreaViscLength = /* Use area for visc length instead of geom. mean*/
(PID.TID 0000.0001)                   T
(PID.TID 0000.0001)     ;
(PID.TID 0000.0001) viscC2leith = /* Leith harmonic visc. factor (on grad(vort),non-dim.) */
(PID.TID 0000.0001)                 0.000000000000000E+00
(PID.TID 0000.0001)     ;
(PID.TID 0000.0001) viscC2leithD = /* Leith harmonic viscosity factor (on grad(div),non-dim.)*/
(PID.TID 0000.0001)                 0.000000000000000E+00
(PID.TID 0000.0001)     ;
(PID.TID 0000.0001) viscC2smag = /* Smagorinsky harmonic viscosity factor (non-dim.) */
(PID.TID 0000.0001)                 0.000000000000000E+00
(PID.TID 0000.0001)     ;
(PID.TID 0000.0001) viscA4  =   /* Lateral biharmonic viscosity ( m^4/s ) */
(PID.TID 0000.0001)                 0.000000000000000E+00
(PID.TID 0000.0001)     ;
(PID.TID 0000.0001) viscA4Max = /* Maximum biharmonic viscosity ( m^2/s ) */
(PID.TID 0000.0001)                 1.000000000000000E+21
(PID.TID 0000.0001)     ;
(PID.TID 0000.0001) viscA4Grid = /* Grid dependent biharmonic viscosity ( non-dim. ) */
(PID.TID 0000.0001)                 0.000000000000000E+00
(PID.TID 0000.0001)     ;
(PID.TID 0000.0001) viscC4leith = /* Leith biharm viscosity factor (on grad(vort), non-dim.)*/
(PID.TID 0000.0001)                 2.000000000000000E+00
(PID.TID 0000.0001)     ;
(PID.TID 0000.0001) viscC4leithD = /* Leith biharm viscosity factor (on grad(div), non-dim.) */
(PID.TID 0000.0001)                 2.000000000000000E+00
(PID.TID 0000.0001)     ;
(PID.TID 0000.0001) viscC4Smag = /* Smagorinsky biharm viscosity factor (non-dim) */
(PID.TID 0000.0001)                 0.000000000000000E+00
(PID.TID 0000.0001)     ;
(PID.TID 0000.0001) no_slip_sides =  /* Viscous BCs: No-slip sides */
(PID.TID 0000.0001)                   F
(PID.TID 0000.0001)     ;
(PID.TID 0000.0001) sideDragFactor = /* side-drag scaling factor (non-dim) */
(PID.TID 0000.0001)                 0.000000000000000E+00
(PID.TID 0000.0001)     ;
(PID.TID 0000.0001) viscArNr = /* vertical profile of vertical viscosity ( m^2/s )*/
(PID.TID 0000.0001)    90 @  5.661400000000000E-04              /* K =  1: 90 */
(PID.TID 0000.0001)     ;
(PID.TID 0000.0001) no_slip_bottom =  /* Viscous BCs: No-slip bottom */
(PID.TID 0000.0001)                   T
(PID.TID 0000.0001)     ;
(PID.TID 0000.0001) bottomVisc_pCell = /* Partial-cell in bottom Visc. BC */
(PID.TID 0000.0001)                   F
(PID.TID 0000.0001)     ;
(PID.TID 0000.0001) bottomDragLinear = /* linear bottom-drag coefficient ( m/s ) */
(PID.TID 0000.0001)                 0.000000000000000E+00
(PID.TID 0000.0001)     ;
(PID.TID 0000.0001) bottomDragQuadratic = /* quadratic bottom-drag coefficient (-) */
(PID.TID 0000.0001)                 2.100000000000000E-03
(PID.TID 0000.0001)     ;
(PID.TID 0000.0001) selectBotDragQuadr = /* select quadratic bottom drag options */
(PID.TID 0000.0001)                       0
(PID.TID 0000.0001)     ;
(PID.TID 0000.0001) diffKhT =   /* Laplacian diffusion of heat laterally ( m^2/s ) */
(PID.TID 0000.0001)                 0.000000000000000E+00
(PID.TID 0000.0001)     ;
(PID.TID 0000.0001) diffK4T =   /* Biharmonic diffusion of heat laterally ( m^4/s ) */
(PID.TID 0000.0001)                 0.000000000000000E+00
(PID.TID 0000.0001)     ;
(PID.TID 0000.0001) diffKhS =   /* Laplacian diffusion of salt laterally ( m^2/s ) */
(PID.TID 0000.0001)                 0.000000000000000E+00
(PID.TID 0000.0001)     ;
(PID.TID 0000.0001) diffK4S =   /* Biharmonic diffusion of salt laterally ( m^4/s ) */
(PID.TID 0000.0001)                 0.000000000000000E+00
(PID.TID 0000.0001)     ;
(PID.TID 0000.0001) diffKrNrT = /* vertical profile of vertical diffusion of Temp ( m^2/s )*/
(PID.TID 0000.0001)    90 @  5.440000000000000E-07              /* K =  1: 90 */
(PID.TID 0000.0001)     ;
(PID.TID 0000.0001) diffKrNrS = /* vertical profile of vertical diffusion of Salt ( m^2/s )*/
(PID.TID 0000.0001)    90 @  5.440000000000000E-07              /* K =  1: 90 */
(PID.TID 0000.0001)     ;
(PID.TID 0000.0001) diffKrBL79surf = /* Surface diffusion for Bryan and Lewis 79 ( m^2/s ) */
(PID.TID 0000.0001)                 0.000000000000000E+00
(PID.TID 0000.0001)     ;
(PID.TID 0000.0001) diffKrBL79deep = /* Deep diffusion for Bryan and Lewis 1979 ( m^2/s ) */
(PID.TID 0000.0001)                 0.000000000000000E+00
(PID.TID 0000.0001)     ;
(PID.TID 0000.0001) diffKrBL79scl = /* Depth scale for Bryan and Lewis 1979 ( m ) */
(PID.TID 0000.0001)                 2.000000000000000E+02
(PID.TID 0000.0001)     ;
(PID.TID 0000.0001) diffKrBL79Ho = /* Turning depth for Bryan and Lewis 1979 ( m ) */
(PID.TID 0000.0001)                -2.000000000000000E+03
(PID.TID 0000.0001)     ;
(PID.TID 0000.0001) ivdc_kappa = /* Implicit Vertical Diffusivity for Convection ( m^2/s) */
(PID.TID 0000.0001)                 0.000000000000000E+00
(PID.TID 0000.0001)     ;
(PID.TID 0000.0001) hMixCriteria=  /* Criteria for mixed-layer diagnostic */
(PID.TID 0000.0001)                -8.000000000000000E-01
(PID.TID 0000.0001)     ;
(PID.TID 0000.0001) dRhoSmall =  /* Parameter for mixed-layer diagnostic */
(PID.TID 0000.0001)                 1.000000000000000E-06
(PID.TID 0000.0001)     ;
(PID.TID 0000.0001) hMixSmooth=  /* Smoothing parameter for mixed-layer diagnostic */
(PID.TID 0000.0001)                 0.000000000000000E+00
(PID.TID 0000.0001)     ;
(PID.TID 0000.0001) eosType =  /* Type of Equation of State */
(PID.TID 0000.0001)               'JMD95Z'
(PID.TID 0000.0001)     ;
(PID.TID 0000.0001) selectP_inEOS_Zc = /* select pressure to use in EOS (0,1,2,3) */
(PID.TID 0000.0001)                       0
(PID.TID 0000.0001)     0= -g*rhoConst*z ; 1= pRef (from tRef,sRef); 2= Hyd P ; 3= Hyd+NH P
(PID.TID 0000.0001)     ;
(PID.TID 0000.0001) HeatCapacity_Cp =  /* Specific heat capacity ( J/kg/K ) */
(PID.TID 0000.0001)                 3.994000000000000E+03
(PID.TID 0000.0001)     ;
(PID.TID 0000.0001) celsius2K = /* 0 degree Celsius converted to Kelvin ( K ) */
(PID.TID 0000.0001)                 2.731500000000000E+02
(PID.TID 0000.0001)     ;
(PID.TID 0000.0001) rhoConst  = /* Reference density (Boussinesq)  ( kg/m^3 ) */
(PID.TID 0000.0001)                 1.027500000000000E+03
(PID.TID 0000.0001)     ;
(PID.TID 0000.0001) rhoFacC = /* normalized Reference density @ cell-Center (-) */
(PID.TID 0000.0001)    90 @  1.000000000000000E+00              /* K =  1: 90 */
(PID.TID 0000.0001)     ;
(PID.TID 0000.0001) rhoFacF = /* normalized Reference density @ W-Interface (-) */
(PID.TID 0000.0001)    91 @  1.000000000000000E+00              /* K =  1: 91 */
(PID.TID 0000.0001)     ;
(PID.TID 0000.0001) rhoConstFresh = /* Fresh-water reference density ( kg/m^3 ) */
(PID.TID 0000.0001)                 9.998000000000000E+02
(PID.TID 0000.0001)     ;
(PID.TID 0000.0001) gravity =   /* Gravitational acceleration ( m/s^2 ) */
(PID.TID 0000.0001)                 9.810000000000000E+00
(PID.TID 0000.0001)     ;
(PID.TID 0000.0001) gBaro =   /* Barotropic gravity ( m/s^2 ) */
(PID.TID 0000.0001)                 9.810000000000000E+00
(PID.TID 0000.0001)     ;
(PID.TID 0000.0001) gravFacC = /* gravity factor (vs surf.) @ cell-Center (-) */
(PID.TID 0000.0001)    90 @  1.000000000000000E+00              /* K =  1: 90 */
(PID.TID 0000.0001)     ;
(PID.TID 0000.0001) gravFacF = /* gravity factor (vs surf.) @ W-Interface (-) */
(PID.TID 0000.0001)    91 @  1.000000000000000E+00              /* K =  1: 91 */
(PID.TID 0000.0001)     ;
(PID.TID 0000.0001) rotationPeriod =   /* Rotation Period ( s ) */
(PID.TID 0000.0001)                 8.616400000000000E+04
(PID.TID 0000.0001)     ;
(PID.TID 0000.0001) omega =   /* Angular velocity ( rad/s ) */
(PID.TID 0000.0001)                 7.292123516990375E-05
(PID.TID 0000.0001)     ;
(PID.TID 0000.0001) f0 =   /* Reference coriolis parameter ( 1/s ) */
(PID.TID 0000.0001)                 1.000000000000000E-04
(PID.TID 0000.0001)     ;
(PID.TID 0000.0001) beta =   /* Beta ( 1/(m.s) ) */
(PID.TID 0000.0001)                 9.999999999999999E-12
(PID.TID 0000.0001)     ;
(PID.TID 0000.0001) fPrime =   /* Second coriolis parameter ( 1/s ) */
(PID.TID 0000.0001)                 0.000000000000000E+00
(PID.TID 0000.0001)     ;
(PID.TID 0000.0001) rigidLid =   /* Rigid lid on/off flag */
(PID.TID 0000.0001)                   F
(PID.TID 0000.0001)     ;
(PID.TID 0000.0001) implicitFreeSurface =   /* Implicit free surface on/off flag */
(PID.TID 0000.0001)                   T
(PID.TID 0000.0001)     ;
(PID.TID 0000.0001) freeSurfFac =   /* Implicit free surface factor */
(PID.TID 0000.0001)                 1.000000000000000E+00
(PID.TID 0000.0001)     ;
(PID.TID 0000.0001) implicSurfPress =  /* Surface Pressure implicit factor (0-1)*/
(PID.TID 0000.0001)                 1.000000000000000E+00
(PID.TID 0000.0001)     ;
(PID.TID 0000.0001) implicDiv2DFlow =  /* Barot. Flow Div. implicit factor (0-1)*/
(PID.TID 0000.0001)                 1.000000000000000E+00
(PID.TID 0000.0001)     ;
(PID.TID 0000.0001) uniformLin_PhiSurf = /* use uniform Bo_surf on/off flag*/
(PID.TID 0000.0001)                   T
(PID.TID 0000.0001)     ;
(PID.TID 0000.0001) uniformFreeSurfLev = /* free-surface level-index is uniform */
(PID.TID 0000.0001)                   T
(PID.TID 0000.0001)     ;
(PID.TID 0000.0001) hFacMin =   /* minimum partial cell factor (hFac) */
(PID.TID 0000.0001)                 3.000000000000000E-01
(PID.TID 0000.0001)     ;
(PID.TID 0000.0001) hFacMinDr = /* minimum partial cell thickness ( m) */
(PID.TID 0000.0001)                 0.000000000000000E+00
(PID.TID 0000.0001)     ;
(PID.TID 0000.0001) exactConserv =  /* Exact Volume Conservation on/off flag*/
(PID.TID 0000.0001)                   T
(PID.TID 0000.0001)     ;
(PID.TID 0000.0001) linFSConserveTr = /* Tracer correction for Lin Free Surface on/off flag*/
(PID.TID 0000.0001)                   F
(PID.TID 0000.0001)     ;
(PID.TID 0000.0001) nonlinFreeSurf = /* Non-linear Free Surf. options (-1,0,1,2,3)*/
(PID.TID 0000.0001)                       0
(PID.TID 0000.0001)      -1,0= Off ; 1,2,3= On, 2=+rescale gU,gV, 3=+update cg2d solv.
(PID.TID 0000.0001)     ;
(PID.TID 0000.0001) hFacInf =   /* lower threshold for hFac (nonlinFreeSurf only)*/
(PID.TID 0000.0001)                 1.000000000000000E-01
(PID.TID 0000.0001)     ;
(PID.TID 0000.0001) hFacSup =   /* upper threshold for hFac (nonlinFreeSurf only)*/
(PID.TID 0000.0001)                 5.000000000000000E+00
(PID.TID 0000.0001)     ;
(PID.TID 0000.0001) select_rStar = /* r* Vertical coord. options (=0 r coord.; >0 uses r*)*/
(PID.TID 0000.0001)                       0
(PID.TID 0000.0001)     ;
(PID.TID 0000.0001) useRealFreshWaterFlux = /* Real Fresh Water Flux on/off flag*/
(PID.TID 0000.0001)                   T
(PID.TID 0000.0001)     ;
(PID.TID 0000.0001) temp_EvPrRn = /* Temp. of Evap/Prec/R (UNSET=use local T)(oC)*/
(PID.TID 0000.0001)                 0.000000000000000E+00
(PID.TID 0000.0001)     ;
(PID.TID 0000.0001) salt_EvPrRn = /* Salin. of Evap/Prec/R (UNSET=use local S)(psu)*/
(PID.TID 0000.0001)                 0.000000000000000E+00
(PID.TID 0000.0001)     ;
(PID.TID 0000.0001) selectAddFluid = /* option for mass source/sink of fluid (=0: off) */
(PID.TID 0000.0001)                       0
(PID.TID 0000.0001)     ;
(PID.TID 0000.0001) temp_addMass = /* Temp. of addMass array (UNSET=use local T)(oC)*/
(PID.TID 0000.0001)                 0.000000000000000E+00
(PID.TID 0000.0001)     ;
(PID.TID 0000.0001) salt_addMass = /* Salin. of addMass array (UNSET=use local S)(psu)*/
(PID.TID 0000.0001)                 0.000000000000000E+00
(PID.TID 0000.0001)     ;
(PID.TID 0000.0001) convertFW2Salt = /* convert F.W. Flux to Salt Flux (-1=use local S)(psu)*/
(PID.TID 0000.0001)                -1.000000000000000E+00
(PID.TID 0000.0001)     ;
(PID.TID 0000.0001) use3Dsolver = /* use 3-D pressure solver on/off flag */
(PID.TID 0000.0001)                   F
(PID.TID 0000.0001)     ;
(PID.TID 0000.0001) nonHydrostatic =  /* Non-Hydrostatic on/off flag */
(PID.TID 0000.0001)                   F
(PID.TID 0000.0001)     ;
(PID.TID 0000.0001) nh_Am2 = /* Non-Hydrostatic terms scaling factor */
(PID.TID 0000.0001)                 1.000000000000000E+00
(PID.TID 0000.0001)     ;
(PID.TID 0000.0001) implicitNHPress = /* Non-Hyd Pressure implicit factor (0-1)*/
(PID.TID 0000.0001)                 1.000000000000000E+00
(PID.TID 0000.0001)     ;
(PID.TID 0000.0001) selectNHfreeSurf = /* Non-Hyd (free-)Surface option */
(PID.TID 0000.0001)                       0
(PID.TID 0000.0001)     ;
(PID.TID 0000.0001) quasiHydrostatic = /* Quasi-Hydrostatic on/off flag */
(PID.TID 0000.0001)                   F
(PID.TID 0000.0001)     ;
(PID.TID 0000.0001) calc_wVelocity = /* vertical velocity calculation on/off flag */
(PID.TID 0000.0001)                   T
(PID.TID 0000.0001)     ;
(PID.TID 0000.0001) momStepping =  /* Momentum equation on/off flag */
(PID.TID 0000.0001)                   T
(PID.TID 0000.0001)     ;
(PID.TID 0000.0001) vectorInvariantMomentum= /* Vector-Invariant Momentum on/off */
(PID.TID 0000.0001)                   T
(PID.TID 0000.0001)     ;
(PID.TID 0000.0001) momAdvection =  /* Momentum advection on/off flag */
(PID.TID 0000.0001)                   T
(PID.TID 0000.0001)     ;
(PID.TID 0000.0001) momViscosity =  /* Momentum viscosity on/off flag */
(PID.TID 0000.0001)                   T
(PID.TID 0000.0001)     ;
(PID.TID 0000.0001) momImplVertAdv= /* Momentum implicit vert. advection on/off*/
(PID.TID 0000.0001)                   F
(PID.TID 0000.0001)     ;
(PID.TID 0000.0001) implicitViscosity = /* Implicit viscosity on/off flag */
(PID.TID 0000.0001)                   T
(PID.TID 0000.0001)     ;
(PID.TID 0000.0001) selectImplicitDrag= /* Implicit bot Drag options (0,1,2)*/
(PID.TID 0000.0001)                       0
(PID.TID 0000.0001)     0= Expl. ; 1= Impl. on provis. Vel ; 2= Fully Impl (with surf.P)
(PID.TID 0000.0001)     ;
(PID.TID 0000.0001) metricTerms =  /* metric-Terms on/off flag */
(PID.TID 0000.0001)                   F
(PID.TID 0000.0001)     ;
(PID.TID 0000.0001) useNHMTerms = /* Non-Hydrostatic Metric-Terms on/off */
(PID.TID 0000.0001)                   F
(PID.TID 0000.0001)     ;
(PID.TID 0000.0001) selectCoriMap = /* Coriolis Map options (0,1,2,3)*/
(PID.TID 0000.0001)                       2
(PID.TID 0000.0001)     0= f-Plane ; 1= Beta-Plane ; 2= Spherical ; 3= read from file
(PID.TID 0000.0001)     ;
(PID.TID 0000.0001) use3dCoriolis = /* 3-D Coriolis on/off flag */
(PID.TID 0000.0001)                   F
(PID.TID 0000.0001)     ;
(PID.TID 0000.0001) useCoriolis =  /* Coriolis on/off flag */
(PID.TID 0000.0001)                   T
(PID.TID 0000.0001)     ;
(PID.TID 0000.0001) useCDscheme =  /* CD scheme on/off flag */
(PID.TID 0000.0001)                   F
(PID.TID 0000.0001)     ;
(PID.TID 0000.0001) useEnergyConservingCoriolis= /* Flx-Form Coriolis scheme flag */
(PID.TID 0000.0001)                   F
(PID.TID 0000.0001)     ;
(PID.TID 0000.0001) useJamartWetPoints= /* Coriolis WetPoints method flag */
(PID.TID 0000.0001)                   F
(PID.TID 0000.0001)     ;
(PID.TID 0000.0001) useJamartMomAdv= /* V.I Non-linear terms Jamart flag */
(PID.TID 0000.0001)                   F
(PID.TID 0000.0001)     ;
(PID.TID 0000.0001) useAbsVorticity= /* V.I Works with f+zeta in Coriolis */
(PID.TID 0000.0001)                   F
(PID.TID 0000.0001)     ;
(PID.TID 0000.0001) selectVortScheme= /* V.I Scheme selector for Vorticity-Term */
(PID.TID 0000.0001)                       0
(PID.TID 0000.0001)    = 0 : enstrophy (Shallow-Water Eq.) conserving scheme by Sadourny, JAS 75
(PID.TID 0000.0001)    = 1 : same as 0 with modified hFac
(PID.TID 0000.0001)    = 2 : energy conserving scheme (used by Sadourny in JAS 75 paper)
(PID.TID 0000.0001)    = 3 : energy (general) and enstrophy (2D, nonDiv.) conserving scheme
(PID.TID 0000.0001)          from Sadourny (Burridge & Haseler, ECMWF Rep.4, 1977)
(PID.TID 0000.0001)     ;
(PID.TID 0000.0001) upwindVorticity= /* V.I Upwind bias vorticity flag */
(PID.TID 0000.0001)                   F
(PID.TID 0000.0001)     ;
(PID.TID 0000.0001) highOrderVorticity= /* V.I High order vort. advect. flag */
(PID.TID 0000.0001)                   T
(PID.TID 0000.0001)     ;
(PID.TID 0000.0001) upwindShear= /* V.I Upwind vertical Shear advection flag */
(PID.TID 0000.0001)                   F
(PID.TID 0000.0001)     ;
(PID.TID 0000.0001) selectKEscheme= /* V.I Kinetic Energy scheme selector */
(PID.TID 0000.0001)                       0
(PID.TID 0000.0001)     ;
(PID.TID 0000.0001) momForcing =  /* Momentum forcing on/off flag */
(PID.TID 0000.0001)                   T
(PID.TID 0000.0001)     ;
(PID.TID 0000.0001) momTidalForcing = /* Momentum Tidal forcing on/off flag */
(PID.TID 0000.0001)                   T
(PID.TID 0000.0001)     ;
(PID.TID 0000.0001) momPressureForcing =  /* Momentum pressure term on/off flag */
(PID.TID 0000.0001)                   T
(PID.TID 0000.0001)     ;
(PID.TID 0000.0001) implicitIntGravWave= /* Implicit Internal Gravity Wave flag */
(PID.TID 0000.0001)                   F
(PID.TID 0000.0001)     ;
(PID.TID 0000.0001) staggerTimeStep =    /* Stagger time stepping on/off flag */
(PID.TID 0000.0001)                   T
(PID.TID 0000.0001)     ;
(PID.TID 0000.0001) doResetHFactors = /* reset thickness factors @ each time-step */
(PID.TID 0000.0001)                   F
(PID.TID 0000.0001)     ;
(PID.TID 0000.0001) multiDimAdvection =  /* enable/disable Multi-Dim Advection */
(PID.TID 0000.0001)                   T
(PID.TID 0000.0001)     ;
(PID.TID 0000.0001) useMultiDimAdvec =   /* Multi-Dim Advection is/is-not used */
(PID.TID 0000.0001)                   T
(PID.TID 0000.0001)     ;
(PID.TID 0000.0001) implicitDiffusion = /* Implicit Diffusion on/off flag */
(PID.TID 0000.0001)                   T
(PID.TID 0000.0001)     ;
(PID.TID 0000.0001) tempStepping =  /* Temperature equation on/off flag */
(PID.TID 0000.0001)                   T
(PID.TID 0000.0001)     ;
(PID.TID 0000.0001) tempAdvection = /* Temperature advection on/off flag */
(PID.TID 0000.0001)                   T
(PID.TID 0000.0001)     ;
(PID.TID 0000.0001) tempImplVertAdv = /* Temp. implicit vert. advection on/off */
(PID.TID 0000.0001)                   F
(PID.TID 0000.0001)     ;
(PID.TID 0000.0001) tempForcing  =  /* Temperature forcing on/off flag */
(PID.TID 0000.0001)                   T
(PID.TID 0000.0001)     ;
(PID.TID 0000.0001) doThetaClimRelax = /* apply SST relaxation on/off flag */
(PID.TID 0000.0001)                   F
(PID.TID 0000.0001)     ;
(PID.TID 0000.0001) tempIsActiveTr = /* Temp. is a dynamically Active Tracer */
(PID.TID 0000.0001)                   T
(PID.TID 0000.0001)     ;
(PID.TID 0000.0001) saltStepping =  /* Salinity equation on/off flag */
(PID.TID 0000.0001)                   T
(PID.TID 0000.0001)     ;
(PID.TID 0000.0001) saltAdvection = /* Salinity advection on/off flag */
(PID.TID 0000.0001)                   T
(PID.TID 0000.0001)     ;
(PID.TID 0000.0001) saltImplVertAdv = /* Sali. implicit vert. advection on/off */
(PID.TID 0000.0001)                   F
(PID.TID 0000.0001)     ;
(PID.TID 0000.0001) saltForcing  =  /* Salinity forcing on/off flag */
(PID.TID 0000.0001)                   T
(PID.TID 0000.0001)     ;
(PID.TID 0000.0001) doSaltClimRelax = /* apply SSS relaxation on/off flag */
(PID.TID 0000.0001)                   F
(PID.TID 0000.0001)     ;
(PID.TID 0000.0001) saltIsActiveTr = /* Salt  is a dynamically Active Tracer */
(PID.TID 0000.0001)                   T
(PID.TID 0000.0001)     ;
(PID.TID 0000.0001)  readBinaryPrec = /* Precision used for reading binary files */
(PID.TID 0000.0001)                      32
(PID.TID 0000.0001)     ;
(PID.TID 0000.0001) writeBinaryPrec = /* Precision used for writing binary files */
(PID.TID 0000.0001)                      32
(PID.TID 0000.0001)     ;
(PID.TID 0000.0001)  rwSuffixType =   /* select format of mds file suffix */
(PID.TID 0000.0001)                       0
(PID.TID 0000.0001)    = 0 : myIter (I10.10) ;   = 1 : 100*myTime (100th sec) ;
(PID.TID 0000.0001)    = 2 : myTime (seconds);   = 3 : myTime/360 (10th of hr);
(PID.TID 0000.0001)    = 4 : myTime/3600 (hours)
(PID.TID 0000.0001)     ;
(PID.TID 0000.0001)  globalFiles = /* write "global" (=not per tile) files */
(PID.TID 0000.0001)                   T
(PID.TID 0000.0001)     ;
(PID.TID 0000.0001)  useSingleCpuIO = /* only master MPI process does I/O */
(PID.TID 0000.0001)                   T
(PID.TID 0000.0001)     ;
(PID.TID 0000.0001)  useSingleCpuInput = /* only master process reads input */
(PID.TID 0000.0001)                   T
(PID.TID 0000.0001)     ;
(PID.TID 0000.0001) /* debLev[*]  : level of debug & auxiliary message printing */
(PID.TID 0000.0001) debLevZero =  0 ; /* level of disabled aux. msg printing */
(PID.TID 0000.0001)    debLevA =  1 ; /* level of minimum  aux. msg printing */
(PID.TID 0000.0001)    debLevB =  2 ; /* level of low aux. print (report read-file opening)*/
(PID.TID 0000.0001)    debLevC =  3 ; /* level of moderate debug prt (most pkgs debug msg) */
(PID.TID 0000.0001)    debLevD =  4 ; /* level of enhanced debug prt (add DEBUG_STATS prt) */
(PID.TID 0000.0001)    debLevE =  5 ; /* level of extensive debug printing */
(PID.TID 0000.0001) debugLevel =  /* select debug printing level */
(PID.TID 0000.0001)                       5
(PID.TID 0000.0001)     ;
(PID.TID 0000.0001)  plotLevel =  /* select PLOT_FIELD printing level */
(PID.TID 0000.0001)                       5
(PID.TID 0000.0001)     ;
(PID.TID 0000.0001) //
(PID.TID 0000.0001) // Elliptic solver(s) paramters ( PARM02 in namelist )
(PID.TID 0000.0001) //
(PID.TID 0000.0001) cg2dMaxIters =   /* Upper limit on 2d con. grad iterations  */
(PID.TID 0000.0001)                     100
(PID.TID 0000.0001)     ;
(PID.TID 0000.0001) cg2dChkResFreq =   /* 2d con. grad convergence test frequency */
(PID.TID 0000.0001)                       1
(PID.TID 0000.0001)     ;
(PID.TID 0000.0001) cg2dUseMinResSol= /* use cg2d last-iter(=0) / min-resid.(=1) solution */
(PID.TID 0000.0001)                       0
(PID.TID 0000.0001)     ;
(PID.TID 0000.0001) cg2dTargetResidual =   /* 2d con. grad target residual  */
(PID.TID 0000.0001)                 1.000000000000000E-05
(PID.TID 0000.0001)     ;
(PID.TID 0000.0001) cg2dTargetResWunit =   /* CG2d target residual [W units] */
(PID.TID 0000.0001)                -1.000000000000000E+00
(PID.TID 0000.0001)     ;
(PID.TID 0000.0001) cg2dPreCondFreq =   /* Freq. for updating cg2d preconditioner */
(PID.TID 0000.0001)                       1
(PID.TID 0000.0001)     ;
(PID.TID 0000.0001) useSRCGSolver =  /* use single reduction CG solver(s) */
(PID.TID 0000.0001)                   F
(PID.TID 0000.0001)     ;
(PID.TID 0000.0001) printResidualFreq = /* Freq. for printing CG residual */
(PID.TID 0000.0001)                       1
(PID.TID 0000.0001)     ;
(PID.TID 0000.0001) //
(PID.TID 0000.0001) // Time stepping paramters ( PARM03 in namelist )
(PID.TID 0000.0001) //
(PID.TID 0000.0001) deltaTMom =   /* Momentum equation timestep ( s ) */
(PID.TID 0000.0001)                 3.000000000000000E+02
(PID.TID 0000.0001)     ;
(PID.TID 0000.0001) deltaTFreeSurf = /* FreeSurface equation timestep ( s ) */
(PID.TID 0000.0001)                 3.000000000000000E+02
(PID.TID 0000.0001)     ;
(PID.TID 0000.0001) dTtracerLev =  /* Tracer equation timestep ( s ) */
(PID.TID 0000.0001)    90 @  3.000000000000000E+02              /* K =  1: 90 */
(PID.TID 0000.0001)     ;
(PID.TID 0000.0001) deltaTClock  =   /* Model clock timestep ( s ) */
(PID.TID 0000.0001)                 3.000000000000000E+02
(PID.TID 0000.0001)     ;
(PID.TID 0000.0001) cAdjFreq =   /* Convective adjustment interval ( s ) */
(PID.TID 0000.0001)                 0.000000000000000E+00
(PID.TID 0000.0001)     ;
(PID.TID 0000.0001) momForcingOutAB = /* =1: take Momentum Forcing out of Adams-Bash. stepping */
(PID.TID 0000.0001)                       1
(PID.TID 0000.0001)     ;
(PID.TID 0000.0001) tracForcingOutAB = /* =1: take T,S,pTr Forcing out of Adams-Bash. stepping */
(PID.TID 0000.0001)                       1
(PID.TID 0000.0001)     ;
(PID.TID 0000.0001) momDissip_In_AB = /* put Dissipation Tendency in Adams-Bash. stepping */
(PID.TID 0000.0001)                   F
(PID.TID 0000.0001)     ;
(PID.TID 0000.0001) doAB_onGtGs = /* apply AB on Tendencies (rather than on T,S)*/
(PID.TID 0000.0001)                   T
(PID.TID 0000.0001)     ;
(PID.TID 0000.0001) abEps =   /* Adams-Bashforth-2 stabilizing weight */
(PID.TID 0000.0001)                 1.000000000000000E-01
(PID.TID 0000.0001)     ;
(PID.TID 0000.0001) applyExchUV_early = /* Apply EXCH to U,V earlier in time-step */
(PID.TID 0000.0001)                   F
(PID.TID 0000.0001)     ;
(PID.TID 0000.0001) pickupStrictlyMatch= /* stop if pickup do not strictly match */
(PID.TID 0000.0001)                   T
(PID.TID 0000.0001)     ;
(PID.TID 0000.0001) nIter0   =   /* Run starting timestep number */
(PID.TID 0000.0001)                  731520
(PID.TID 0000.0001)     ;
(PID.TID 0000.0001) nTimeSteps = /* Number of timesteps */
(PID.TID 0000.0001)                     288
(PID.TID 0000.0001)     ;
(PID.TID 0000.0001) nEndIter =   /* Run ending timestep number */
(PID.TID 0000.0001)                  731808
(PID.TID 0000.0001)     ;
(PID.TID 0000.0001) baseTime =   /* Model base time ( s ) */
(PID.TID 0000.0001)                 0.000000000000000E+00
(PID.TID 0000.0001)     ;
(PID.TID 0000.0001) startTime =  /* Run start time ( s ) */
(PID.TID 0000.0001)                 2.194560000000000E+08
(PID.TID 0000.0001)     ;
(PID.TID 0000.0001) endTime  =   /* Integration ending time ( s ) */
(PID.TID 0000.0001)                 2.195424000000000E+08
(PID.TID 0000.0001)     ;
(PID.TID 0000.0001) pChkPtFreq = /* Permanent restart/pickup file interval ( s ) */
(PID.TID 0000.0001)                 8.640000000000000E+04
(PID.TID 0000.0001)     ;
(PID.TID 0000.0001) chkPtFreq  = /* Rolling restart/pickup file interval ( s ) */
(PID.TID 0000.0001)                 8.640000000000000E+04
(PID.TID 0000.0001)     ;
(PID.TID 0000.0001) pickup_write_mdsio =   /* Model IO flag. */
(PID.TID 0000.0001)                   T
(PID.TID 0000.0001)     ;
(PID.TID 0000.0001) pickup_read_mdsio =   /* Model IO flag. */
(PID.TID 0000.0001)                   T
(PID.TID 0000.0001)     ;
(PID.TID 0000.0001) writePickupAtEnd =   /* Model IO flag. */
(PID.TID 0000.0001)                   T
(PID.TID 0000.0001)     ;
(PID.TID 0000.0001) dumpFreq =   /* Model state write out interval ( s ). */
(PID.TID 0000.0001)                 3.000000000000000E+02
(PID.TID 0000.0001)     ;
(PID.TID 0000.0001) dumpInitAndLast= /* write out Initial & Last iter. model state */
(PID.TID 0000.0001)                   T
(PID.TID 0000.0001)     ;
(PID.TID 0000.0001) snapshot_mdsio =   /* Model IO flag. */
(PID.TID 0000.0001)                   T
(PID.TID 0000.0001)     ;
(PID.TID 0000.0001) monitorFreq =   /* Monitor output interval ( s ). */
(PID.TID 0000.0001)                 3.000000000000000E+02
(PID.TID 0000.0001)     ;
(PID.TID 0000.0001) monitorSelect = /* select group of variables to monitor */
(PID.TID 0000.0001)                       3
(PID.TID 0000.0001)     ;
(PID.TID 0000.0001) monitor_stdio =   /* Model IO flag. */
(PID.TID 0000.0001)                   T
(PID.TID 0000.0001)     ;
(PID.TID 0000.0001) externForcingPeriod =   /* forcing period (s) */
(PID.TID 0000.0001)                 0.000000000000000E+00
(PID.TID 0000.0001)     ;
(PID.TID 0000.0001) externForcingCycle =   /* period of the cyle (s). */
(PID.TID 0000.0001)                 0.000000000000000E+00
(PID.TID 0000.0001)     ;
(PID.TID 0000.0001) tauThetaClimRelax =   /* relaxation time scale (s) */
(PID.TID 0000.0001)                 0.000000000000000E+00
(PID.TID 0000.0001)     ;
(PID.TID 0000.0001) tauSaltClimRelax =   /* relaxation time scale (s) */
(PID.TID 0000.0001)                 0.000000000000000E+00
(PID.TID 0000.0001)     ;
(PID.TID 0000.0001) latBandClimRelax =   /* max. Lat. where relaxation */
(PID.TID 0000.0001)                 1.800000000000000E+02
(PID.TID 0000.0001)     ;
(PID.TID 0000.0001) //
(PID.TID 0000.0001) // Gridding paramters ( PARM04 in namelist )
(PID.TID 0000.0001) //
(PID.TID 0000.0001) usingCartesianGrid = /* Cartesian coordinates flag ( True/False ) */
(PID.TID 0000.0001)                   F
(PID.TID 0000.0001)     ;
(PID.TID 0000.0001) usingCylindricalGrid = /* Cylindrical coordinates flag ( True/False ) */
(PID.TID 0000.0001)                   F
(PID.TID 0000.0001)     ;
(PID.TID 0000.0001) usingSphericalPolarGrid = /* Spherical coordinates flag ( True/False ) */
(PID.TID 0000.0001)                   F
(PID.TID 0000.0001)     ;
(PID.TID 0000.0001) usingCurvilinearGrid = /* Curvilinear coordinates flag ( True/False ) */
(PID.TID 0000.0001)                   T
(PID.TID 0000.0001)     ;
(PID.TID 0000.0001) useMin4hFacEdges = /* set hFacW,S as minimum of adjacent hFacC factor */
(PID.TID 0000.0001)                   F
(PID.TID 0000.0001)     ;
(PID.TID 0000.0001) interViscAr_pCell = /* account for partial-cell in interior vert. viscosity */
(PID.TID 0000.0001)                   F
(PID.TID 0000.0001)     ;
(PID.TID 0000.0001) interDiffKr_pCell = /* account for partial-cell in interior vert. diffusion */
(PID.TID 0000.0001)                   F
(PID.TID 0000.0001)     ;
(PID.TID 0000.0001) pCellMix_select = /* option to enhance mixing near surface & bottom */
(PID.TID 0000.0001)                       0
(PID.TID 0000.0001)     ;
(PID.TID 0000.0001) selectSigmaCoord = /* Hybrid-Sigma Vert. Coordinate option */
(PID.TID 0000.0001)                       0
(PID.TID 0000.0001)     ;
(PID.TID 0000.0001) rSigmaBnd = /* r/sigma transition ( units of r ==  m ) */
(PID.TID 0000.0001)                 1.234567000000000E+05
(PID.TID 0000.0001)     ;
(PID.TID 0000.0001) rkSign =   /* index orientation relative to vertical coordinate */
(PID.TID 0000.0001)                -1.000000000000000E+00
(PID.TID 0000.0001)     ;
(PID.TID 0000.0001) gravitySign = /* gravity orientation relative to vertical coordinate */
(PID.TID 0000.0001)                -1.000000000000000E+00
(PID.TID 0000.0001)     ;
(PID.TID 0000.0001) seaLev_Z =  /* reference height of sea-level [m] */
(PID.TID 0000.0001)                 0.000000000000000E+00
(PID.TID 0000.0001)     ;
(PID.TID 0000.0001) top_Pres =  /* reference pressure at the top [Pa] */
(PID.TID 0000.0001)                 0.000000000000000E+00
(PID.TID 0000.0001)     ;
(PID.TID 0000.0001) mass2rUnit = /* convert mass per unit area [kg/m2] to r-units [m] */
(PID.TID 0000.0001)                 9.732360097323601E-04
(PID.TID 0000.0001)     ;
(PID.TID 0000.0001) rUnit2mass = /* convert r-units [m] to mass per unit area [kg/m2] */
(PID.TID 0000.0001)                 1.027500000000000E+03
(PID.TID 0000.0001)     ;
(PID.TID 0000.0001) drC =   /* C spacing ( units of r ) */
(PID.TID 0000.0001)                 5.000000000000000E-01,      /* K =  1 */
(PID.TID 0000.0001)                 1.070000000000000E+00,      /* K =  2 */
(PID.TID 0000.0001)                 1.220000000000000E+00,      /* K =  3 */
(PID.TID 0000.0001)                 1.395000000000000E+00,      /* K =  4 */
(PID.TID 0000.0001)                 1.595000000000000E+00,      /* K =  5 */
(PID.TID 0000.0001)                 1.815000000000000E+00,      /* K =  6 */
(PID.TID 0000.0001)                 2.065000000000000E+00,      /* K =  7 */
(PID.TID 0000.0001)                 2.350000000000000E+00,      /* K =  8 */
(PID.TID 0000.0001)                 2.670000000000000E+00,      /* K =  9 */
(PID.TID 0000.0001)                 3.025000000000000E+00,      /* K = 10 */
(PID.TID 0000.0001)                 3.420000000000000E+00,      /* K = 11 */
(PID.TID 0000.0001)                 3.865000000000000E+00,      /* K = 12 */
(PID.TID 0000.0001)                 4.355000000000000E+00,      /* K = 13 */
(PID.TID 0000.0001)                 4.895000000000000E+00,      /* K = 14 */
(PID.TID 0000.0001)                 5.484999999999999E+00,      /* K = 15 */
(PID.TID 0000.0001)                 6.130000000000000E+00,      /* K = 16 */
(PID.TID 0000.0001)                 6.835000000000000E+00,      /* K = 17 */
(PID.TID 0000.0001)                 7.590000000000000E+00,      /* K = 18 */
(PID.TID 0000.0001)                 8.405000000000001E+00,      /* K = 19 */
(PID.TID 0000.0001)                 9.280000000000001E+00,      /* K = 20 */
(PID.TID 0000.0001)                 1.021000000000000E+01,      /* K = 21 */
(PID.TID 0000.0001)                 1.119500000000000E+01,      /* K = 22 */
(PID.TID 0000.0001)                 1.223000000000000E+01,      /* K = 23 */
(PID.TID 0000.0001)                 1.331500000000000E+01,      /* K = 24 */
(PID.TID 0000.0001)                 1.445000000000000E+01,      /* K = 25 */
(PID.TID 0000.0001)                 1.562500000000000E+01,      /* K = 26 */
(PID.TID 0000.0001)                 1.683500000000000E+01,      /* K = 27 */
(PID.TID 0000.0001)                 1.807500000000000E+01,      /* K = 28 */
(PID.TID 0000.0001)                 1.933500000000000E+01,      /* K = 29 */
(PID.TID 0000.0001)                 2.062000000000000E+01,      /* K = 30 */
(PID.TID 0000.0001)                 2.191500000000000E+01,      /* K = 31 */
(PID.TID 0000.0001)                 2.321500000000000E+01,      /* K = 32 */
(PID.TID 0000.0001)                 2.452000000000000E+01,      /* K = 33 */
(PID.TID 0000.0001)                 2.581500000000000E+01,      /* K = 34 */
(PID.TID 0000.0001)                 2.710000000000000E+01,      /* K = 35 */
(PID.TID 0000.0001)                 2.837000000000000E+01,      /* K = 36 */
(PID.TID 0000.0001)                 2.962000000000000E+01,      /* K = 37 */
(PID.TID 0000.0001)                 3.084500000000000E+01,      /* K = 38 */
(PID.TID 0000.0001)                 3.205000000000000E+01,      /* K = 39 */
(PID.TID 0000.0001)                 3.323500000000000E+01,      /* K = 40 */
(PID.TID 0000.0001)                 3.439500000000000E+01,      /* K = 41 */
(PID.TID 0000.0001)                 3.553000000000000E+01,      /* K = 42 */
(PID.TID 0000.0001)                 3.664500000000000E+01,      /* K = 43 */
(PID.TID 0000.0001)                 3.774500000000000E+01,      /* K = 44 */
(PID.TID 0000.0001)                 3.883000000000000E+01,      /* K = 45 */
(PID.TID 0000.0001)                 3.991000000000000E+01,      /* K = 46 */
(PID.TID 0000.0001)                 4.099000000000000E+01,      /* K = 47 */
(PID.TID 0000.0001)                 4.207500000000000E+01,      /* K = 48 */
(PID.TID 0000.0001)                 4.317500000000000E+01,      /* K = 49 */
(PID.TID 0000.0001)                 4.430000000000000E+01,      /* K = 50 */
(PID.TID 0000.0001)                 4.545999999999999E+01,      /* K = 51 */
(PID.TID 0000.0001)                 4.666500000000000E+01,      /* K = 52 */
(PID.TID 0000.0001)                 4.792000000000000E+01,      /* K = 53 */
(PID.TID 0000.0001)                 4.924500000000000E+01,      /* K = 54 */
(PID.TID 0000.0001)                 5.065500000000000E+01,      /* K = 55 */
(PID.TID 0000.0001)                 5.215500000000000E+01,      /* K = 56 */
(PID.TID 0000.0001)                 5.377000000000000E+01,      /* K = 57 */
(PID.TID 0000.0001)                 5.551500000000000E+01,      /* K = 58 */
(PID.TID 0000.0001)                 5.740000000000001E+01,      /* K = 59 */
(PID.TID 0000.0001)                 5.945500000000000E+01,      /* K = 60 */
(PID.TID 0000.0001)                 6.170000000000000E+01,      /* K = 61 */
(PID.TID 0000.0001)                 6.415000000000001E+01,      /* K = 62 */
(PID.TID 0000.0001)                 6.683500000000001E+01,      /* K = 63 */
(PID.TID 0000.0001)                 6.978500000000000E+01,      /* K = 64 */
(PID.TID 0000.0001)                 7.303000000000000E+01,      /* K = 65 */
(PID.TID 0000.0001)                 7.659999999999999E+01,      /* K = 66 */
(PID.TID 0000.0001)                 8.053999999999999E+01,      /* K = 67 */
(PID.TID 0000.0001)                 8.489000000000000E+01,      /* K = 68 */
(PID.TID 0000.0001)                 8.969000000000000E+01,      /* K = 69 */
(PID.TID 0000.0001)                 9.500000000000000E+01,      /* K = 70 */
(PID.TID 0000.0001)                 1.008750000000000E+02,      /* K = 71 */
(PID.TID 0000.0001)                 1.073750000000000E+02,      /* K = 72 */
(PID.TID 0000.0001)                 1.145700000000000E+02,      /* K = 73 */
(PID.TID 0000.0001)                 1.225400000000000E+02,      /* K = 74 */
(PID.TID 0000.0001)                 1.313700000000000E+02,      /* K = 75 */
(PID.TID 0000.0001)                 1.411550000000000E+02,      /* K = 76 */
(PID.TID 0000.0001)                 1.520050000000000E+02,      /* K = 77 */
(PID.TID 0000.0001)                 1.640300000000000E+02,      /* K = 78 */
(PID.TID 0000.0001)                 1.773600000000000E+02,      /* K = 79 */
(PID.TID 0000.0001)                 1.921300000000000E+02,      /* K = 80 */
(PID.TID 0000.0001)                 2.084900000000000E+02,      /* K = 81 */
(PID.TID 0000.0001)                 2.266100000000000E+02,      /* K = 82 */
(PID.TID 0000.0001)                 2.466700000000000E+02,      /* K = 83 */
(PID.TID 0000.0001)                 2.688550000000000E+02,      /* K = 84 */
(PID.TID 0000.0001)                 2.933700000000000E+02,      /* K = 85 */
(PID.TID 0000.0001)                 3.204400000000000E+02,      /* K = 86 */
(PID.TID 0000.0001)                 3.502850000000000E+02,      /* K = 87 */
(PID.TID 0000.0001)                 3.831550000000000E+02,      /* K = 88 */
(PID.TID 0000.0001)                 4.193050000000000E+02,      /* K = 89 */
(PID.TID 0000.0001)                 4.589850000000000E+02,      /* K = 90 */
(PID.TID 0000.0001)                 2.398700000000000E+02       /* K = 91 */
(PID.TID 0000.0001)     ;
(PID.TID 0000.0001) drF =   /* W spacing ( units of r ) */
(PID.TID 0000.0001)                 1.000000000000000E+00,      /* K =  1 */
(PID.TID 0000.0001)                 1.140000000000000E+00,      /* K =  2 */
(PID.TID 0000.0001)                 1.300000000000000E+00,      /* K =  3 */
(PID.TID 0000.0001)                 1.490000000000000E+00,      /* K =  4 */
(PID.TID 0000.0001)                 1.700000000000000E+00,      /* K =  5 */
(PID.TID 0000.0001)                 1.930000000000000E+00,      /* K =  6 */
(PID.TID 0000.0001)                 2.200000000000000E+00,      /* K =  7 */
(PID.TID 0000.0001)                 2.500000000000000E+00,      /* K =  8 */
(PID.TID 0000.0001)                 2.840000000000000E+00,      /* K =  9 */
(PID.TID 0000.0001)                 3.210000000000000E+00,      /* K = 10 */
(PID.TID 0000.0001)                 3.630000000000000E+00,      /* K = 11 */
(PID.TID 0000.0001)                 4.100000000000000E+00,      /* K = 12 */
(PID.TID 0000.0001)                 4.610000000000000E+00,      /* K = 13 */
(PID.TID 0000.0001)                 5.180000000000000E+00,      /* K = 14 */
(PID.TID 0000.0001)                 5.790000000000000E+00,      /* K = 15 */
(PID.TID 0000.0001)                 6.470000000000000E+00,      /* K = 16 */
(PID.TID 0000.0001)                 7.200000000000000E+00,      /* K = 17 */
(PID.TID 0000.0001)                 7.980000000000000E+00,      /* K = 18 */
(PID.TID 0000.0001)                 8.830000000000000E+00,      /* K = 19 */
(PID.TID 0000.0001)                 9.730000000000000E+00,      /* K = 20 */
(PID.TID 0000.0001)                 1.069000000000000E+01,      /* K = 21 */
(PID.TID 0000.0001)                 1.170000000000000E+01,      /* K = 22 */
(PID.TID 0000.0001)                 1.276000000000000E+01,      /* K = 23 */
(PID.TID 0000.0001)                 1.387000000000000E+01,      /* K = 24 */
(PID.TID 0000.0001)                 1.503000000000000E+01,      /* K = 25 */
(PID.TID 0000.0001)                 1.622000000000000E+01,      /* K = 26 */
(PID.TID 0000.0001)                 1.745000000000000E+01,      /* K = 27 */
(PID.TID 0000.0001)                 1.870000000000000E+01,      /* K = 28 */
(PID.TID 0000.0001)                 1.997000000000000E+01,      /* K = 29 */
(PID.TID 0000.0001)                 2.127000000000000E+01,      /* K = 30 */
(PID.TID 0000.0001)                 2.256000000000000E+01,      /* K = 31 */
(PID.TID 0000.0001)                 2.387000000000000E+01,      /* K = 32 */
(PID.TID 0000.0001)                 2.517000000000000E+01,      /* K = 33 */
(PID.TID 0000.0001)                 2.646000000000000E+01,      /* K = 34 */
(PID.TID 0000.0001)                 2.774000000000000E+01,      /* K = 35 */
(PID.TID 0000.0001)                 2.900000000000000E+01,      /* K = 36 */
(PID.TID 0000.0001)                 3.024000000000000E+01,      /* K = 37 */
(PID.TID 0000.0001)                 3.145000000000000E+01,      /* K = 38 */
(PID.TID 0000.0001)                 3.265000000000000E+01,      /* K = 39 */
(PID.TID 0000.0001)                 3.382000000000000E+01,      /* K = 40 */
(PID.TID 0000.0001)                 3.497000000000000E+01,      /* K = 41 */
(PID.TID 0000.0001)                 3.609000000000000E+01,      /* K = 42 */
(PID.TID 0000.0001)                 3.720000000000000E+01,      /* K = 43 */
(PID.TID 0000.0001)                 3.829000000000000E+01,      /* K = 44 */
(PID.TID 0000.0001)                 3.937000000000000E+01,      /* K = 45 */
(PID.TID 0000.0001)                 4.045000000000000E+01,      /* K = 46 */
(PID.TID 0000.0001)                 4.153000000000000E+01,      /* K = 47 */
(PID.TID 0000.0001)                 4.262000000000000E+01,      /* K = 48 */
(PID.TID 0000.0001)                 4.373000000000000E+01,      /* K = 49 */
(PID.TID 0000.0001)                 4.487000000000000E+01,      /* K = 50 */
(PID.TID 0000.0001)                 4.605000000000000E+01,      /* K = 51 */
(PID.TID 0000.0001)                 4.728000000000000E+01,      /* K = 52 */
(PID.TID 0000.0001)                 4.856000000000000E+01,      /* K = 53 */
(PID.TID 0000.0001)                 4.993000000000000E+01,      /* K = 54 */
(PID.TID 0000.0001)                 5.138000000000000E+01,      /* K = 55 */
(PID.TID 0000.0001)                 5.293000000000000E+01,      /* K = 56 */
(PID.TID 0000.0001)                 5.461000000000000E+01,      /* K = 57 */
(PID.TID 0000.0001)                 5.642000000000000E+01,      /* K = 58 */
(PID.TID 0000.0001)                 5.838000000000000E+01,      /* K = 59 */
(PID.TID 0000.0001)                 6.053000000000000E+01,      /* K = 60 */
(PID.TID 0000.0001)                 6.287000000000000E+01,      /* K = 61 */
(PID.TID 0000.0001)                 6.543000000000001E+01,      /* K = 62 */
(PID.TID 0000.0001)                 6.823999999999999E+01,      /* K = 63 */
(PID.TID 0000.0001)                 7.133000000000000E+01,      /* K = 64 */
(PID.TID 0000.0001)                 7.473000000000000E+01,      /* K = 65 */
(PID.TID 0000.0001)                 7.847000000000000E+01,      /* K = 66 */
(PID.TID 0000.0001)                 8.261000000000000E+01,      /* K = 67 */
(PID.TID 0000.0001)                 8.717000000000000E+01,      /* K = 68 */
(PID.TID 0000.0001)                 9.220999999999999E+01,      /* K = 69 */
(PID.TID 0000.0001)                 9.779000000000001E+01,      /* K = 70 */
(PID.TID 0000.0001)                 1.039600000000000E+02,      /* K = 71 */
(PID.TID 0000.0001)                 1.107900000000000E+02,      /* K = 72 */
(PID.TID 0000.0001)                 1.183500000000000E+02,      /* K = 73 */
(PID.TID 0000.0001)                 1.267300000000000E+02,      /* K = 74 */
(PID.TID 0000.0001)                 1.360100000000000E+02,      /* K = 75 */
(PID.TID 0000.0001)                 1.463000000000000E+02,      /* K = 76 */
(PID.TID 0000.0001)                 1.577100000000000E+02,      /* K = 77 */
(PID.TID 0000.0001)                 1.703500000000000E+02,      /* K = 78 */
(PID.TID 0000.0001)                 1.843700000000000E+02,      /* K = 79 */
(PID.TID 0000.0001)                 1.998900000000000E+02,      /* K = 80 */
(PID.TID 0000.0001)                 2.170900000000000E+02,      /* K = 81 */
(PID.TID 0000.0001)                 2.361300000000000E+02,      /* K = 82 */
(PID.TID 0000.0001)                 2.572100000000000E+02,      /* K = 83 */
(PID.TID 0000.0001)                 2.805000000000000E+02,      /* K = 84 */
(PID.TID 0000.0001)                 3.062400000000000E+02,      /* K = 85 */
(PID.TID 0000.0001)                 3.346400000000000E+02,      /* K = 86 */
(PID.TID 0000.0001)                 3.659300000000000E+02,      /* K = 87 */
(PID.TID 0000.0001)                 4.003800000000000E+02,      /* K = 88 */
(PID.TID 0000.0001)                 4.382300000000000E+02,      /* K = 89 */
(PID.TID 0000.0001)                 4.797400000000000E+02       /* K = 90 */
(PID.TID 0000.0001)     ;
(PID.TID 0000.0001) radius_fromHorizGrid = /* sphere Radius of input horiz. grid */
(PID.TID 0000.0001)                 6.370000000000000E+06
(PID.TID 0000.0001)     ;
(PID.TID 0000.0001) rSphere =  /* Radius ( ignored - cartesian, m - spherical ) */
(PID.TID 0000.0001)                 6.370000000000000E+06
(PID.TID 0000.0001)     ;
(PID.TID 0000.0001) deepAtmosphere = /* Deep/Shallow Atmosphere flag (True/False) */
(PID.TID 0000.0001)                   F
(PID.TID 0000.0001)     ;
(PID.TID 0000.0001) xC =  /* xC(:,1,:,1) : P-point X coord ( deg. or m if cartesian) */
(PID.TID 0000.0001)                -4.009414507725369E+01,      /* I =  1 */
(PID.TID 0000.0001)                -3.999825857041932E+01,      /* I =  2 */
(PID.TID 0000.0001)                -3.990234981985643E+01,      /* I =  3 */
(PID.TID 0000.0001)                -3.980641894957445E+01,      /* I =  4 */
(PID.TID 0000.0001)                -3.971046608394695E+01,      /* I =  5 */
(PID.TID 0000.0001)                -3.961449134770656E+01,      /* I =  6 */
(PID.TID 0000.0001)                -3.951849486597030E+01,      /* I =  7 */
(PID.TID 0000.0001)                -3.942247676418822E+01,      /* I =  8 */
(PID.TID 0000.0001)                -3.932643716817422E+01,      /* I =  9 */
(PID.TID 0000.0001)                -3.923037620415447E+01,      /* I = 10 */
(PID.TID 0000.0001)                -3.913429399861394E+01,      /* I = 11 */
(PID.TID 0000.0001)                -3.903819067848005E+01,      /* I = 12 */
(PID.TID 0000.0001)                -3.894206637097473E+01,      /* I = 13 */
(PID.TID 0000.0001)                -3.884592120369392E+01,      /* I = 14 */
(PID.TID 0000.0001)                -3.874975530459676E+01,      /* I = 15 */
(PID.TID 0000.0001)                -3.865356880194285E+01,      /* I = 16 */
(PID.TID 0000.0001)                -3.855736182439436E+01,      /* I = 17 */
(PID.TID 0000.0001)                -3.846113450091406E+01,      /* I = 18 */
(PID.TID 0000.0001)                -3.836488696081960E+01,      /* I = 19 */
(PID.TID 0000.0001)                -3.826861933379624E+01,      /* I = 20 */
(PID.TID 0000.0001)                -3.817233174982124E+01,      /* I = 21 */
(PID.TID 0000.0001)                -3.807602433921561E+01,      /* I = 22 */
(PID.TID 0000.0001)                -3.797969723264859E+01,      /* I = 23 */
(PID.TID 0000.0001)                -3.788335056115552E+01,      /* I = 24 */
(PID.TID 0000.0001)                -3.778698445600412E+01,      /* I = 25 */
(PID.TID 0000.0001)                -3.769059904891745E+01,      /* I = 26 */
(PID.TID 0000.0001)                -3.759419447183635E+01,      /* I = 27 */
(PID.TID 0000.0001)                -3.749777085707116E+01,      /* I = 28 */
(PID.TID 0000.0001)                -3.740132833726528E+01,      /* I = 29 */
(PID.TID 0000.0001)                -3.730486704536875E+01,      /* I = 30 */
(PID.TID 0000.0001)                -3.720838711463291E+01,      /* I = 31 */
(PID.TID 0000.0001)                -3.711188867866397E+01,      /* I = 32 */
(PID.TID 0000.0001)                -3.701537187136364E+01,      /* I = 33 */
(PID.TID 0000.0001)                -3.691883682695243E+01,      /* I = 34 */
(PID.TID 0000.0001)                -3.682228367990368E+01,      /* I = 35 */
(PID.TID 0000.0001)                -3.672571256512515E+01,      /* I = 36 */
(PID.TID 0000.0001)                -3.662912361768311E+01,      /* I = 37 */
(PID.TID 0000.0001)                -3.653251697306075E+01,      /* I = 38 */
(PID.TID 0000.0001)                -3.643589276700679E+01,      /* I = 39 */
(PID.TID 0000.0001)                -3.633925113555590E+01,      /* I = 40 */
(PID.TID 0000.0001)                -3.624259221505115E+01,      /* I = 41 */
(PID.TID 0000.0001)                -3.614591614214838E+01,      /* I = 42 */
(PID.TID 0000.0001)                -3.604922305374608E+01,      /* I = 43 */
(PID.TID 0000.0001)                -3.595251308710053E+01,      /* I = 44 */
(PID.TID 0000.0001)                -3.585578637971830E+01,      /* I = 45 */
(PID.TID 0000.0001)                -3.575904306940954E+01,      /* I = 46 */
(PID.TID 0000.0001)                -3.566228329423564E+01,      /* I = 47 */
(PID.TID 0000.0001)                -3.556550719262600E+01,      /* I = 48 */
(PID.TID 0000.0001)                -3.546871490315316E+01,      /* I = 49 */
(PID.TID 0000.0001)                -3.537190656483979E+01,      /* I = 50 */
(PID.TID 0000.0001)                -3.527508231681206E+01,      /* I = 51 */
(PID.TID 0000.0001)                -3.517824229861461E+01,      /* I = 52 */
(PID.TID 0000.0001)                -3.508138664997989E+01,      /* I = 53 */
(PID.TID 0000.0001)                -3.498451551090857E+01,      /* I = 54 */
(PID.TID 0000.0001)                -3.488762902174913E+01,      /* I = 55 */
(PID.TID 0000.0001)                -3.479072732299093E+01,      /* I = 56 */
(PID.TID 0000.0001)                -3.469381055553869E+01,      /* I = 57 */
(PID.TID 0000.0001)                -3.459687886042582E+01,      /* I = 58 */
(PID.TID 0000.0001)                -3.449993237899929E+01,      /* I = 59 */
(PID.TID 0000.0001)                -3.440297125287410E+01       /* I = 60 */
(PID.TID 0000.0001)     ;
(PID.TID 0000.0001) yC =  /* yC(1,:,1,:) : P-point Y coord ( deg. or m if cartesian) */
(PID.TID 0000.0001)                -7.991157677807014E+01,      /* J =  1 */
(PID.TID 0000.0001)                -7.988252994012558E+01,      /* J =  2 */
(PID.TID 0000.0001)                -7.985345368542984E+01,      /* J =  3 */
(PID.TID 0000.0001)                -7.982434804085437E+01,      /* J =  4 */
(PID.TID 0000.0001)                -7.979521303316228E+01,      /* J =  5 */
(PID.TID 0000.0001)                -7.976604868901377E+01,      /* J =  6 */
(PID.TID 0000.0001)                -7.973685503496124E+01,      /* J =  7 */
(PID.TID 0000.0001)                -7.970763209745265E+01,      /* J =  8 */
(PID.TID 0000.0001)                -7.967837990283088E+01,      /* J =  9 */
(PID.TID 0000.0001)                -7.964909847734349E+01,      /* J = 10 */
(PID.TID 0000.0001)                -7.961978784713403E+01,      /* J = 11 */
(PID.TID 0000.0001)                -7.959044803825120E+01,      /* J = 12 */
(PID.TID 0000.0001)                -7.956107907664170E+01,      /* J = 13 */
(PID.TID 0000.0001)                -7.953168098817083E+01,      /* J = 14 */
(PID.TID 0000.0001)                -7.950225379858873E+01,      /* J = 15 */
(PID.TID 0000.0001)                -7.947279753357709E+01,      /* J = 16 */
(PID.TID 0000.0001)                -7.944331221870739E+01,      /* J = 17 */
(PID.TID 0000.0001)                -7.941379787947339E+01,      /* J = 18 */
(PID.TID 0000.0001)                -7.938425454128075E+01,      /* J = 19 */
(PID.TID 0000.0001)                -7.935468222944225E+01,      /* J = 20 */
(PID.TID 0000.0001)                -7.932508096918529E+01,      /* J = 21 */
(PID.TID 0000.0001)                -7.929545078566761E+01,      /* J = 22 */
(PID.TID 0000.0001)                -7.926579170394245E+01,      /* J = 23 */
(PID.TID 0000.0001)                -7.923610374899920E+01,      /* J = 24 */
(PID.TID 0000.0001)                -7.920638694574113E+01,      /* J = 25 */
(PID.TID 0000.0001)                -7.917664131899178E+01,      /* J = 26 */
(PID.TID 0000.0001)                -7.914686689349735E+01,      /* J = 27 */
(PID.TID 0000.0001)                -7.911706369393319E+01,      /* J = 28 */
(PID.TID 0000.0001)                -7.908723174489049E+01,      /* J = 29 */
(PID.TID 0000.0001)                -7.905737107089486E+01,      /* J = 30 */
(PID.TID 0000.0001)                -7.902748169639256E+01,      /* J = 31 */
(PID.TID 0000.0001)                -7.899756364576749E+01,      /* J = 32 */
(PID.TID 0000.0001)                -7.896761694332186E+01,      /* J = 33 */
(PID.TID 0000.0001)                -7.893764161329702E+01,      /* J = 34 */
(PID.TID 0000.0001)                -7.890763767986911E+01,      /* J = 35 */
(PID.TID 0000.0001)                -7.887760516713543E+01,      /* J = 36 */
(PID.TID 0000.0001)                -7.884754409913802E+01,      /* J = 37 */
(PID.TID 0000.0001)                -7.881745449984705E+01,      /* J = 38 */
(PID.TID 0000.0001)                -7.878733639317939E+01,      /* J = 39 */
(PID.TID 0000.0001)                -7.875718980297903E+01,      /* J = 40 */
(PID.TID 0000.0001)                -7.872701475303201E+01,      /* J = 41 */
(PID.TID 0000.0001)                -7.869681126706747E+01,      /* J = 42 */
(PID.TID 0000.0001)                -7.866657936874979E+01,      /* J = 43 */
(PID.TID 0000.0001)                -7.863631908168864E+01,      /* J = 44 */
(PID.TID 0000.0001)                -7.860603042943598E+01,      /* J = 45 */
(PID.TID 0000.0001)                -7.857571343548508E+01,      /* J = 46 */
(PID.TID 0000.0001)                -7.854536812327929E+01,      /* J = 47 */
(PID.TID 0000.0001)                -7.851499451620171E+01,      /* J = 48 */
(PID.TID 0000.0001)                -7.848459263757745E+01,      /* J = 49 */
(PID.TID 0000.0001)                -7.845416251070428E+01,      /* J = 50 */
(PID.TID 0000.0001)                -7.842370415879482E+01,      /* J = 51 */
(PID.TID 0000.0001)                -7.839321760502919E+01,      /* J = 52 */
(PID.TID 0000.0001)                -7.836270287254553E+01,      /* J = 53 */
(PID.TID 0000.0001)                -7.833215998441074E+01,      /* J = 54 */
(PID.TID 0000.0001)                -7.830158896366248E+01,      /* J = 55 */
(PID.TID 0000.0001)                -7.827098983328665E+01,      /* J = 56 */
(PID.TID 0000.0001)                -7.824036261621900E+01,      /* J = 57 */
(PID.TID 0000.0001)                -7.820970733536025E+01,      /* J = 58 */
(PID.TID 0000.0001)                -7.817902401355080E+01,      /* J = 59 */
(PID.TID 0000.0001)                -7.814831267360262E+01       /* J = 60 */
(PID.TID 0000.0001)     ;
(PID.TID 0000.0001) rcoord = /* P-point R coordinate (  units of r ) */
(PID.TID 0000.0001)                -5.000000000000000E-01,      /* K =  1 */
(PID.TID 0000.0001)                -1.570000000000000E+00,      /* K =  2 */
(PID.TID 0000.0001)                -2.790000000000000E+00,      /* K =  3 */
(PID.TID 0000.0001)                -4.185000000000000E+00,      /* K =  4 */
(PID.TID 0000.0001)                -5.780000000000000E+00,      /* K =  5 */
(PID.TID 0000.0001)                -7.595000000000001E+00,      /* K =  6 */
(PID.TID 0000.0001)                -9.660000000000000E+00,      /* K =  7 */
(PID.TID 0000.0001)                -1.201000000000000E+01,      /* K =  8 */
(PID.TID 0000.0001)                -1.468000000000000E+01,      /* K =  9 */
(PID.TID 0000.0001)                -1.770500000000000E+01,      /* K = 10 */
(PID.TID 0000.0001)                -2.112500000000000E+01,      /* K = 11 */
(PID.TID 0000.0001)                -2.499000000000000E+01,      /* K = 12 */
(PID.TID 0000.0001)                -2.934500000000000E+01,      /* K = 13 */
(PID.TID 0000.0001)                -3.423999999999999E+01,      /* K = 14 */
(PID.TID 0000.0001)                -3.972499999999999E+01,      /* K = 15 */
(PID.TID 0000.0001)                -4.585500000000000E+01,      /* K = 16 */
(PID.TID 0000.0001)                -5.269000000000000E+01,      /* K = 17 */
(PID.TID 0000.0001)                -6.028000000000000E+01,      /* K = 18 */
(PID.TID 0000.0001)                -6.868500000000000E+01,      /* K = 19 */
(PID.TID 0000.0001)                -7.796500000000000E+01,      /* K = 20 */
(PID.TID 0000.0001)                -8.817500000000001E+01,      /* K = 21 */
(PID.TID 0000.0001)                -9.937000000000000E+01,      /* K = 22 */
(PID.TID 0000.0001)                -1.116000000000000E+02,      /* K = 23 */
(PID.TID 0000.0001)                -1.249150000000000E+02,      /* K = 24 */
(PID.TID 0000.0001)                -1.393650000000000E+02,      /* K = 25 */
(PID.TID 0000.0001)                -1.549900000000000E+02,      /* K = 26 */
(PID.TID 0000.0001)                -1.718250000000000E+02,      /* K = 27 */
(PID.TID 0000.0001)                -1.899000000000000E+02,      /* K = 28 */
(PID.TID 0000.0001)                -2.092350000000000E+02,      /* K = 29 */
(PID.TID 0000.0001)                -2.298550000000000E+02,      /* K = 30 */
(PID.TID 0000.0001)                -2.517700000000000E+02,      /* K = 31 */
(PID.TID 0000.0001)                -2.749850000000000E+02,      /* K = 32 */
(PID.TID 0000.0001)                -2.995050000000000E+02,      /* K = 33 */
(PID.TID 0000.0001)                -3.253200000000000E+02,      /* K = 34 */
(PID.TID 0000.0001)                -3.524200000000000E+02,      /* K = 35 */
(PID.TID 0000.0001)                -3.807900000000000E+02,      /* K = 36 */
(PID.TID 0000.0001)                -4.104100000000000E+02,      /* K = 37 */
(PID.TID 0000.0001)                -4.412550000000000E+02,      /* K = 38 */
(PID.TID 0000.0001)                -4.733050000000000E+02,      /* K = 39 */
(PID.TID 0000.0001)                -5.065400000000000E+02,      /* K = 40 */
(PID.TID 0000.0001)                -5.409350000000001E+02,      /* K = 41 */
(PID.TID 0000.0001)                -5.764650000000000E+02,      /* K = 42 */
(PID.TID 0000.0001)                -6.131100000000000E+02,      /* K = 43 */
(PID.TID 0000.0001)                -6.508550000000000E+02,      /* K = 44 */
(PID.TID 0000.0001)                -6.896850000000001E+02,      /* K = 45 */
(PID.TID 0000.0001)                -7.295950000000000E+02,      /* K = 46 */
(PID.TID 0000.0001)                -7.705850000000000E+02,      /* K = 47 */
(PID.TID 0000.0001)                -8.126600000000001E+02,      /* K = 48 */
(PID.TID 0000.0001)                -8.558350000000000E+02,      /* K = 49 */
(PID.TID 0000.0001)                -9.001350000000000E+02,      /* K = 50 */
(PID.TID 0000.0001)                -9.455950000000000E+02,      /* K = 51 */
(PID.TID 0000.0001)                -9.922600000000000E+02,      /* K = 52 */
(PID.TID 0000.0001)                -1.040180000000000E+03,      /* K = 53 */
(PID.TID 0000.0001)                -1.089425000000000E+03,      /* K = 54 */
(PID.TID 0000.0001)                -1.140080000000000E+03,      /* K = 55 */
(PID.TID 0000.0001)                -1.192235000000000E+03,      /* K = 56 */
(PID.TID 0000.0001)                -1.246005000000000E+03,      /* K = 57 */
(PID.TID 0000.0001)                -1.301520000000000E+03,      /* K = 58 */
(PID.TID 0000.0001)                -1.358920000000000E+03,      /* K = 59 */
(PID.TID 0000.0001)                -1.418375000000000E+03,      /* K = 60 */
(PID.TID 0000.0001)                -1.480075000000000E+03,      /* K = 61 */
(PID.TID 0000.0001)                -1.544225000000000E+03,      /* K = 62 */
(PID.TID 0000.0001)                -1.611060000000000E+03,      /* K = 63 */
(PID.TID 0000.0001)                -1.680845000000000E+03,      /* K = 64 */
(PID.TID 0000.0001)                -1.753875000000000E+03,      /* K = 65 */
(PID.TID 0000.0001)                -1.830475000000000E+03,      /* K = 66 */
(PID.TID 0000.0001)                -1.911015000000000E+03,      /* K = 67 */
(PID.TID 0000.0001)                -1.995905000000000E+03,      /* K = 68 */
(PID.TID 0000.0001)                -2.085595000000000E+03,      /* K = 69 */
(PID.TID 0000.0001)                -2.180595000000000E+03,      /* K = 70 */
(PID.TID 0000.0001)                -2.281470000000000E+03,      /* K = 71 */
(PID.TID 0000.0001)                -2.388845000000000E+03,      /* K = 72 */
(PID.TID 0000.0001)                -2.503415000000000E+03,      /* K = 73 */
(PID.TID 0000.0001)                -2.625955000000000E+03,      /* K = 74 */
(PID.TID 0000.0001)                -2.757325000000000E+03,      /* K = 75 */
(PID.TID 0000.0001)                -2.898480000000000E+03,      /* K = 76 */
(PID.TID 0000.0001)                -3.050485000000001E+03,      /* K = 77 */
(PID.TID 0000.0001)                -3.214515000000001E+03,      /* K = 78 */
(PID.TID 0000.0001)                -3.391875000000001E+03,      /* K = 79 */
(PID.TID 0000.0001)                -3.584005000000001E+03,      /* K = 80 */
(PID.TID 0000.0001)                -3.792495000000001E+03,      /* K = 81 */
(PID.TID 0000.0001)                -4.019105000000001E+03,      /* K = 82 */
(PID.TID 0000.0001)                -4.265775000000001E+03,      /* K = 83 */
(PID.TID 0000.0001)                -4.534630000000001E+03,      /* K = 84 */
(PID.TID 0000.0001)                -4.828000000000001E+03,      /* K = 85 */
(PID.TID 0000.0001)                -5.148440000000001E+03,      /* K = 86 */
(PID.TID 0000.0001)                -5.498725000000000E+03,      /* K = 87 */
(PID.TID 0000.0001)                -5.881880000000000E+03,      /* K = 88 */
(PID.TID 0000.0001)                -6.301185000000000E+03,      /* K = 89 */
(PID.TID 0000.0001)                -6.760170000000000E+03       /* K = 90 */
(PID.TID 0000.0001)     ;
(PID.TID 0000.0001) rF =   /* W-Interf. R coordinate (  units of r ) */
(PID.TID 0000.0001)                 0.000000000000000E+00,      /* K =  1 */
(PID.TID 0000.0001)                -1.000000000000000E+00,      /* K =  2 */
(PID.TID 0000.0001)                -2.140000000000000E+00,      /* K =  3 */
(PID.TID 0000.0001)                -3.440000000000000E+00,      /* K =  4 */
(PID.TID 0000.0001)                -4.930000000000000E+00,      /* K =  5 */
(PID.TID 0000.0001)                -6.630000000000000E+00,      /* K =  6 */
(PID.TID 0000.0001)                -8.560000000000000E+00,      /* K =  7 */
(PID.TID 0000.0001)                -1.076000000000000E+01,      /* K =  8 */
(PID.TID 0000.0001)                -1.326000000000000E+01,      /* K =  9 */
(PID.TID 0000.0001)                -1.610000000000000E+01,      /* K = 10 */
(PID.TID 0000.0001)                -1.931000000000000E+01,      /* K = 11 */
(PID.TID 0000.0001)                -2.294000000000000E+01,      /* K = 12 */
(PID.TID 0000.0001)                -2.704000000000000E+01,      /* K = 13 */
(PID.TID 0000.0001)                -3.165000000000000E+01,      /* K = 14 */
(PID.TID 0000.0001)                -3.683000000000000E+01,      /* K = 15 */
(PID.TID 0000.0001)                -4.262000000000000E+01,      /* K = 16 */
(PID.TID 0000.0001)                -4.909000000000000E+01,      /* K = 17 */
(PID.TID 0000.0001)                -5.629000000000000E+01,      /* K = 18 */
(PID.TID 0000.0001)                -6.427000000000000E+01,      /* K = 19 */
(PID.TID 0000.0001)                -7.309999999999999E+01,      /* K = 20 */
(PID.TID 0000.0001)                -8.283000000000000E+01,      /* K = 21 */
(PID.TID 0000.0001)                -9.352000000000000E+01,      /* K = 22 */
(PID.TID 0000.0001)                -1.052200000000000E+02,      /* K = 23 */
(PID.TID 0000.0001)                -1.179800000000000E+02,      /* K = 24 */
(PID.TID 0000.0001)                -1.318500000000000E+02,      /* K = 25 */
(PID.TID 0000.0001)                -1.468800000000000E+02,      /* K = 26 */
(PID.TID 0000.0001)                -1.631000000000000E+02,      /* K = 27 */
(PID.TID 0000.0001)                -1.805500000000000E+02,      /* K = 28 */
(PID.TID 0000.0001)                -1.992500000000000E+02,      /* K = 29 */
(PID.TID 0000.0001)                -2.192200000000000E+02,      /* K = 30 */
(PID.TID 0000.0001)                -2.404900000000000E+02,      /* K = 31 */
(PID.TID 0000.0001)                -2.630500000000000E+02,      /* K = 32 */
(PID.TID 0000.0001)                -2.869200000000000E+02,      /* K = 33 */
(PID.TID 0000.0001)                -3.120900000000000E+02,      /* K = 34 */
(PID.TID 0000.0001)                -3.385500000000000E+02,      /* K = 35 */
(PID.TID 0000.0001)                -3.662900000000000E+02,      /* K = 36 */
(PID.TID 0000.0001)                -3.952900000000000E+02,      /* K = 37 */
(PID.TID 0000.0001)                -4.255300000000000E+02,      /* K = 38 */
(PID.TID 0000.0001)                -4.569800000000000E+02,      /* K = 39 */
(PID.TID 0000.0001)                -4.896299999999999E+02,      /* K = 40 */
(PID.TID 0000.0001)                -5.234499999999999E+02,      /* K = 41 */
(PID.TID 0000.0001)                -5.584200000000000E+02,      /* K = 42 */
(PID.TID 0000.0001)                -5.945100000000000E+02,      /* K = 43 */
(PID.TID 0000.0001)                -6.317100000000000E+02,      /* K = 44 */
(PID.TID 0000.0001)                -6.700000000000000E+02,      /* K = 45 */
(PID.TID 0000.0001)                -7.093700000000000E+02,      /* K = 46 */
(PID.TID 0000.0001)                -7.498200000000001E+02,      /* K = 47 */
(PID.TID 0000.0001)                -7.913500000000000E+02,      /* K = 48 */
(PID.TID 0000.0001)                -8.339700000000000E+02,      /* K = 49 */
(PID.TID 0000.0001)                -8.777000000000000E+02,      /* K = 50 */
(PID.TID 0000.0001)                -9.225700000000001E+02,      /* K = 51 */
(PID.TID 0000.0001)                -9.686200000000000E+02,      /* K = 52 */
(PID.TID 0000.0001)                -1.015900000000000E+03,      /* K = 53 */
(PID.TID 0000.0001)                -1.064460000000000E+03,      /* K = 54 */
(PID.TID 0000.0001)                -1.114390000000000E+03,      /* K = 55 */
(PID.TID 0000.0001)                -1.165770000000000E+03,      /* K = 56 */
(PID.TID 0000.0001)                -1.218700000000000E+03,      /* K = 57 */
(PID.TID 0000.0001)                -1.273310000000000E+03,      /* K = 58 */
(PID.TID 0000.0001)                -1.329730000000000E+03,      /* K = 59 */
(PID.TID 0000.0001)                -1.388110000000000E+03,      /* K = 60 */
(PID.TID 0000.0001)                -1.448640000000000E+03,      /* K = 61 */
(PID.TID 0000.0001)                -1.511510000000000E+03,      /* K = 62 */
(PID.TID 0000.0001)                -1.576940000000000E+03,      /* K = 63 */
(PID.TID 0000.0001)                -1.645180000000000E+03,      /* K = 64 */
(PID.TID 0000.0001)                -1.716510000000000E+03,      /* K = 65 */
(PID.TID 0000.0001)                -1.791240000000000E+03,      /* K = 66 */
(PID.TID 0000.0001)                -1.869710000000000E+03,      /* K = 67 */
(PID.TID 0000.0001)                -1.952320000000000E+03,      /* K = 68 */
(PID.TID 0000.0001)                -2.039490000000000E+03,      /* K = 69 */
(PID.TID 0000.0001)                -2.131700000000000E+03,      /* K = 70 */
(PID.TID 0000.0001)                -2.229490000000000E+03,      /* K = 71 */
(PID.TID 0000.0001)                -2.333450000000000E+03,      /* K = 72 */
(PID.TID 0000.0001)                -2.444240000000000E+03,      /* K = 73 */
(PID.TID 0000.0001)                -2.562590000000000E+03,      /* K = 74 */
(PID.TID 0000.0001)                -2.689320000000000E+03,      /* K = 75 */
(PID.TID 0000.0001)                -2.825330000000000E+03,      /* K = 76 */
(PID.TID 0000.0001)                -2.971630000000000E+03,      /* K = 77 */
(PID.TID 0000.0001)                -3.129340000000000E+03,      /* K = 78 */
(PID.TID 0000.0001)                -3.299690000000000E+03,      /* K = 79 */
(PID.TID 0000.0001)                -3.484060000000000E+03,      /* K = 80 */
(PID.TID 0000.0001)                -3.683950000000000E+03,      /* K = 81 */
(PID.TID 0000.0001)                -3.901040000000000E+03,      /* K = 82 */
(PID.TID 0000.0001)                -4.137170000000000E+03,      /* K = 83 */
(PID.TID 0000.0001)                -4.394380000000000E+03,      /* K = 84 */
(PID.TID 0000.0001)                -4.674880000000000E+03,      /* K = 85 */
(PID.TID 0000.0001)                -4.981120000000000E+03,      /* K = 86 */
(PID.TID 0000.0001)                -5.315760000000000E+03,      /* K = 87 */
(PID.TID 0000.0001)                -5.681690000000001E+03,      /* K = 88 */
(PID.TID 0000.0001)                -6.082070000000001E+03,      /* K = 89 */
(PID.TID 0000.0001)                -6.520300000000001E+03,      /* K = 90 */
(PID.TID 0000.0001)                -7.000040000000001E+03       /* K = 91 */
(PID.TID 0000.0001)     ;
(PID.TID 0000.0001) deepFacC = /* deep-model grid factor @ cell-Center (-) */
(PID.TID 0000.0001)    90 @  1.000000000000000E+00              /* K =  1: 90 */
(PID.TID 0000.0001)     ;
(PID.TID 0000.0001) deepFacF = /* deep-model grid factor @ W-Interface (-) */
(PID.TID 0000.0001)    91 @  1.000000000000000E+00              /* K =  1: 91 */
(PID.TID 0000.0001)     ;
(PID.TID 0000.0001) rVel2wUnit = /* convert units: rVel -> wSpeed (=1 if z-coord)*/
(PID.TID 0000.0001)    91 @  1.000000000000000E+00              /* K =  1: 91 */
(PID.TID 0000.0001)     ;
(PID.TID 0000.0001) wUnit2rVel = /* convert units: wSpeed -> rVel (=1 if z-coord)*/
(PID.TID 0000.0001)    91 @  1.000000000000000E+00              /* K =  1: 91 */
(PID.TID 0000.0001)     ;
(PID.TID 0000.0001) dBdrRef = /* Vertical grad. of reference buoyancy [(m/s/r)^2] */
(PID.TID 0000.0001)     5 @  0.000000000000000E+00,             /* K =  1:  5 */
(PID.TID 0000.0001)                 2.671314373000065E-05,      /* K =  6 */
(PID.TID 0000.0001)                 5.881281277270207E-05,      /* K =  7 */
(PID.TID 0000.0001)                 3.091073985560493E-05,      /* K =  8 */
(PID.TID 0000.0001)                 1.812502618619757E-05,      /* K =  9 */
(PID.TID 0000.0001)                 8.005182046680533E-05,      /* K = 10 */
(PID.TID 0000.0001)                 7.774664915520508E-05,      /* K = 11 */
(PID.TID 0000.0001)                 6.867727532488323E-05,      /* K = 12 */
(PID.TID 0000.0001)                 1.102911113865688E-04,      /* K = 13 */
(PID.TID 0000.0001)                 1.025269431642732E-04,      /* K = 14 */
(PID.TID 0000.0001)                 1.215829621134209E-04,      /* K = 15 */
(PID.TID 0000.0001)                 1.234559580591187E-04,      /* K = 16 */
(PID.TID 0000.0001)                 1.235150496798779E-04,      /* K = 17 */
(PID.TID 0000.0001)                 1.163426800308423E-04,      /* K = 18 */
(PID.TID 0000.0001)                 1.148767015211024E-04,      /* K = 19 */
(PID.TID 0000.0001)                 1.053520477309349E-04,      /* K = 20 */
(PID.TID 0000.0001)                 1.033159919335948E-04,      /* K = 21 */
(PID.TID 0000.0001)                 9.689783142633455E-05,      /* K = 22 */
(PID.TID 0000.0001)                 8.843042541690880E-05,      /* K = 23 */
(PID.TID 0000.0001)                 7.747724336586724E-05,      /* K = 24 */
(PID.TID 0000.0001)                 7.425971922554331E-05,      /* K = 25 */
(PID.TID 0000.0001)                 6.034583803477407E-05,      /* K = 26 */
(PID.TID 0000.0001)                 5.453558613300517E-05,      /* K = 27 */
(PID.TID 0000.0001)                 4.730883085226018E-05,      /* K = 28 */
(PID.TID 0000.0001)                 3.727333639596649E-05,      /* K = 29 */
(PID.TID 0000.0001)                 3.213746117327719E-05,      /* K = 30 */
(PID.TID 0000.0001)                 2.851753886393134E-05,      /* K = 31 */
(PID.TID 0000.0001)                 2.459750732234570E-05,      /* K = 32 */
(PID.TID 0000.0001)                 1.954382345636438E-05,      /* K = 33 */
(PID.TID 0000.0001)                 1.817915710641698E-05,      /* K = 34 */
(PID.TID 0000.0001)                 1.859416484546643E-05,      /* K = 35 */
(PID.TID 0000.0001)                 1.435995593960157E-05,      /* K = 36 */
(PID.TID 0000.0001)                 1.490259168662442E-05,      /* K = 37 */
(PID.TID 0000.0001)                 1.376173816384962E-05,      /* K = 38 */
(PID.TID 0000.0001)                 1.102734709403975E-05,      /* K = 39 */
(PID.TID 0000.0001)                 1.074871203655712E-05,      /* K = 40 */
(PID.TID 0000.0001)                 1.011493514869791E-05,      /* K = 41 */
(PID.TID 0000.0001)                 8.331194431055344E-06,      /* K = 42 */
(PID.TID 0000.0001)                 9.536520332142578E-06,      /* K = 43 */
(PID.TID 0000.0001)                 8.714472632615399E-06,      /* K = 44 */
(PID.TID 0000.0001)                 7.612419487175349E-06,      /* K = 45 */
(PID.TID 0000.0001)                 9.157203444897868E-06,      /* K = 46 */
(PID.TID 0000.0001)                 6.317897577135043E-06,      /* K = 47 */
(PID.TID 0000.0001)                 7.841112125616001E-06,      /* K = 48 */
(PID.TID 0000.0001)                 8.390572142355109E-06,      /* K = 49 */
(PID.TID 0000.0001)                 6.420992451281957E-06,      /* K = 50 */
(PID.TID 0000.0001)                 7.291823196373641E-06,      /* K = 51 */
(PID.TID 0000.0001)                 5.181670425130897E-06,      /* K = 52 */
(PID.TID 0000.0001)                 6.318950528848164E-06,      /* K = 53 */
(PID.TID 0000.0001)                 5.870462574706715E-06,      /* K = 54 */
(PID.TID 0000.0001)                 5.443292433518137E-06,      /* K = 55 */
(PID.TID 0000.0001)                 5.036565296875304E-06,      /* K = 56 */
(PID.TID 0000.0001)                 4.416810732763596E-06,      /* K = 57 */
(PID.TID 0000.0001)                 4.501814904850640E-06,      /* K = 58 */
(PID.TID 0000.0001)                 4.136572555946092E-06,      /* K = 59 */
(PID.TID 0000.0001)                 3.786835497822736E-06,      /* K = 60 */
(PID.TID 0000.0001)                 3.654310678692395E-06,      /* K = 61 */
(PID.TID 0000.0001)                 3.520984647447456E-06,      /* K = 62 */
(PID.TID 0000.0001)                 3.198957651239056E-06,      /* K = 63 */
(PID.TID 0000.0001)                 1.997498584111634E-06,      /* K = 64 */
(PID.TID 0000.0001)                 2.945876878428031E-06,      /* K = 65 */
(PID.TID 0000.0001)                 1.507031299554541E-06,      /* K = 66 */
(PID.TID 0000.0001)                 2.535636110353888E-06,      /* K = 67 */
(PID.TID 0000.0001)                 1.382703083362942E-06,      /* K = 68 */
(PID.TID 0000.0001)                 2.156331811915861E-06,      /* K = 69 */
(PID.TID 0000.0001)                 1.121812858688635E-06,      /* K = 70 */
(PID.TID 0000.0001)                 1.069761881755507E-06,      /* K = 71 */
(PID.TID 0000.0001)                 1.018679085239688E-06,      /* K = 72 */
(PID.TID 0000.0001)                 1.740853844400696E-06,      /* K = 73 */
(PID.TID 0000.0001)                 3.112181538829631E-07,      /* K = 74 */
(PID.TID 0000.0001)                 8.724540785621597E-07,      /* K = 75 */
(PID.TID 0000.0001)                 8.270409639744078E-07,      /* K = 76 */
(PID.TID 0000.0001)                 7.833648017879649E-07,      /* K = 77 */
(PID.TID 0000.0001)                 7.415601413754022E-07,      /* K = 78 */
(PID.TID 0000.0001)                 7.016876791721197E-07,      /* K = 79 */
(PID.TID 0000.0001)                 7.465761967191204E-07,      /* K = 80 */
(PID.TID 0000.0001)                 3.516928502497870E-07,      /* K = 81 */
(PID.TID 0000.0001)                 6.674466639831095E-07,      /* K = 82 */
(PID.TID 0000.0001)                 5.614200500332666E-07,      /* K = 83 */
(PID.TID 0000.0001)                 2.661071354204717E-07,      /* K = 84 */
(PID.TID 0000.0001)                 1.895279162415637E-07,      /* K = 85 */
(PID.TID 0000.0001)                -2.877058539736360E-07,      /* K = 86 */
(PID.TID 0000.0001)                -3.437551264932006E-07,      /* K = 87 */
(PID.TID 0000.0001)     3 @  0.000000000000000E+00              /* K = 88: 90 */
(PID.TID 0000.0001)     ;
(PID.TID 0000.0001) rotateGrid = /* use rotated grid ( True/False ) */
(PID.TID 0000.0001)                   F
(PID.TID 0000.0001)     ;
(PID.TID 0000.0001) phiEuler = /* Euler angle, rotation about original z-coordinate [rad] */
(PID.TID 0000.0001)                 0.000000000000000E+00
(PID.TID 0000.0001)     ;
(PID.TID 0000.0001) thetaEuler = /* Euler angle, rotation about new x-coordinate [rad] */
(PID.TID 0000.0001)                 0.000000000000000E+00
(PID.TID 0000.0001)     ;
(PID.TID 0000.0001) psiEuler = /* Euler angle, rotation about new z-coordinate [rad] */
(PID.TID 0000.0001)                 0.000000000000000E+00
(PID.TID 0000.0001)     ;
(PID.TID 0000.0001) dxF =  /* dxF(:,1,:,1) ( units: m ) */
(PID.TID 0000.0001)                 1.879735657572981E+03,      /* I =  1 */
(PID.TID 0000.0001)                 1.879658712536627E+03,      /* I =  2 */
(PID.TID 0000.0001)                 1.879582215993426E+03,      /* I =  3 */
(PID.TID 0000.0001)                 1.879506168451156E+03,      /* I =  4 */
(PID.TID 0000.0001)                 1.879430572554676E+03,      /* I =  5 */
(PID.TID 0000.0001)                 1.879355426746915E+03,      /* I =  6 */
(PID.TID 0000.0001)                 1.879280734440604E+03,      /* I =  7 */
(PID.TID 0000.0001)                 1.879206494536103E+03,      /* I =  8 */
(PID.TID 0000.0001)                 1.879132708706103E+03,      /* I =  9 */
(PID.TID 0000.0001)                 1.879059378195491E+03,      /* I = 10 */
(PID.TID 0000.0001)                 1.878986504090095E+03,      /* I = 11 */
(PID.TID 0000.0001)                 1.878914086449775E+03,      /* I = 12 */
(PID.TID 0000.0001)                 1.878842126643586E+03,      /* I = 13 */
(PID.TID 0000.0001)                 1.878770625291052E+03,      /* I = 14 */
(PID.TID 0000.0001)                 1.878699583728327E+03,      /* I = 15 */
(PID.TID 0000.0001)                 1.878629002259150E+03,      /* I = 16 */
(PID.TID 0000.0001)                 1.878558882500563E+03,      /* I = 17 */
(PID.TID 0000.0001)                 1.878489224502736E+03,      /* I = 18 */
(PID.TID 0000.0001)                 1.878420029674849E+03,      /* I = 19 */
(PID.TID 0000.0001)                 1.878351298201185E+03,      /* I = 20 */
(PID.TID 0000.0001)                 1.878283032626117E+03,      /* I = 21 */
(PID.TID 0000.0001)                 1.878215230867913E+03,      /* I = 22 */
(PID.TID 0000.0001)                 1.878147896618122E+03,      /* I = 23 */
(PID.TID 0000.0001)                 1.878081029081393E+03,      /* I = 24 */
(PID.TID 0000.0001)                 1.878014629719552E+03,      /* I = 25 */
(PID.TID 0000.0001)                 1.877948698413975E+03,      /* I = 26 */
(PID.TID 0000.0001)                 1.877883237598976E+03,      /* I = 27 */
(PID.TID 0000.0001)                 1.877818246440964E+03,      /* I = 28 */
(PID.TID 0000.0001)                 1.877753726646069E+03,      /* I = 29 */
(PID.TID 0000.0001)                 1.877689678749985E+03,      /* I = 30 */
(PID.TID 0000.0001)                 1.877626103180176E+03,      /* I = 31 */
(PID.TID 0000.0001)                 1.877563001863275E+03,      /* I = 32 */
(PID.TID 0000.0001)                 1.877500373156665E+03,      /* I = 33 */
(PID.TID 0000.0001)                 1.877438221372122E+03,      /* I = 34 */
(PID.TID 0000.0001)                 1.877376544167342E+03,      /* I = 35 */
(PID.TID 0000.0001)                 1.877315343479270E+03,      /* I = 36 */
(PID.TID 0000.0001)                 1.877254619836429E+03,      /* I = 37 */
(PID.TID 0000.0001)                 1.877194374598472E+03,      /* I = 38 */
(PID.TID 0000.0001)                 1.877134607102658E+03,      /* I = 39 */
(PID.TID 0000.0001)                 1.877075319587854E+03,      /* I = 40 */
(PID.TID 0000.0001)                 1.877016511464683E+03,      /* I = 41 */
(PID.TID 0000.0001)                 1.876958185366791E+03,      /* I = 42 */
(PID.TID 0000.0001)                 1.876900338984406E+03,      /* I = 43 */
(PID.TID 0000.0001)                 1.876842975762312E+03,      /* I = 44 */
(PID.TID 0000.0001)                 1.876786095239690E+03,      /* I = 45 */
(PID.TID 0000.0001)                 1.876729697727326E+03,      /* I = 46 */
(PID.TID 0000.0001)                 1.876673784385321E+03,      /* I = 47 */
(PID.TID 0000.0001)                 1.876618355758043E+03,      /* I = 48 */
(PID.TID 0000.0001)                 1.876563413166944E+03,      /* I = 49 */
(PID.TID 0000.0001)                 1.876508955856418E+03,      /* I = 50 */
(PID.TID 0000.0001)                 1.876454986070607E+03,      /* I = 51 */
(PID.TID 0000.0001)                 1.876401503216324E+03,      /* I = 52 */
(PID.TID 0000.0001)                 1.876348508052781E+03,      /* I = 53 */
(PID.TID 0000.0001)                 1.876296001781445E+03,      /* I = 54 */
(PID.TID 0000.0001)                 1.876243984666975E+03,      /* I = 55 */
(PID.TID 0000.0001)                 1.876192457352475E+03,      /* I = 56 */
(PID.TID 0000.0001)                 1.876141420469980E+03,      /* I = 57 */
(PID.TID 0000.0001)                 1.876090874789015E+03,      /* I = 58 */
(PID.TID 0000.0001)                 1.876040820168114E+03,      /* I = 59 */
(PID.TID 0000.0001)                 1.875991258503962E+03       /* I = 60 */
(PID.TID 0000.0001)     ;
(PID.TID 0000.0001) dxF =  /* dxF(1,:,1,:) ( units: m ) */
(PID.TID 0000.0001)                 1.879735657572981E+03,      /* J =  1 */
(PID.TID 0000.0001)                 1.882783015349219E+03,      /* J =  2 */
(PID.TID 0000.0001)                 1.885838714377265E+03,      /* J =  3 */
(PID.TID 0000.0001)                 1.888902754455298E+03,      /* J =  4 */
(PID.TID 0000.0001)                 1.891975135385423E+03,      /* J =  5 */
(PID.TID 0000.0001)                 1.895055856971154E+03,      /* J =  6 */
(PID.TID 0000.0001)                 1.898144919021490E+03,      /* J =  7 */
(PID.TID 0000.0001)                 1.901242321349490E+03,      /* J =  8 */
(PID.TID 0000.0001)                 1.904348063773349E+03,      /* J =  9 */
(PID.TID 0000.0001)                 1.907462146114134E+03,      /* J = 10 */
(PID.TID 0000.0001)                 1.910584568196941E+03,      /* J = 11 */
(PID.TID 0000.0001)                 1.913715329855939E+03,      /* J = 12 */
(PID.TID 0000.0001)                 1.916854430929880E+03,      /* J = 13 */
(PID.TID 0000.0001)                 1.920001871259657E+03,      /* J = 14 */
(PID.TID 0000.0001)                 1.923157650696578E+03,      /* J = 15 */
(PID.TID 0000.0001)                 1.926321769095485E+03,      /* J = 16 */
(PID.TID 0000.0001)                 1.929494226320503E+03,      /* J = 17 */
(PID.TID 0000.0001)                 1.932675022239063E+03,      /* J = 18 */
(PID.TID 0000.0001)                 1.935864156729484E+03,      /* J = 19 */
(PID.TID 0000.0001)                 1.939061629674027E+03,      /* J = 20 */
(PID.TID 0000.0001)                 1.942267440966913E+03,      /* J = 21 */
(PID.TID 0000.0001)                 1.945481590504769E+03,      /* J = 22 */
(PID.TID 0000.0001)                 1.948704078197143E+03,      /* J = 23 */
(PID.TID 0000.0001)                 1.951934903959847E+03,      /* J = 24 */
(PID.TID 0000.0001)                 1.955174067717744E+03,      /* J = 25 */
(PID.TID 0000.0001)                 1.958421569403212E+03,      /* J = 26 */
(PID.TID 0000.0001)                 1.961677408960910E+03,      /* J = 27 */
(PID.TID 0000.0001)                 1.964941586342618E+03,      /* J = 28 */
(PID.TID 0000.0001)                 1.968214101509851E+03,      /* J = 29 */
(PID.TID 0000.0001)                 1.971494954432514E+03,      /* J = 30 */
(PID.TID 0000.0001)                 1.974784145096101E+03,      /* J = 31 */
(PID.TID 0000.0001)                 1.978081673488796E+03,      /* J = 32 */
(PID.TID 0000.0001)                 1.981387539616211E+03,      /* J = 33 */
(PID.TID 0000.0001)                 1.984701743488854E+03,      /* J = 34 */
(PID.TID 0000.0001)                 1.988024285131907E+03,      /* J = 35 */
(PID.TID 0000.0001)                 1.991355164580501E+03,      /* J = 36 */
(PID.TID 0000.0001)                 1.994694381881227E+03,      /* J = 37 */
(PID.TID 0000.0001)                 1.998041937093000E+03,      /* J = 38 */
(PID.TID 0000.0001)                 2.001397830284252E+03,      /* J = 39 */
(PID.TID 0000.0001)                 2.004762061537370E+03,      /* J = 40 */
(PID.TID 0000.0001)                 2.008134630947947E+03,      /* J = 41 */
(PID.TID 0000.0001)                 2.011515538620158E+03,      /* J = 42 */
(PID.TID 0000.0001)                 2.014904784674389E+03,      /* J = 43 */
(PID.TID 0000.0001)                 2.018302369241709E+03,      /* J = 44 */
(PID.TID 0000.0001)                 2.021708292467282E+03,      /* J = 45 */
(PID.TID 0000.0001)                 2.025122554508420E+03,      /* J = 46 */
(PID.TID 0000.0001)                 2.028545155535964E+03,      /* J = 47 */
(PID.TID 0000.0001)                 2.031976095735057E+03,      /* J = 48 */
(PID.TID 0000.0001)                 2.035415375304436E+03,      /* J = 49 */
(PID.TID 0000.0001)                 2.038862994453882E+03,      /* J = 50 */
(PID.TID 0000.0001)                 2.042318953410917E+03,      /* J = 51 */
(PID.TID 0000.0001)                 2.045783252417433E+03,      /* J = 52 */
(PID.TID 0000.0001)                 2.049255891723101E+03,      /* J = 53 */
(PID.TID 0000.0001)                 2.052736871602818E+03,      /* J = 54 */
(PID.TID 0000.0001)                 2.056226192336797E+03,      /* J = 55 */
(PID.TID 0000.0001)                 2.059723854223349E+03,      /* J = 56 */
(PID.TID 0000.0001)                 2.063229857577193E+03,      /* J = 57 */
(PID.TID 0000.0001)                 2.066744202725489E+03,      /* J = 58 */
(PID.TID 0000.0001)                 2.070266890014167E+03,      /* J = 59 */
(PID.TID 0000.0001)                 2.073797919799985E+03       /* J = 60 */
(PID.TID 0000.0001)     ;
(PID.TID 0000.0001) dyF =  /* dyF(:,1,:,1) ( units: m ) */
(PID.TID 0000.0001)                 3.249483311597542E+03,      /* I =  1 */
(PID.TID 0000.0001)                 3.250024657503119E+03,      /* I =  2 */
(PID.TID 0000.0001)                 3.250562530758792E+03,      /* I =  3 */
(PID.TID 0000.0001)                 3.251096930929614E+03,      /* I =  4 */
(PID.TID 0000.0001)                 3.251627857582628E+03,      /* I =  5 */
(PID.TID 0000.0001)                 3.252155310295782E+03,      /* I =  6 */
(PID.TID 0000.0001)                 3.252679288648527E+03,      /* I =  7 */
(PID.TID 0000.0001)                 3.253199792223580E+03,      /* I =  8 */
(PID.TID 0000.0001)                 3.253716820607634E+03,      /* I =  9 */
(PID.TID 0000.0001)                 3.254230373394239E+03,      /* I = 10 */
(PID.TID 0000.0001)                 3.254740450177781E+03,      /* I = 11 */
(PID.TID 0000.0001)                 3.255247050559036E+03,      /* I = 12 */
(PID.TID 0000.0001)                 3.255750174141974E+03,      /* I = 13 */
(PID.TID 0000.0001)                 3.256249820539257E+03,      /* I = 14 */
(PID.TID 0000.0001)                 3.256745989357946E+03,      /* I = 15 */
(PID.TID 0000.0001)                 3.257238680214612E+03,      /* I = 16 */
(PID.TID 0000.0001)                 3.257727892734164E+03,      /* I = 17 */
(PID.TID 0000.0001)                 3.258213626539021E+03,      /* I = 18 */
(PID.TID 0000.0001)                 3.258695881259429E+03,      /* I = 19 */
(PID.TID 0000.0001)                 3.259174656524399E+03,      /* I = 20 */
(PID.TID 0000.0001)                 3.259649951971696E+03,      /* I = 21 */
(PID.TID 0000.0001)                 3.260121767242845E+03,      /* I = 22 */
(PID.TID 0000.0001)                 3.260590101984796E+03,      /* I = 23 */
(PID.TID 0000.0001)                 3.261054955838597E+03,      /* I = 24 */
(PID.TID 0000.0001)                 3.261516328462320E+03,      /* I = 25 */
(PID.TID 0000.0001)                 3.261974219505048E+03,      /* I = 26 */
(PID.TID 0000.0001)                 3.262428628629877E+03,      /* I = 27 */
(PID.TID 0000.0001)                 3.262879555505577E+03,      /* I = 28 */
(PID.TID 0000.0001)                 3.263326999788059E+03,      /* I = 29 */
(PID.TID 0000.0001)                 3.263770961156749E+03,      /* I = 30 */
(PID.TID 0000.0001)                 3.264211439279157E+03,      /* I = 31 */
(PID.TID 0000.0001)                 3.264648433834721E+03,      /* I = 32 */
(PID.TID 0000.0001)                 3.265081944504559E+03,      /* I = 33 */
(PID.TID 0000.0001)                 3.265511970972774E+03,      /* I = 34 */
(PID.TID 0000.0001)                 3.265938512930432E+03,      /* I = 35 */
(PID.TID 0000.0001)                 3.266361570069953E+03,      /* I = 36 */
(PID.TID 0000.0001)                 3.266781142080120E+03,      /* I = 37 */
(PID.TID 0000.0001)                 3.267197228662177E+03,      /* I = 38 */
(PID.TID 0000.0001)                 3.267609829527508E+03,      /* I = 39 */
(PID.TID 0000.0001)                 3.268018944365397E+03,      /* I = 40 */
(PID.TID 0000.0001)                 3.268424572896327E+03,      /* I = 41 */
(PID.TID 0000.0001)                 3.268826714833769E+03,      /* I = 42 */
(PID.TID 0000.0001)                 3.269225369883574E+03,      /* I = 43 */
(PID.TID 0000.0001)                 3.269620537771395E+03,      /* I = 44 */
(PID.TID 0000.0001)                 3.270012218220601E+03,      /* I = 45 */
(PID.TID 0000.0001)                 3.270400410953759E+03,      /* I = 46 */
(PID.TID 0000.0001)                 3.270785115698144E+03,      /* I = 47 */
(PID.TID 0000.0001)                 3.271166332191212E+03,      /* I = 48 */
(PID.TID 0000.0001)                 3.271544060163154E+03,      /* I = 49 */
(PID.TID 0000.0001)                 3.271918299354252E+03,      /* I = 50 */
(PID.TID 0000.0001)                 3.272289049501250E+03,      /* I = 51 */
(PID.TID 0000.0001)                 3.272656310360569E+03,      /* I = 52 */
(PID.TID 0000.0001)                 3.273020081669285E+03,      /* I = 53 */
(PID.TID 0000.0001)                 3.273380363181917E+03,      /* I = 54 */
(PID.TID 0000.0001)                 3.273737154649412E+03,      /* I = 55 */
(PID.TID 0000.0001)                 3.274090455838145E+03,      /* I = 56 */
(PID.TID 0000.0001)                 3.274440266497757E+03,      /* I = 57 */
(PID.TID 0000.0001)                 3.274786586397346E+03,      /* I = 58 */
(PID.TID 0000.0001)                 3.275129415299994E+03,      /* I = 59 */
(PID.TID 0000.0001)                 3.275468752976919E+03       /* I = 60 */
(PID.TID 0000.0001)     ;
(PID.TID 0000.0001) dyF =  /* dyF(1,:,1,:) ( units: m ) */
(PID.TID 0000.0001)                 3.249483311597542E+03,      /* J =  1 */
(PID.TID 0000.0001)                 3.252543839090667E+03,      /* J =  2 */
(PID.TID 0000.0001)                 3.255603198052612E+03,      /* J =  3 */
(PID.TID 0000.0001)                 3.258661383212966E+03,      /* J =  4 */
(PID.TID 0000.0001)                 3.261718390152557E+03,      /* J =  5 */
(PID.TID 0000.0001)                 3.264774213805672E+03,      /* J =  6 */
(PID.TID 0000.0001)                 3.267828849796882E+03,      /* J =  7 */
(PID.TID 0000.0001)                 3.270882292683209E+03,      /* J =  8 */
(PID.TID 0000.0001)                 3.273934538359087E+03,      /* J =  9 */
(PID.TID 0000.0001)                 3.276985581587065E+03,      /* J = 10 */
(PID.TID 0000.0001)                 3.280035418244915E+03,      /* J = 11 */
(PID.TID 0000.0001)                 3.283084042761856E+03,      /* J = 12 */
(PID.TID 0000.0001)                 3.286131450891068E+03,      /* J = 13 */
(PID.TID 0000.0001)                 3.289177637686278E+03,      /* J = 14 */
(PID.TID 0000.0001)                 3.292222598772659E+03,      /* J = 15 */
(PID.TID 0000.0001)                 3.295266329072750E+03,      /* J = 16 */
(PID.TID 0000.0001)                 3.298308823410649E+03,      /* J = 17 */
(PID.TID 0000.0001)                 3.301350078471979E+03,      /* J = 18 */
(PID.TID 0000.0001)                 3.304390088001202E+03,      /* J = 19 */
(PID.TID 0000.0001)                 3.307428848089584E+03,      /* J = 20 */
(PID.TID 0000.0001)                 3.310466353734265E+03,      /* J = 21 */
(PID.TID 0000.0001)                 3.313502600688581E+03,      /* J = 22 */
(PID.TID 0000.0001)                 3.316537583329235E+03,      /* J = 23 */
(PID.TID 0000.0001)                 3.319571297987049E+03,      /* J = 24 */
(PID.TID 0000.0001)                 3.322603739323383E+03,      /* J = 25 */
(PID.TID 0000.0001)                 3.325634902701415E+03,      /* J = 26 */
(PID.TID 0000.0001)                 3.328664783979287E+03,      /* J = 27 */
(PID.TID 0000.0001)                 3.331693377383046E+03,      /* J = 28 */
(PID.TID 0000.0001)                 3.334720679769359E+03,      /* J = 29 */
(PID.TID 0000.0001)                 3.337746684788400E+03,      /* J = 30 */
(PID.TID 0000.0001)                 3.340771388918125E+03,      /* J = 31 */
(PID.TID 0000.0001)                 3.343794787157644E+03,      /* J = 32 */
(PID.TID 0000.0001)                 3.346816874850272E+03,      /* J = 33 */
(PID.TID 0000.0001)                 3.349837647097692E+03,      /* J = 34 */
(PID.TID 0000.0001)                 3.352857099651535E+03,      /* J = 35 */
(PID.TID 0000.0001)                 3.355875227768617E+03,      /* J = 36 */
(PID.TID 0000.0001)                 3.358892026433974E+03,      /* J = 37 */
(PID.TID 0000.0001)                 3.361907491729132E+03,      /* J = 38 */
(PID.TID 0000.0001)                 3.364921618043069E+03,      /* J = 39 */
(PID.TID 0000.0001)                 3.367934401472719E+03,      /* J = 40 */
(PID.TID 0000.0001)                 3.370945837184357E+03,      /* J = 41 */
(PID.TID 0000.0001)                 3.373955920902898E+03,      /* J = 42 */
(PID.TID 0000.0001)                 3.376964647101270E+03,      /* J = 43 */
(PID.TID 0000.0001)                 3.379972012149947E+03,      /* J = 44 */
(PID.TID 0000.0001)                 3.382978010813600E+03,      /* J = 45 */
(PID.TID 0000.0001)                 3.385982638472738E+03,      /* J = 46 */
(PID.TID 0000.0001)                 3.388985891125713E+03,      /* J = 47 */
(PID.TID 0000.0001)                 3.391987763572061E+03,      /* J = 48 */
(PID.TID 0000.0001)                 3.394988251514671E+03,      /* J = 49 */
(PID.TID 0000.0001)                 3.397987349957863E+03,      /* J = 50 */
(PID.TID 0000.0001)                 3.400985055306886E+03,      /* J = 51 */
(PID.TID 0000.0001)                 3.403981361617467E+03,      /* J = 52 */
(PID.TID 0000.0001)                 3.406976265249919E+03,      /* J = 53 */
(PID.TID 0000.0001)                 3.409969761236176E+03,      /* J = 54 */
(PID.TID 0000.0001)                 3.412961844930389E+03,      /* J = 55 */
(PID.TID 0000.0001)                 3.415952512831510E+03,      /* J = 56 */
(PID.TID 0000.0001)                 3.418941758240230E+03,      /* J = 57 */
(PID.TID 0000.0001)                 3.421929578544879E+03,      /* J = 58 */
(PID.TID 0000.0001)                 3.424915969227433E+03,      /* J = 59 */
(PID.TID 0000.0001)                 3.427900923580070E+03       /* J = 60 */
(PID.TID 0000.0001)     ;
(PID.TID 0000.0001) dxG =  /* dxG(:,1,:,1) ( units: m ) */
(PID.TID 0000.0001)                 1.878215106717808E+03,      /* I =  1 */
(PID.TID 0000.0001)                 1.878138313901656E+03,      /* I =  2 */
(PID.TID 0000.0001)                 1.878061968498899E+03,      /* I =  3 */
(PID.TID 0000.0001)                 1.877986071015541E+03,      /* I =  4 */
(PID.TID 0000.0001)                 1.877910624103541E+03,      /* I =  5 */
(PID.TID 0000.0001)                 1.877835626204573E+03,      /* I =  6 */
(PID.TID 0000.0001)                 1.877761080733274E+03,      /* I =  7 */
(PID.TID 0000.0001)                 1.877686986593173E+03,      /* I =  8 */
(PID.TID 0000.0001)                 1.877613345458875E+03,      /* I =  9 */
(PID.TID 0000.0001)                 1.877540158576523E+03,      /* I = 10 */
(PID.TID 0000.0001)                 1.877467427032945E+03,      /* I = 11 */
(PID.TID 0000.0001)                 1.877395150892042E+03,      /* I = 12 */
(PID.TID 0000.0001)                 1.877323331523446E+03,      /* I = 13 */
(PID.TID 0000.0001)                 1.877251969548194E+03,      /* I = 14 */
(PID.TID 0000.0001)                 1.877181066304870E+03,      /* I = 15 */
(PID.TID 0000.0001)                 1.877110622098497E+03,      /* I = 16 */
(PID.TID 0000.0001)                 1.877040638548720E+03,      /* I = 17 */
(PID.TID 0000.0001)                 1.876971115706220E+03,      /* I = 18 */
(PID.TID 0000.0001)                 1.876902054983862E+03,      /* I = 19 */
(PID.TID 0000.0001)                 1.876833456565971E+03,      /* I = 20 */
(PID.TID 0000.0001)                 1.876765322998459E+03,      /* I = 21 */
(PID.TID 0000.0001)                 1.876697652203198E+03,      /* I = 22 */
(PID.TID 0000.0001)                 1.876630447871196E+03,      /* I = 23 */
(PID.TID 0000.0001)                 1.876563709210516E+03,      /* I = 24 */
(PID.TID 0000.0001)                 1.876497437683709E+03,      /* I = 25 */
(PID.TID 0000.0001)                 1.876431633173223E+03,      /* I = 26 */
(PID.TID 0000.0001)                 1.876366298117697E+03,      /* I = 27 */
(PID.TID 0000.0001)                 1.876301431681466E+03,      /* I = 28 */
(PID.TID 0000.0001)                 1.876237035576197E+03,      /* I = 29 */
(PID.TID 0000.0001)                 1.876173110335221E+03,      /* I = 30 */
(PID.TID 0000.0001)                 1.876109656390812E+03,      /* I = 31 */
(PID.TID 0000.0001)                 1.876046675669605E+03,      /* I = 32 */
(PID.TID 0000.0001)                 1.875984166531195E+03,      /* I = 33 */
(PID.TID 0000.0001)                 1.875922133286719E+03,      /* I = 34 */
(PID.TID 0000.0001)                 1.875860573599496E+03,      /* I = 35 */
(PID.TID 0000.0001)                 1.875799489404328E+03,      /* I = 36 */
(PID.TID 0000.0001)                 1.875738881233377E+03,      /* I = 37 */
(PID.TID 0000.0001)                 1.875678750446835E+03,      /* I = 38 */
(PID.TID 0000.0001)                 1.875619096383828E+03,      /* I = 39 */
(PID.TID 0000.0001)                 1.875559921283820E+03,      /* I = 40 */
(PID.TID 0000.0001)                 1.875501224561410E+03,      /* I = 41 */
(PID.TID 0000.0001)                 1.875443008847046E+03,      /* I = 42 */
(PID.TID 0000.0001)                 1.875385271837607E+03,      /* I = 43 */
(PID.TID 0000.0001)                 1.875328016975934E+03,      /* I = 44 */
(PID.TID 0000.0001)                 1.875271243803434E+03,      /* I = 45 */
(PID.TID 0000.0001)                 1.875214952632691E+03,      /* I = 46 */
(PID.TID 0000.0001)                 1.875159144624741E+03,      /* I = 47 */
(PID.TID 0000.0001)                 1.875103820325496E+03,      /* I = 48 */
(PID.TID 0000.0001)                 1.875048981057904E+03,      /* I = 49 */
(PID.TID 0000.0001)                 1.874994626067747E+03,      /* I = 50 */
(PID.TID 0000.0001)                 1.874940757599605E+03,      /* I = 51 */
(PID.TID 0000.0001)                 1.874887375062393E+03,      /* I = 52 */
(PID.TID 0000.0001)                 1.874834479216865E+03,      /* I = 53 */
(PID.TID 0000.0001)                 1.874782071264769E+03,      /* I = 54 */
(PID.TID 0000.0001)                 1.874730151473446E+03,      /* I = 55 */
(PID.TID 0000.0001)                 1.874678720485654E+03,      /* I = 56 */
(PID.TID 0000.0001)                 1.874627778935846E+03,      /* I = 57 */
(PID.TID 0000.0001)                 1.874577327594075E+03,      /* I = 58 */
(PID.TID 0000.0001)                 1.874527366321359E+03,      /* I = 59 */
(PID.TID 0000.0001)                 1.874477897012945E+03       /* I = 60 */
(PID.TID 0000.0001)     ;
(PID.TID 0000.0001) dxG =  /* dxG(1,:,1,:) ( units: m ) */
(PID.TID 0000.0001)                 1.878215106717808E+03,      /* J =  1 */
(PID.TID 0000.0001)                 1.881258293792173E+03,      /* J =  2 */
(PID.TID 0000.0001)                 1.884309822219478E+03,      /* J =  3 */
(PID.TID 0000.0001)                 1.887369691797966E+03,      /* J =  4 */
(PID.TID 0000.0001)                 1.890437902326584E+03,      /* J =  5 */
(PID.TID 0000.0001)                 1.893514453607954E+03,      /* J =  6 */
(PID.TID 0000.0001)                 1.896599345450182E+03,      /* J =  7 */
(PID.TID 0000.0001)                 1.899692577663115E+03,      /* J =  8 */
(PID.TID 0000.0001)                 1.902794150060897E+03,      /* J =  9 */
(PID.TID 0000.0001)                 1.905904062464695E+03,      /* J = 10 */
(PID.TID 0000.0001)                 1.909022314697921E+03,      /* J = 11 */
(PID.TID 0000.0001)                 1.912148906590208E+03,      /* J = 12 */
(PID.TID 0000.0001)                 1.915283837975877E+03,      /* J = 13 */
(PID.TID 0000.0001)                 1.918427108697489E+03,      /* J = 14 */
(PID.TID 0000.0001)                 1.921578718598856E+03,      /* J = 15 */
(PID.TID 0000.0001)                 1.924738667535183E+03,      /* J = 16 */
(PID.TID 0000.0001)                 1.927906955363628E+03,      /* J = 17 */
(PID.TID 0000.0001)                 1.931083581950953E+03,      /* J = 18 */
(PID.TID 0000.0001)                 1.934268547170820E+03,      /* J = 19 */
(PID.TID 0000.0001)                 1.937461850902584E+03,      /* J = 20 */
(PID.TID 0000.0001)                 1.940663493033772E+03,      /* J = 21 */
(PID.TID 0000.0001)                 1.943873473461120E+03,      /* J = 22 */
(PID.TID 0000.0001)                 1.947091792087057E+03,      /* J = 23 */
(PID.TID 0000.0001)                 1.950318448824655E+03,      /* J = 24 */
(PID.TID 0000.0001)                 1.953553443593888E+03,      /* J = 25 */
(PID.TID 0000.0001)                 1.956796776323161E+03,      /* J = 26 */
(PID.TID 0000.0001)                 1.960048446951430E+03,      /* J = 27 */
(PID.TID 0000.0001)                 1.963308455426517E+03,      /* J = 28 */
(PID.TID 0000.0001)                 1.966576801705022E+03,      /* J = 29 */
(PID.TID 0000.0001)                 1.969853485753170E+03,      /* J = 30 */
(PID.TID 0000.0001)                 1.973138507547749E+03,      /* J = 31 */
(PID.TID 0000.0001)                 1.976431867075891E+03,      /* J = 32 */
(PID.TID 0000.0001)                 1.979733564335209E+03,      /* J = 33 */
(PID.TID 0000.0001)                 1.983043599332753E+03,      /* J = 34 */
(PID.TID 0000.0001)                 1.986361972086901E+03,      /* J = 35 */
(PID.TID 0000.0001)                 1.989688682627721E+03,      /* J = 36 */
(PID.TID 0000.0001)                 1.993023730995595E+03,      /* J = 37 */
(PID.TID 0000.0001)                 1.996367117243835E+03,      /* J = 38 */
(PID.TID 0000.0001)                 1.999718841436749E+03,      /* J = 39 */
(PID.TID 0000.0001)                 2.003078903647734E+03,      /* J = 40 */
(PID.TID 0000.0001)                 2.006447303966943E+03,      /* J = 41 */
(PID.TID 0000.0001)                 2.009824042493377E+03,      /* J = 42 */
(PID.TID 0000.0001)                 2.013209119341718E+03,      /* J = 43 */
(PID.TID 0000.0001)                 2.016602534635163E+03,      /* J = 44 */
(PID.TID 0000.0001)                 2.020004288513029E+03,      /* J = 45 */
(PID.TID 0000.0001)                 2.023414381125757E+03,      /* J = 46 */
(PID.TID 0000.0001)                 2.026832812637802E+03,      /* J = 47 */
(PID.TID 0000.0001)                 2.030259583227253E+03,      /* J = 48 */
(PID.TID 0000.0001)                 2.033694693085606E+03,      /* J = 49 */
(PID.TID 0000.0001)                 2.037138142417036E+03,      /* J = 50 */
(PID.TID 0000.0001)                 2.040589931441804E+03,      /* J = 51 */
(PID.TID 0000.0001)                 2.044050060392399E+03,      /* J = 52 */
(PID.TID 0000.0001)                 2.047518529515863E+03,      /* J = 53 */
(PID.TID 0000.0001)                 2.050995339075040E+03,      /* J = 54 */
(PID.TID 0000.0001)                 2.054480489344589E+03,      /* J = 55 */
(PID.TID 0000.0001)                 2.057973980616082E+03,      /* J = 56 */
(PID.TID 0000.0001)                 2.061475813197190E+03,      /* J = 57 */
(PID.TID 0000.0001)                 2.064985987405219E+03,      /* J = 58 */
(PID.TID 0000.0001)                 2.068504503579494E+03,      /* J = 59 */
(PID.TID 0000.0001)                 2.072031362071905E+03       /* J = 60 */
(PID.TID 0000.0001)     ;
(PID.TID 0000.0001) dyG =  /* dyG(:,1,:,1) ( units: m ) */
(PID.TID 0000.0001)                 3.249211336535929E+03,      /* I =  1 */
(PID.TID 0000.0001)                 3.249754418605095E+03,      /* I =  2 */
(PID.TID 0000.0001)                 3.250294028238201E+03,      /* I =  3 */
(PID.TID 0000.0001)                 3.250830165008401E+03,      /* I =  4 */
(PID.TID 0000.0001)                 3.251362828472642E+03,      /* I =  5 */
(PID.TID 0000.0001)                 3.251892018208287E+03,      /* I =  6 */
(PID.TID 0000.0001)                 3.252417733794821E+03,      /* I =  7 */
(PID.TID 0000.0001)                 3.252939974809082E+03,      /* I =  8 */
(PID.TID 0000.0001)                 3.253458740842211E+03,      /* I =  9 */
(PID.TID 0000.0001)                 3.253974031476707E+03,      /* I = 10 */
(PID.TID 0000.0001)                 3.254485846309847E+03,      /* I = 11 */
(PID.TID 0000.0001)                 3.254994184944327E+03,      /* I = 12 */
(PID.TID 0000.0001)                 3.255499046976167E+03,      /* I = 13 */
(PID.TID 0000.0001)                 3.256000432012949E+03,      /* I = 14 */
(PID.TID 0000.0001)                 3.256498339669651E+03,      /* I = 15 */
(PID.TID 0000.0001)                 3.256992769553798E+03,      /* I = 16 */
(PID.TID 0000.0001)                 3.257483721291057E+03,      /* I = 17 */
(PID.TID 0000.0001)                 3.257971194500936E+03,      /* I = 18 */
(PID.TID 0000.0001)                 3.258455188807694E+03,      /* I = 19 */
(PID.TID 0000.0001)                 3.258935703844449E+03,      /* I = 20 */
(PID.TID 0000.0001)                 3.259412739243220E+03,      /* I = 21 */
(PID.TID 0000.0001)                 3.259886294649995E+03,      /* I = 22 */
(PID.TID 0000.0001)                 3.260356369702220E+03,      /* I = 23 */
(PID.TID 0000.0001)                 3.260822964042221E+03,      /* I = 24 */
(PID.TID 0000.0001)                 3.261286077326004E+03,      /* I = 25 */
(PID.TID 0000.0001)                 3.261745709201578E+03,      /* I = 26 */
(PID.TID 0000.0001)                 3.262201859328607E+03,      /* I = 27 */
(PID.TID 0000.0001)                 3.262654527372274E+03,      /* I = 28 */
(PID.TID 0000.0001)                 3.263103712992192E+03,      /* I = 29 */
(PID.TID 0000.0001)                 3.263549415858880E+03,      /* I = 30 */
(PID.TID 0000.0001)                 3.263991635642228E+03,      /* I = 31 */
(PID.TID 0000.0001)                 3.264430372020108E+03,      /* I = 32 */
(PID.TID 0000.0001)                 3.264865624676137E+03,      /* I = 33 */
(PID.TID 0000.0001)                 3.265297393284662E+03,      /* I = 34 */
(PID.TID 0000.0001)                 3.265725677535313E+03,      /* I = 35 */
(PID.TID 0000.0001)                 3.266150477120623E+03,      /* I = 36 */
(PID.TID 0000.0001)                 3.266571791735451E+03,      /* I = 37 */
(PID.TID 0000.0001)                 3.266989621068450E+03,      /* I = 38 */
(PID.TID 0000.0001)                 3.267403964828771E+03,      /* I = 39 */
(PID.TID 0000.0001)                 3.267814822716157E+03,      /* I = 40 */
(PID.TID 0000.0001)                 3.268222194438950E+03,      /* I = 41 */
(PID.TID 0000.0001)                 3.268626079709930E+03,      /* I = 42 */
(PID.TID 0000.0001)                 3.269026478240187E+03,      /* I = 43 */
(PID.TID 0000.0001)                 3.269423389740684E+03,      /* I = 44 */
(PID.TID 0000.0001)                 3.269816813942820E+03,      /* I = 45 */
(PID.TID 0000.0001)                 3.270206750567545E+03,      /* I = 46 */
(PID.TID 0000.0001)                 3.270593199340607E+03,      /* I = 47 */
(PID.TID 0000.0001)                 3.270976159993584E+03,      /* I = 48 */
(PID.TID 0000.0001)                 3.271355632258247E+03,      /* I = 49 */
(PID.TID 0000.0001)                 3.271731615869081E+03,      /* I = 50 */
(PID.TID 0000.0001)                 3.272104110573168E+03,      /* I = 51 */
(PID.TID 0000.0001)                 3.272473116107170E+03,      /* I = 52 */
(PID.TID 0000.0001)                 3.272838632224212E+03,      /* I = 53 */
(PID.TID 0000.0001)                 3.273200658665263E+03,      /* I = 54 */
(PID.TID 0000.0001)                 3.273559195183036E+03,      /* I = 55 */
(PID.TID 0000.0001)                 3.273914241543259E+03,      /* I = 56 */
(PID.TID 0000.0001)                 3.274265797496194E+03,      /* I = 57 */
(PID.TID 0000.0001)                 3.274613862807556E+03,      /* I = 58 */
(PID.TID 0000.0001)                 3.274958437239986E+03,      /* I = 59 */
(PID.TID 0000.0001)                 3.275299520557117E+03       /* I = 60 */
(PID.TID 0000.0001)     ;
(PID.TID 0000.0001) dyG =  /* dyG(1,:,1,:) ( units: m ) */
(PID.TID 0000.0001)                 3.249211336535929E+03,      /* J =  1 */
(PID.TID 0000.0001)                 3.252271762865595E+03,      /* J =  2 */
(PID.TID 0000.0001)                 3.255331018722788E+03,      /* J =  3 */
(PID.TID 0000.0001)                 3.258389098833376E+03,      /* J =  4 */
(PID.TID 0000.0001)                 3.261445998759285E+03,      /* J =  5 */
(PID.TID 0000.0001)                 3.264501713424312E+03,      /* J =  6 */
(PID.TID 0000.0001)                 3.267556238444740E+03,      /* J =  7 */
(PID.TID 0000.0001)                 3.270609568357464E+03,      /* J =  8 */
(PID.TID 0000.0001)                 3.273661699053161E+03,      /* J =  9 */
(PID.TID 0000.0001)                 3.276712625273218E+03,      /* J = 10 */
(PID.TID 0000.0001)                 3.279762342892105E+03,      /* J = 11 */
(PID.TID 0000.0001)                 3.282810846323732E+03,      /* J = 12 */
(PID.TID 0000.0001)                 3.285858131309782E+03,      /* J = 13 */
(PID.TID 0000.0001)                 3.288904192890684E+03,      /* J = 14 */
(PID.TID 0000.0001)                 3.291949026678611E+03,      /* J = 15 */
(PID.TID 0000.0001)                 3.294992627585894E+03,      /* J = 16 */
(PID.TID 0000.0001)                 3.298034990431118E+03,      /* J = 17 */
(PID.TID 0000.0001)                 3.301076111879948E+03,      /* J = 18 */
(PID.TID 0000.0001)                 3.304115985663095E+03,      /* J = 19 */
(PID.TID 0000.0001)                 3.307154607870275E+03,      /* J = 20 */
(PID.TID 0000.0001)                 3.310191973482305E+03,      /* J = 21 */
(PID.TID 0000.0001)                 3.313228078241465E+03,      /* J = 22 */
(PID.TID 0000.0001)                 3.316262916513434E+03,      /* J = 23 */
(PID.TID 0000.0001)                 3.319296484611313E+03,      /* J = 24 */
(PID.TID 0000.0001)                 3.322328777198488E+03,      /* J = 25 */
(PID.TID 0000.0001)                 3.325359789615705E+03,      /* J = 26 */
(PID.TID 0000.0001)                 3.328389517715264E+03,      /* J = 27 */
(PID.TID 0000.0001)                 3.331417955709022E+03,      /* J = 28 */
(PID.TID 0000.0001)                 3.334445100449332E+03,      /* J = 29 */
(PID.TID 0000.0001)                 3.337470945565167E+03,      /* J = 30 */
(PID.TID 0000.0001)                 3.340495487535686E+03,      /* J = 31 */
(PID.TID 0000.0001)                 3.343518721339035E+03,      /* J = 32 */
(PID.TID 0000.0001)                 3.346540642309634E+03,      /* J = 33 */
(PID.TID 0000.0001)                 3.349561245543825E+03,      /* J = 34 */
(PID.TID 0000.0001)                 3.352580526778612E+03,      /* J = 35 */
(PID.TID 0000.0001)                 3.355598481264028E+03,      /* J = 36 */
(PID.TID 0000.0001)                 3.358615103967436E+03,      /* J = 37 */
(PID.TID 0000.0001)                 3.361630390966407E+03,      /* J = 38 */
(PID.TID 0000.0001)                 3.364644336635248E+03,      /* J = 39 */
(PID.TID 0000.0001)                 3.367656937066400E+03,      /* J = 40 */
(PID.TID 0000.0001)                 3.370668187405799E+03,      /* J = 41 */
(PID.TID 0000.0001)                 3.373678083382306E+03,      /* J = 42 */
(PID.TID 0000.0001)                 3.376686619448420E+03,      /* J = 43 */
(PID.TID 0000.0001)                 3.379693791964189E+03,      /* J = 44 */
(PID.TID 0000.0001)                 3.382699595693322E+03,      /* J = 45 */
(PID.TID 0000.0001)                 3.385704025991796E+03,      /* J = 46 */
(PID.TID 0000.0001)                 3.388707078862275E+03,      /* J = 47 */
(PID.TID 0000.0001)                 3.391708749091026E+03,      /* J = 48 */
(PID.TID 0000.0001)                 3.394709032359549E+03,      /* J = 49 */
(PID.TID 0000.0001)                 3.397707923683870E+03,      /* J = 50 */
(PID.TID 0000.0001)                 3.400705419437991E+03,      /* J = 51 */
(PID.TID 0000.0001)                 3.403701513683348E+03,      /* J = 52 */
(PID.TID 0000.0001)                 3.406696202761350E+03,      /* J = 53 */
(PID.TID 0000.0001)                 3.409689481703934E+03,      /* J = 54 */
(PID.TID 0000.0001)                 3.412681345842995E+03,      /* J = 55 */
(PID.TID 0000.0001)                 3.415671791674386E+03,      /* J = 56 */
(PID.TID 0000.0001)                 3.418660812493308E+03,      /* J = 57 */
(PID.TID 0000.0001)                 3.421648405676061E+03,      /* J = 58 */
(PID.TID 0000.0001)                 3.424634566693228E+03,      /* J = 59 */
(PID.TID 0000.0001)                 3.427619288830248E+03       /* J = 60 */
(PID.TID 0000.0001)     ;
(PID.TID 0000.0001) dxC =  /* dxC(:,1,:,1) ( units: m ) */
(PID.TID 0000.0001)                 1.879774297891952E+03,      /* I =  1 */
(PID.TID 0000.0001)                 1.879697129217655E+03,      /* I =  2 */
(PID.TID 0000.0001)                 1.879620408172088E+03,      /* I =  3 */
(PID.TID 0000.0001)                 1.879544136154498E+03,      /* I =  4 */
(PID.TID 0000.0001)                 1.879468314153447E+03,      /* I =  5 */
(PID.TID 0000.0001)                 1.879392943217494E+03,      /* I =  6 */
(PID.TID 0000.0001)                 1.879318023856758E+03,      /* I =  7 */
(PID.TID 0000.0001)                 1.879243557549495E+03,      /* I =  8 */
(PID.TID 0000.0001)                 1.879169545129738E+03,      /* I =  9 */
(PID.TID 0000.0001)                 1.879095986440286E+03,      /* I = 10 */
(PID.TID 0000.0001)                 1.879022884289957E+03,      /* I = 11 */
(PID.TID 0000.0001)                 1.878950237850594E+03,      /* I = 12 */
(PID.TID 0000.0001)                 1.878878049148351E+03,      /* I = 13 */
(PID.TID 0000.0001)                 1.878806318612764E+03,      /* I = 14 */
(PID.TID 0000.0001)                 1.878735046842130E+03,      /* I = 15 */
(PID.TID 0000.0001)                 1.878664235618758E+03,      /* I = 16 */
(PID.TID 0000.0001)                 1.878593884689290E+03,      /* I = 17 */
(PID.TID 0000.0001)                 1.878523995749182E+03,      /* I = 18 */
(PID.TID 0000.0001)                 1.878454569390396E+03,      /* I = 19 */
(PID.TID 0000.0001)                 1.878385605914043E+03,      /* I = 20 */
(PID.TID 0000.0001)                 1.878317107054957E+03,      /* I = 21 */
(PID.TID 0000.0001)                 1.878249073493217E+03,      /* I = 22 */
(PID.TID 0000.0001)                 1.878181505779688E+03,      /* I = 23 */
(PID.TID 0000.0001)                 1.878114404070986E+03,      /* I = 24 */
(PID.TID 0000.0001)                 1.878047771089729E+03,      /* I = 25 */
(PID.TID 0000.0001)                 1.877981605164937E+03,      /* I = 26 */
(PID.TID 0000.0001)                 1.877915909216623E+03,      /* I = 27 */
(PID.TID 0000.0001)                 1.877850683157569E+03,      /* I = 28 */
(PID.TID 0000.0001)                 1.877785927571796E+03,      /* I = 29 */
(PID.TID 0000.0001)                 1.877721643508070E+03,      /* I = 30 */
(PID.TID 0000.0001)                 1.877657832077082E+03,      /* I = 31 */
(PID.TID 0000.0001)                 1.877594493300009E+03,      /* I = 32 */
(PID.TID 0000.0001)                 1.877531628309660E+03,      /* I = 33 */
(PID.TID 0000.0001)                 1.877469237738250E+03,      /* I = 34 */
(PID.TID 0000.0001)                 1.877407323456418E+03,      /* I = 35 */
(PID.TID 0000.0001)                 1.877345883755417E+03,      /* I = 36 */
(PID.TID 0000.0001)                 1.877284922248416E+03,      /* I = 37 */
(PID.TID 0000.0001)                 1.877224437474444E+03,      /* I = 38 */
(PID.TID 0000.0001)                 1.877164430872363E+03,      /* I = 39 */
(PID.TID 0000.0001)                 1.877104903436180E+03,      /* I = 40 */
(PID.TID 0000.0001)                 1.877045855674395E+03,      /* I = 41 */
(PID.TID 0000.0001)                 1.876987287967354E+03,      /* I = 42 */
(PID.TID 0000.0001)                 1.876929202006945E+03,      /* I = 43 */
(PID.TID 0000.0001)                 1.876871597201438E+03,      /* I = 44 */
(PID.TID 0000.0001)                 1.876814475001733E+03,      /* I = 45 */
(PID.TID 0000.0001)                 1.876757835772126E+03,      /* I = 46 */
(PID.TID 0000.0001)                 1.876701680849923E+03,      /* I = 47 */
(PID.TID 0000.0001)                 1.876646009252067E+03,      /* I = 48 */
(PID.TID 0000.0001)                 1.876590824314733E+03,      /* I = 49 */
(PID.TID 0000.0001)                 1.876536123367899E+03,      /* I = 50 */
(PID.TID 0000.0001)                 1.876481910416940E+03,      /* I = 51 */
(PID.TID 0000.0001)                 1.876428183308831E+03,      /* I = 52 */
(PID.TID 0000.0001)                 1.876374944314999E+03,      /* I = 53 */
(PID.TID 0000.0001)                 1.876322194098678E+03,      /* I = 54 */
(PID.TID 0000.0001)                 1.876269931730040E+03,      /* I = 55 */
(PID.TID 0000.0001)                 1.876218160240783E+03,      /* I = 56 */
(PID.TID 0000.0001)                 1.876166877293212E+03,      /* I = 57 */
(PID.TID 0000.0001)                 1.876116086053914E+03,      /* I = 58 */
(PID.TID 0000.0001)                 1.876065786058037E+03,      /* I = 59 */
(PID.TID 0000.0001)                 1.876015977672961E+03       /* I = 60 */
(PID.TID 0000.0001)     ;
(PID.TID 0000.0001) dxC =  /* dxC(1,:,1,:) ( units: m ) */
(PID.TID 0000.0001)                 1.879774297891952E+03,      /* J =  1 */
(PID.TID 0000.0001)                 1.882821808042013E+03,      /* J =  2 */
(PID.TID 0000.0001)                 1.885877658558307E+03,      /* J =  3 */
(PID.TID 0000.0001)                 1.888941849231268E+03,      /* J =  4 */
(PID.TID 0000.0001)                 1.892014379852808E+03,      /* J =  5 */
(PID.TID 0000.0001)                 1.895095250219464E+03,      /* J =  6 */
(PID.TID 0000.0001)                 1.898184460129212E+03,      /* J =  7 */
(PID.TID 0000.0001)                 1.901282009388176E+03,      /* J =  8 */
(PID.TID 0000.0001)                 1.904387897803330E+03,      /* J =  9 */
(PID.TID 0000.0001)                 1.907502125187005E+03,      /* J = 10 */
(PID.TID 0000.0001)                 1.910624691357720E+03,      /* J = 11 */
(PID.TID 0000.0001)                 1.913755596138350E+03,      /* J = 12 */
(PID.TID 0000.0001)                 1.916894839358346E+03,      /* J = 13 */
(PID.TID 0000.0001)                 1.920042420850641E+03,      /* J = 14 */
(PID.TID 0000.0001)                 1.923198340458188E+03,      /* J = 15 */
(PID.TID 0000.0001)                 1.926362598025370E+03,      /* J = 16 */
(PID.TID 0000.0001)                 1.929535193407584E+03,      /* J = 17 */
(PID.TID 0000.0001)                 1.932716126463800E+03,      /* J = 18 */
(PID.TID 0000.0001)                 1.935905397062036E+03,      /* J = 19 */
(PID.TID 0000.0001)                 1.939103005075912E+03,      /* J = 20 */
(PID.TID 0000.0001)                 1.942308950390279E+03,      /* J = 21 */
(PID.TID 0000.0001)                 1.945523232894077E+03,      /* J = 22 */
(PID.TID 0000.0001)                 1.948745852486127E+03,      /* J = 23 */
(PID.TID 0000.0001)                 1.951976809072901E+03,      /* J = 24 */
(PID.TID 0000.0001)                 1.955216102571169E+03,      /* J = 25 */
(PID.TID 0000.0001)                 1.958463732903922E+03,      /* J = 26 */
(PID.TID 0000.0001)                 1.961719700006382E+03,      /* J = 27 */
(PID.TID 0000.0001)                 1.964984003819502E+03,      /* J = 28 */
(PID.TID 0000.0001)                 1.968256644298353E+03,      /* J = 29 */
(PID.TID 0000.0001)                 1.971537621401915E+03,      /* J = 30 */
(PID.TID 0000.0001)                 1.974826935106955E+03,      /* J = 31 */
(PID.TID 0000.0001)                 1.978124585391748E+03,      /* J = 32 */
(PID.TID 0000.0001)                 1.981430572253773E+03,      /* J = 33 */
(PID.TID 0000.0001)                 1.984744895692873E+03,      /* J = 34 */
(PID.TID 0000.0001)                 1.988067555725521E+03,      /* J = 35 */
(PID.TID 0000.0001)                 1.991398552377194E+03,      /* J = 36 */
(PID.TID 0000.0001)                 1.994737885686014E+03,      /* J = 37 */
(PID.TID 0000.0001)                 1.998085555700184E+03,      /* J = 38 */
(PID.TID 0000.0001)                 2.001441562480706E+03,      /* J = 39 */
(PID.TID 0000.0001)                 2.004805906098720E+03,      /* J = 40 */
(PID.TID 0000.0001)                 2.008178586640463E+03,      /* J = 41 */
(PID.TID 0000.0001)                 2.011559604201851E+03,      /* J = 42 */
(PID.TID 0000.0001)                 2.014948958893320E+03,      /* J = 43 */
(PID.TID 0000.0001)                 2.018346650835870E+03,      /* J = 44 */
(PID.TID 0000.0001)                 2.021752680166345E+03,      /* J = 45 */
(PID.TID 0000.0001)                 2.025167047031463E+03,      /* J = 46 */
(PID.TID 0000.0001)                 2.028589751593916E+03,      /* J = 47 */
(PID.TID 0000.0001)                 2.032020794027491E+03,      /* J = 48 */
(PID.TID 0000.0001)                 2.035460174522625E+03,      /* J = 49 */
(PID.TID 0000.0001)                 2.038907893279732E+03,      /* J = 50 */
(PID.TID 0000.0001)                 2.042363950516079E+03,      /* J = 51 */
(PID.TID 0000.0001)                 2.045828346464005E+03,      /* J = 52 */
(PID.TID 0000.0001)                 2.049301081365094E+03,      /* J = 53 */
(PID.TID 0000.0001)                 2.052782155481871E+03,      /* J = 54 */
(PID.TID 0000.0001)                 2.056271569086765E+03,      /* J = 55 */
(PID.TID 0000.0001)                 2.059769322468665E+03,      /* J = 56 */
(PID.TID 0000.0001)                 2.063275415932807E+03,      /* J = 57 */
(PID.TID 0000.0001)                 2.066789849795097E+03,      /* J = 58 */
(PID.TID 0000.0001)                 2.070312624391946E+03,      /* J = 59 */
(PID.TID 0000.0001)                 2.073843740072747E+03       /* J = 60 */
(PID.TID 0000.0001)     ;
(PID.TID 0000.0001) dyC =  /* dyC(:,1,:,1) ( units: m ) */
(PID.TID 0000.0001)                 3.247952610971745E+03,      /* I =  1 */
(PID.TID 0000.0001)                 3.248493857499680E+03,      /* I =  2 */
(PID.TID 0000.0001)                 3.249031631836627E+03,      /* I =  3 */
(PID.TID 0000.0001)                 3.249565933546090E+03,      /* I =  4 */
(PID.TID 0000.0001)                 3.250096762204757E+03,      /* I =  5 */
(PID.TID 0000.0001)                 3.250624117390127E+03,      /* I =  6 */
(PID.TID 0000.0001)                 3.251147998688269E+03,      /* I =  7 */
(PID.TID 0000.0001)                 3.251668405688038E+03,      /* I =  8 */
(PID.TID 0000.0001)                 3.252185337971125E+03,      /* I =  9 */
(PID.TID 0000.0001)                 3.252698795141142E+03,      /* I = 10 */
(PID.TID 0000.0001)                 3.253208776794090E+03,      /* I = 11 */
(PID.TID 0000.0001)                 3.253715282533468E+03,      /* I = 12 */
(PID.TID 0000.0001)                 3.254218311967231E+03,      /* I = 13 */
(PID.TID 0000.0001)                 3.254717864713217E+03,      /* I = 14 */
(PID.TID 0000.0001)                 3.255213940373816E+03,      /* I = 15 */
(PID.TID 0000.0001)                 3.255706538583036E+03,      /* I = 16 */
(PID.TID 0000.0001)                 3.256195658960482E+03,      /* I = 17 */
(PID.TID 0000.0001)                 3.256681301131835E+03,      /* I = 18 */
(PID.TID 0000.0001)                 3.257163464723050E+03,      /* I = 19 */
(PID.TID 0000.0001)                 3.257642149381327E+03,      /* I = 20 */
(PID.TID 0000.0001)                 3.258117354741208E+03,      /* I = 21 */
(PID.TID 0000.0001)                 3.258589080448063E+03,      /* I = 22 */
(PID.TID 0000.0001)                 3.259057326145267E+03,      /* I = 23 */
(PID.TID 0000.0001)                 3.259522091484033E+03,      /* I = 24 */
(PID.TID 0000.0001)                 3.259983376124255E+03,      /* I = 25 */
(PID.TID 0000.0001)                 3.260441179724924E+03,      /* I = 26 */
(PID.TID 0000.0001)                 3.260895501940506E+03,      /* I = 27 */
(PID.TID 0000.0001)                 3.261346342442203E+03,      /* I = 28 */
(PID.TID 0000.0001)                 3.261793700899642E+03,      /* I = 29 */
(PID.TID 0000.0001)                 3.262237576989859E+03,      /* I = 30 */
(PID.TID 0000.0001)                 3.262677970379527E+03,      /* I = 31 */
(PID.TID 0000.0001)                 3.263114880756619E+03,      /* I = 32 */
(PID.TID 0000.0001)                 3.263548307802315E+03,      /* I = 33 */
(PID.TID 0000.0001)                 3.263978251204781E+03,      /* I = 34 */
(PID.TID 0000.0001)                 3.264404710655924E+03,      /* I = 35 */
(PID.TID 0000.0001)                 3.264827685853234E+03,      /* I = 36 */
(PID.TID 0000.0001)                 3.265247176487418E+03,      /* I = 37 */
(PID.TID 0000.0001)                 3.265663182264247E+03,      /* I = 38 */
(PID.TID 0000.0001)                 3.266075702896594E+03,      /* I = 39 */
(PID.TID 0000.0001)                 3.266484738077736E+03,      /* I = 40 */
(PID.TID 0000.0001)                 3.266890287526437E+03,      /* I = 41 */
(PID.TID 0000.0001)                 3.267292350958256E+03,      /* I = 42 */
(PID.TID 0000.0001)                 3.267690928089750E+03,      /* I = 43 */
(PID.TID 0000.0001)                 3.268086018645114E+03,      /* I = 44 */
(PID.TID 0000.0001)                 3.268477622345234E+03,      /* I = 45 */
(PID.TID 0000.0001)                 3.268865738923781E+03,      /* I = 46 */
(PID.TID 0000.0001)                 3.269250368104779E+03,      /* I = 47 */
(PID.TID 0000.0001)                 3.269631509632081E+03,      /* I = 48 */
(PID.TID 0000.0001)                 3.270009163233708E+03,      /* I = 49 */
(PID.TID 0000.0001)                 3.270383328655742E+03,      /* I = 50 */
(PID.TID 0000.0001)                 3.270754005640728E+03,      /* I = 51 */
(PID.TID 0000.0001)                 3.271121193934950E+03,      /* I = 52 */
(PID.TID 0000.0001)                 3.271484893296179E+03,      /* I = 53 */
(PID.TID 0000.0001)                 3.271845103462861E+03,      /* I = 54 */
(PID.TID 0000.0001)                 3.272201824206045E+03,      /* I = 55 */
(PID.TID 0000.0001)                 3.272555055276785E+03,      /* I = 56 */
(PID.TID 0000.0001)                 3.272904796443102E+03,      /* I = 57 */
(PID.TID 0000.0001)                 3.273251047462392E+03,      /* I = 58 */
(PID.TID 0000.0001)                 3.273593808112836E+03,      /* I = 59 */
(PID.TID 0000.0001)                 3.273933078157702E+03       /* I = 60 */
(PID.TID 0000.0001)     ;
(PID.TID 0000.0001) dyC =  /* dyC(1,:,1,:) ( units: m ) */
(PID.TID 0000.0001)                 3.247952610971745E+03,      /* J =  1 */
(PID.TID 0000.0001)                 3.251013721198133E+03,      /* J =  2 */
(PID.TID 0000.0001)                 3.254073664864449E+03,      /* J =  3 */
(PID.TID 0000.0001)                 3.257132437570604E+03,      /* J =  4 */
(PID.TID 0000.0001)                 3.260190034460557E+03,      /* J =  5 */
(PID.TID 0000.0001)                 3.263246450296770E+03,      /* J =  6 */
(PID.TID 0000.0001)                 3.266301680549800E+03,      /* J =  7 */
(PID.TID 0000.0001)                 3.269355720478200E+03,      /* J =  8 */
(PID.TID 0000.0001)                 3.272408565600405E+03,      /* J =  9 */
(PID.TID 0000.0001)                 3.275460210560634E+03,      /* J = 10 */
(PID.TID 0000.0001)                 3.278510651085956E+03,      /* J = 11 */
(PID.TID 0000.0001)                 3.281559882091400E+03,      /* J = 12 */
(PID.TID 0000.0001)                 3.284607899439997E+03,      /* J = 13 */
(PID.TID 0000.0001)                 3.287654696891048E+03,      /* J = 14 */
(PID.TID 0000.0001)                 3.290700272109952E+03,      /* J = 15 */
(PID.TID 0000.0001)                 3.293744617722206E+03,      /* J = 16 */
(PID.TID 0000.0001)                 3.296787731181249E+03,      /* J = 17 */
(PID.TID 0000.0001)                 3.299829606468771E+03,      /* J = 18 */
(PID.TID 0000.0001)                 3.302870238881852E+03,      /* J = 19 */
(PID.TID 0000.0001)                 3.305909624413111E+03,      /* J = 20 */
(PID.TID 0000.0001)                 3.308947758368660E+03,      /* J = 21 */
(PID.TID 0000.0001)                 3.311984634457199E+03,      /* J = 22 */
(PID.TID 0000.0001)                 3.315020250415874E+03,      /* J = 23 */
(PID.TID 0000.0001)                 3.318054599614460E+03,      /* J = 24 */
(PID.TID 0000.0001)                 3.321087678019116E+03,      /* J = 25 */
(PID.TID 0000.0001)                 3.324119481081756E+03,      /* J = 26 */
(PID.TID 0000.0001)                 3.327150004079931E+03,      /* J = 27 */
(PID.TID 0000.0001)                 3.330179241733814E+03,      /* J = 28 */
(PID.TID 0000.0001)                 3.333207190387564E+03,      /* J = 29 */
(PID.TID 0000.0001)                 3.336233844468294E+03,      /* J = 30 */
(PID.TID 0000.0001)                 3.339259200018872E+03,      /* J = 31 */
(PID.TID 0000.0001)                 3.342283251419080E+03,      /* J = 32 */
(PID.TID 0000.0001)                 3.345305995210399E+03,      /* J = 33 */
(PID.TID 0000.0001)                 3.348327425888035E+03,      /* J = 34 */
(PID.TID 0000.0001)                 3.351347538439181E+03,      /* J = 35 */
(PID.TID 0000.0001)                 3.354366329574496E+03,      /* J = 36 */
(PID.TID 0000.0001)                 3.357383793472782E+03,      /* J = 37 */
(PID.TID 0000.0001)                 3.360399926303556E+03,      /* J = 38 */
(PID.TID 0000.0001)                 3.363414722288217E+03,      /* J = 39 */
(PID.TID 0000.0001)                 3.366428177955338E+03,      /* J = 40 */
(PID.TID 0000.0001)                 3.369440288280537E+03,      /* J = 41 */
(PID.TID 0000.0001)                 3.372451048258115E+03,      /* J = 42 */
(PID.TID 0000.0001)                 3.375460453884138E+03,      /* J = 43 */
(PID.TID 0000.0001)                 3.378468500118529E+03,      /* J = 44 */
(PID.TID 0000.0001)                 3.381475182409303E+03,      /* J = 45 */
(PID.TID 0000.0001)                 3.384480496410843E+03,      /* J = 46 */
(PID.TID 0000.0001)                 3.387484436921298E+03,      /* J = 47 */
(PID.TID 0000.0001)                 3.390486999994908E+03,      /* J = 48 */
(PID.TID 0000.0001)                 3.393488181553671E+03,      /* J = 49 */
(PID.TID 0000.0001)                 3.396487974217861E+03,      /* J = 50 */
(PID.TID 0000.0001)                 3.399486377146286E+03,      /* J = 51 */
(PID.TID 0000.0001)                 3.402483383735915E+03,      /* J = 52 */
(PID.TID 0000.0001)                 3.405478988582415E+03,      /* J = 53 */
(PID.TID 0000.0001)                 3.408473189584681E+03,      /* J = 54 */
(PID.TID 0000.0001)                 3.411465980142380E+03,      /* J = 55 */
(PID.TID 0000.0001)                 3.414457356206269E+03,      /* J = 56 */
(PID.TID 0000.0001)                 3.417447313664536E+03,      /* J = 57 */
(PID.TID 0000.0001)                 3.420435846854103E+03,      /* J = 58 */
(PID.TID 0000.0001)                 3.423422952982663E+03,      /* J = 59 */
(PID.TID 0000.0001)                 3.426408625833234E+03       /* J = 60 */
(PID.TID 0000.0001)     ;
(PID.TID 0000.0001) dxV =  /* dxV(:,1,:,1) ( units: m ) */
(PID.TID 0000.0001)                 1.878253670521284E+03,      /* I =  1 */
(PID.TID 0000.0001)                 1.878176654608053E+03,      /* I =  2 */
(PID.TID 0000.0001)                 1.878100085242206E+03,      /* I =  3 */
(PID.TID 0000.0001)                 1.878023963823285E+03,      /* I =  4 */
(PID.TID 0000.0001)                 1.877948291345548E+03,      /* I =  5 */
(PID.TID 0000.0001)                 1.877873068854017E+03,      /* I =  6 */
(PID.TID 0000.0001)                 1.877798296866106E+03,      /* I =  7 */
(PID.TID 0000.0001)                 1.877723976858897E+03,      /* I =  8 */
(PID.TID 0000.0001)                 1.877650109667288E+03,      /* I =  9 */
(PID.TID 0000.0001)                 1.877576695140985E+03,      /* I = 10 */
(PID.TID 0000.0001)                 1.877503736084773E+03,      /* I = 11 */
(PID.TID 0000.0001)                 1.877431231676524E+03,      /* I = 12 */
(PID.TID 0000.0001)                 1.877359183941815E+03,      /* I = 13 */
(PID.TID 0000.0001)                 1.877287593313458E+03,      /* I = 14 */
(PID.TID 0000.0001)                 1.877216460390960E+03,      /* I = 15 */
(PID.TID 0000.0001)                 1.877145786958912E+03,      /* I = 16 */
(PID.TID 0000.0001)                 1.877075572764746E+03,      /* I = 17 */
(PID.TID 0000.0001)                 1.877005819506614E+03,      /* I = 18 */
(PID.TID 0000.0001)                 1.876936527777414E+03,      /* I = 19 */
(PID.TID 0000.0001)                 1.876867697882194E+03,      /* I = 20 */
(PID.TID 0000.0001)                 1.876799331554409E+03,      /* I = 21 */
(PID.TID 0000.0001)                 1.876731429477511E+03,      /* I = 22 */
(PID.TID 0000.0001)                 1.876663992204268E+03,      /* I = 23 */
(PID.TID 0000.0001)                 1.876597019892391E+03,      /* I = 24 */
(PID.TID 0000.0001)                 1.876530515265937E+03,      /* I = 25 */
(PID.TID 0000.0001)                 1.876464476657134E+03,      /* I = 26 */
(PID.TID 0000.0001)                 1.876398906984372E+03,      /* I = 27 */
(PID.TID 0000.0001)                 1.876333806167099E+03,      /* I = 28 */
(PID.TID 0000.0001)                 1.876269174786220E+03,      /* I = 29 */
(PID.TID 0000.0001)                 1.876205013895060E+03,      /* I = 30 */
(PID.TID 0000.0001)                 1.876141324603609E+03,      /* I = 31 */
(PID.TID 0000.0001)                 1.876078106937225E+03,      /* I = 32 */
(PID.TID 0000.0001)                 1.876015362028072E+03,      /* I = 33 */
(PID.TID 0000.0001)                 1.875953090511074E+03,      /* I = 34 */
(PID.TID 0000.0001)                 1.875891294257694E+03,      /* I = 35 */
(PID.TID 0000.0001)                 1.875829971562437E+03,      /* I = 36 */
(PID.TID 0000.0001)                 1.875769126037098E+03,      /* I = 37 */
(PID.TID 0000.0001)                 1.875708756223968E+03,      /* I = 38 */
(PID.TID 0000.0001)                 1.875648863564625E+03,      /* I = 39 */
(PID.TID 0000.0001)                 1.875589449051660E+03,      /* I = 40 */
(PID.TID 0000.0001)                 1.875530513197520E+03,      /* I = 41 */
(PID.TID 0000.0001)                 1.875472056382718E+03,      /* I = 42 */
(PID.TID 0000.0001)                 1.875414080300226E+03,      /* I = 43 */
(PID.TID 0000.0001)                 1.875356584361336E+03,      /* I = 44 */
(PID.TID 0000.0001)                 1.875299570016377E+03,      /* I = 45 */
(PID.TID 0000.0001)                 1.875243037633080E+03,      /* I = 46 */
(PID.TID 0000.0001)                 1.875186988547575E+03,      /* I = 47 */
(PID.TID 0000.0001)                 1.875131421781850E+03,      /* I = 48 */
(PID.TID 0000.0001)                 1.875076340668740E+03,      /* I = 49 */
(PID.TID 0000.0001)                 1.875021742544894E+03,      /* I = 50 */
(PID.TID 0000.0001)                 1.874967631412161E+03,      /* I = 51 */
(PID.TID 0000.0001)                 1.874914005121415E+03,      /* I = 52 */
(PID.TID 0000.0001)                 1.874860865944811E+03,      /* I = 53 */
(PID.TID 0000.0001)                 1.874808214546983E+03,      /* I = 54 */
(PID.TID 0000.0001)                 1.874756049999765E+03,      /* I = 55 */
(PID.TID 0000.0001)                 1.874704375334109E+03,      /* I = 56 */
(PID.TID 0000.0001)                 1.874653188217384E+03,      /* I = 57 */
(PID.TID 0000.0001)                 1.874602491813498E+03,      /* I = 58 */
(PID.TID 0000.0001)                 1.874552285661478E+03,      /* I = 59 */
(PID.TID 0000.0001)                 1.874502570128189E+03       /* I = 60 */
(PID.TID 0000.0001)     ;
(PID.TID 0000.0001) dxV =  /* dxV(1,:,1,:) ( units: m ) */
(PID.TID 0000.0001)                 1.878253670521284E+03,      /* J =  1 */
(PID.TID 0000.0001)                 1.881297010407927E+03,      /* J =  2 */
(PID.TID 0000.0001)                 1.884348690767297E+03,      /* J =  3 */
(PID.TID 0000.0001)                 1.887408711388597E+03,      /* J =  4 */
(PID.TID 0000.0001)                 1.890477072061482E+03,      /* J =  5 */
(PID.TID 0000.0001)                 1.893553772580759E+03,      /* J =  6 */
(PID.TID 0000.0001)                 1.896638812743679E+03,      /* J =  7 */
(PID.TID 0000.0001)                 1.899732192352850E+03,      /* J =  8 */
(PID.TID 0000.0001)                 1.902833911212997E+03,      /* J =  9 */
(PID.TID 0000.0001)                 1.905943969135579E+03,      /* J = 10 */
(PID.TID 0000.0001)                 1.909062365934916E+03,      /* J = 11 */
(PID.TID 0000.0001)                 1.912189101432236E+03,      /* J = 12 */
(PID.TID 0000.0001)                 1.915324175454502E+03,      /* J = 13 */
(PID.TID 0000.0001)                 1.918467587831007E+03,      /* J = 14 */
(PID.TID 0000.0001)                 1.921619338400366E+03,      /* J = 15 */
(PID.TID 0000.0001)                 1.924779427006607E+03,      /* J = 16 */
(PID.TID 0000.0001)                 1.927947853499398E+03,      /* J = 17 */
(PID.TID 0000.0001)                 1.931124617735117E+03,      /* J = 18 */
(PID.TID 0000.0001)                 1.934309719578650E+03,      /* J = 19 */
(PID.TID 0000.0001)                 1.937503158899976E+03,      /* J = 20 */
(PID.TID 0000.0001)                 1.940704935577821E+03,      /* J = 21 */
(PID.TID 0000.0001)                 1.943915049500647E+03,      /* J = 22 */
(PID.TID 0000.0001)                 1.947133500559605E+03,      /* J = 23 */
(PID.TID 0000.0001)                 1.950360288660579E+03,      /* J = 24 */
(PID.TID 0000.0001)                 1.953595413712707E+03,      /* J = 25 */
(PID.TID 0000.0001)                 1.956838875637400E+03,      /* J = 26 */
(PID.TID 0000.0001)                 1.960090674362820E+03,      /* J = 27 */
(PID.TID 0000.0001)                 1.963350809827215E+03,      /* J = 28 */
(PID.TID 0000.0001)                 1.966619281978523E+03,      /* J = 29 */
(PID.TID 0000.0001)                 1.969896090773987E+03,      /* J = 30 */
(PID.TID 0000.0001)                 1.973181236180977E+03,      /* J = 31 */
(PID.TID 0000.0001)                 1.976474718177432E+03,      /* J = 32 */
(PID.TID 0000.0001)                 1.979776536750747E+03,      /* J = 33 */
(PID.TID 0000.0001)                 1.983086691899817E+03,      /* J = 34 */
(PID.TID 0000.0001)                 1.986405183633682E+03,      /* J = 35 */
(PID.TID 0000.0001)                 1.989732011972006E+03,      /* J = 36 */
(PID.TID 0000.0001)                 1.993067176946656E+03,      /* J = 37 */
(PID.TID 0000.0001)                 1.996410678601560E+03,      /* J = 38 */
(PID.TID 0000.0001)                 1.999762516990875E+03,      /* J = 39 */
(PID.TID 0000.0001)                 2.003122692179906E+03,      /* J = 40 */
(PID.TID 0000.0001)                 2.006491204248343E+03,      /* J = 41 */
(PID.TID 0000.0001)                 2.009868053286314E+03,      /* J = 42 */
(PID.TID 0000.0001)                 2.013253239399423E+03,      /* J = 43 */
(PID.TID 0000.0001)                 2.016646762699843E+03,      /* J = 44 */
(PID.TID 0000.0001)                 2.020048623318956E+03,      /* J = 45 */
(PID.TID 0000.0001)                 2.023458821397531E+03,      /* J = 46 */
(PID.TID 0000.0001)                 2.026877357089468E+03,      /* J = 47 */
(PID.TID 0000.0001)                 2.030304230565513E+03,      /* J = 48 */
(PID.TID 0000.0001)                 2.033739442005506E+03,      /* J = 49 */
(PID.TID 0000.0001)                 2.037182991604288E+03,      /* J = 50 */
(PID.TID 0000.0001)                 2.040634879573405E+03,      /* J = 51 */
(PID.TID 0000.0001)                 2.044095106136132E+03,      /* J = 52 */
(PID.TID 0000.0001)                 2.047563671529343E+03,      /* J = 53 */
(PID.TID 0000.0001)                 2.051040576005558E+03,      /* J = 54 */
(PID.TID 0000.0001)                 2.054525819830523E+03,      /* J = 55 */
(PID.TID 0000.0001)                 2.058019403287169E+03,      /* J = 56 */
(PID.TID 0000.0001)                 2.061521326670343E+03,      /* J = 57 */
(PID.TID 0000.0001)                 2.065031590292843E+03,      /* J = 58 */
(PID.TID 0000.0001)                 2.068550194479627E+03,      /* J = 59 */
(PID.TID 0000.0001)                 2.072077139574558E+03       /* J = 60 */
(PID.TID 0000.0001)     ;
(PID.TID 0000.0001) dyU =  /* dyU(:,1,:,1) ( units: m ) */
(PID.TID 0000.0001)                 3.247680685773681E+03,      /* I =  1 */
(PID.TID 0000.0001)                 3.248223668234663E+03,      /* I =  2 */
(PID.TID 0000.0001)                 3.248763178718547E+03,      /* I =  3 */
(PID.TID 0000.0001)                 3.249299216796935E+03,      /* I =  4 */
(PID.TID 0000.0001)                 3.249831782033764E+03,      /* I =  5 */
(PID.TID 0000.0001)                 3.250360874008699E+03,      /* I =  6 */
(PID.TID 0000.0001)                 3.250886492302427E+03,      /* I =  7 */
(PID.TID 0000.0001)                 3.251408636500811E+03,      /* I =  8 */
(PID.TID 0000.0001)                 3.251927306192841E+03,      /* I =  9 */
(PID.TID 0000.0001)                 3.252442500971036E+03,      /* I = 10 */
(PID.TID 0000.0001)                 3.252954220431904E+03,      /* I = 11 */
(PID.TID 0000.0001)                 3.253462464176436E+03,      /* I = 12 */
(PID.TID 0000.0001)                 3.253967231813298E+03,      /* I = 13 */
(PID.TID 0000.0001)                 3.254468522949770E+03,      /* I = 14 */
(PID.TID 0000.0001)                 3.254966337203054E+03,      /* I = 15 */
(PID.TID 0000.0001)                 3.255460674187142E+03,      /* I = 16 */
(PID.TID 0000.0001)                 3.255951533525428E+03,      /* I = 17 */
(PID.TID 0000.0001)                 3.256438914843242E+03,      /* I = 18 */
(PID.TID 0000.0001)                 3.256922817770738E+03,      /* I = 19 */
(PID.TID 0000.0001)                 3.257403241943859E+03,      /* I = 20 */
(PID.TID 0000.0001)                 3.257880186997042E+03,      /* I = 21 */
(PID.TID 0000.0001)                 3.258353652574519E+03,      /* I = 22 */
(PID.TID 0000.0001)                 3.258823638318736E+03,      /* I = 23 */
(PID.TID 0000.0001)                 3.259290143882487E+03,      /* I = 24 */
(PID.TID 0000.0001)                 3.259753168916530E+03,      /* I = 25 */
(PID.TID 0000.0001)                 3.260212713078777E+03,      /* I = 26 */
(PID.TID 0000.0001)                 3.260668776024751E+03,      /* I = 27 */
(PID.TID 0000.0001)                 3.261121357427707E+03,      /* I = 28 */
(PID.TID 0000.0001)                 3.261570456947018E+03,      /* I = 29 */
(PID.TID 0000.0001)                 3.262016074260715E+03,      /* I = 30 */
(PID.TID 0000.0001)                 3.262458209040946E+03,      /* I = 31 */
(PID.TID 0000.0001)                 3.262896860964181E+03,      /* I = 32 */
(PID.TID 0000.0001)                 3.263332029714371E+03,      /* I = 33 */
(PID.TID 0000.0001)                 3.263763714978372E+03,      /* I = 34 */
(PID.TID 0000.0001)                 3.264191916444043E+03,      /* I = 35 */
(PID.TID 0000.0001)                 3.264616633807530E+03,      /* I = 36 */
(PID.TID 0000.0001)                 3.265037866758757E+03,      /* I = 37 */
(PID.TID 0000.0001)                 3.265455615003824E+03,      /* I = 38 */
(PID.TID 0000.0001)                 3.265869878243430E+03,      /* I = 39 */
(PID.TID 0000.0001)                 3.266280656184375E+03,      /* I = 40 */
(PID.TID 0000.0001)                 3.266687948534769E+03,      /* I = 41 */
(PID.TID 0000.0001)                 3.267091755013902E+03,      /* I = 42 */
(PID.TID 0000.0001)                 3.267492075326435E+03,      /* I = 43 */
(PID.TID 0000.0001)                 3.267888909207887E+03,      /* I = 44 */
(PID.TID 0000.0001)                 3.268282256368570E+03,      /* I = 45 */
(PID.TID 0000.0001)                 3.268672116542192E+03,      /* I = 46 */
(PID.TID 0000.0001)                 3.269058489454137E+03,      /* I = 47 */
(PID.TID 0000.0001)                 3.269441374842632E+03,      /* I = 48 */
(PID.TID 0000.0001)                 3.269820772438689E+03,      /* I = 49 */
(PID.TID 0000.0001)                 3.270196681984228E+03,      /* I = 50 */
(PID.TID 0000.0001)                 3.270569103216621E+03,      /* I = 51 */
(PID.TID 0000.0001)                 3.270938035889400E+03,      /* I = 52 */
(PID.TID 0000.0001)                 3.271303479746898E+03,      /* I = 53 */
(PID.TID 0000.0001)                 3.271665434542219E+03,      /* I = 54 */
(PID.TID 0000.0001)                 3.272023900027288E+03,      /* I = 55 */
(PID.TID 0000.0001)                 3.272378875965257E+03,      /* I = 56 */
(PID.TID 0000.0001)                 3.272730362110819E+03,      /* I = 57 */
(PID.TID 0000.0001)                 3.273078358235096E+03,      /* I = 58 */
(PID.TID 0000.0001)                 3.273422864101716E+03,      /* I = 59 */
(PID.TID 0000.0001)                 3.273763879475040E+03       /* I = 60 */
(PID.TID 0000.0001)     ;
(PID.TID 0000.0001) dyU =  /* dyU(1,:,1,:) ( units: m ) */
(PID.TID 0000.0001)                 3.247680685773681E+03,      /* J =  1 */
(PID.TID 0000.0001)                 3.250741695796697E+03,      /* J =  2 */
(PID.TID 0000.0001)                 3.253801537327236E+03,      /* J =  3 */
(PID.TID 0000.0001)                 3.256860205960593E+03,      /* J =  4 */
(PID.TID 0000.0001)                 3.259917696820311E+03,      /* J =  5 */
(PID.TID 0000.0001)                 3.262974004656453E+03,      /* J =  6 */
(PID.TID 0000.0001)                 3.266029124932151E+03,      /* J =  7 */
(PID.TID 0000.0001)                 3.269083052889468E+03,      /* J =  8 */
(PID.TID 0000.0001)                 3.272135784035921E+03,      /* J =  9 */
(PID.TID 0000.0001)                 3.275187313006588E+03,      /* J = 10 */
(PID.TID 0000.0001)                 3.278237635510868E+03,      /* J = 11 */
(PID.TID 0000.0001)                 3.281286746449327E+03,      /* J = 12 */
(PID.TID 0000.0001)                 3.284334641688567E+03,      /* J = 13 */
(PID.TID 0000.0001)                 3.287381314962860E+03,      /* J = 14 */
(PID.TID 0000.0001)                 3.290426763923042E+03,      /* J = 15 */
(PID.TID 0000.0001)                 3.293470981193554E+03,      /* J = 16 */
(PID.TID 0000.0001)                 3.296513964215049E+03,      /* J = 17 */
(PID.TID 0000.0001)                 3.299555706945984E+03,      /* J = 18 */
(PID.TID 0000.0001)                 3.302596204683282E+03,      /* J = 19 */
(PID.TID 0000.0001)                 3.305635453403786E+03,      /* J = 20 */
(PID.TID 0000.0001)                 3.308673448400820E+03,      /* J = 21 */
(PID.TID 0000.0001)                 3.311710183382953E+03,      /* J = 22 */
(PID.TID 0000.0001)                 3.314745656050927E+03,      /* J = 23 */
(PID.TID 0000.0001)                 3.317779859796864E+03,      /* J = 24 */
(PID.TID 0000.0001)                 3.320812790543531E+03,      /* J = 25 */
(PID.TID 0000.0001)                 3.323844443752823E+03,      /* J = 26 */
(PID.TID 0000.0001)                 3.326874814682832E+03,      /* J = 27 */
(PID.TID 0000.0001)                 3.329903898045274E+03,      /* J = 28 */
(PID.TID 0000.0001)                 3.332931690172202E+03,      /* J = 29 */
(PID.TID 0000.0001)                 3.335958185476813E+03,      /* J = 30 */
(PID.TID 0000.0001)                 3.338983380002001E+03,      /* J = 31 */
(PID.TID 0000.0001)                 3.342007268101424E+03,      /* J = 32 */
(PID.TID 0000.0001)                 3.345029846317912E+03,      /* J = 33 */
(PID.TID 0000.0001)                 3.348051109126068E+03,      /* J = 34 */
(PID.TID 0000.0001)                 3.351071051515961E+03,      /* J = 35 */
(PID.TID 0000.0001)                 3.354089670174433E+03,      /* J = 36 */
(PID.TID 0000.0001)                 3.357106959280697E+03,      /* J = 37 */
(PID.TID 0000.0001)                 3.360122914980134E+03,      /* J = 38 */
(PID.TID 0000.0001)                 3.363137531498657E+03,      /* J = 39 */
(PID.TID 0000.0001)                 3.366150805340821E+03,      /* J = 40 */
(PID.TID 0000.0001)                 3.369162731486455E+03,      /* J = 41 */
(PID.TID 0000.0001)                 3.372173304905765E+03,      /* J = 42 */
(PID.TID 0000.0001)                 3.375182521596055E+03,      /* J = 43 */
(PID.TID 0000.0001)                 3.378190376501419E+03,      /* J = 44 */
(PID.TID 0000.0001)                 3.381196865054134E+03,      /* J = 45 */
(PID.TID 0000.0001)                 3.384201982916425E+03,      /* J = 46 */
(PID.TID 0000.0001)                 3.387205724852281E+03,      /* J = 47 */
(PID.TID 0000.0001)                 3.390208086929023E+03,      /* J = 48 */
(PID.TID 0000.0001)                 3.393209065041548E+03,      /* J = 49 */
(PID.TID 0000.0001)                 3.396208651811611E+03,      /* J = 50 */
(PID.TID 0000.0001)                 3.399206846386254E+03,      /* J = 51 */
(PID.TID 0000.0001)                 3.402203642143741E+03,      /* J = 52 */
(PID.TID 0000.0001)                 3.405199033681965E+03,      /* J = 53 */
(PID.TID 0000.0001)                 3.408193018885016E+03,      /* J = 54 */
(PID.TID 0000.0001)                 3.411185591146076E+03,      /* J = 55 */
(PID.TID 0000.0001)                 3.414176746396685E+03,      /* J = 56 */
(PID.TID 0000.0001)                 3.417166480529129E+03,      /* J = 57 */
(PID.TID 0000.0001)                 3.420154787865433E+03,      /* J = 58 */
(PID.TID 0000.0001)                 3.423141665599974E+03,      /* J = 59 */
(PID.TID 0000.0001)                 3.426127107511754E+03       /* J = 60 */
(PID.TID 0000.0001)     ;
(PID.TID 0000.0001) rA  =  /* rA (:,1,:,1) ( units: m^2 ) */
(PID.TID 0000.0001)                 6.108171851607347E+06,      /* I =  1 */
(PID.TID 0000.0001)                 6.108939565609762E+06,      /* I =  2 */
(PID.TID 0000.0001)                 6.109702053880773E+06,      /* I =  3 */
(PID.TID 0000.0001)                 6.110458992064638E+06,      /* I =  4 */
(PID.TID 0000.0001)                 6.111211371248348E+06,      /* I =  5 */
(PID.TID 0000.0001)                 6.111958092226332E+06,      /* I =  6 */
(PID.TID 0000.0001)                 6.112699497374096E+06,      /* I =  7 */
(PID.TID 0000.0001)                 6.113436271442652E+06,      /* I =  8 */
(PID.TID 0000.0001)                 6.114168108096018E+06,      /* I =  9 */
(PID.TID 0000.0001)                 6.114894124365789E+06,      /* I = 10 */
(PID.TID 0000.0001)                 6.115615257279661E+06,      /* I = 11 */
(PID.TID 0000.0001)                 6.116331723074797E+06,      /* I = 12 */
(PID.TID 0000.0001)                 6.117042963138530E+06,      /* I = 13 */
(PID.TID 0000.0001)                 6.117748869352279E+06,      /* I = 14 */
(PID.TID 0000.0001)                 6.118449603893916E+06,      /* I = 15 */
(PID.TID 0000.0001)                 6.119144932506515E+06,      /* I = 16 */
(PID.TID 0000.0001)                 6.119835900336357E+06,      /* I = 17 */
(PID.TID 0000.0001)                 6.120521318079052E+06,      /* I = 18 */
(PID.TID 0000.0001)                 6.121201708307744E+06,      /* I = 19 */
(PID.TID 0000.0001)                 6.121876782706214E+06,      /* I = 20 */
(PID.TID 0000.0001)                 6.122547370183584E+06,      /* I = 21 */
(PID.TID 0000.0001)                 6.123212785988841E+06,      /* I = 22 */
(PID.TID 0000.0001)                 6.123872327351210E+06,      /* I = 23 */
(PID.TID 0000.0001)                 6.124528048523724E+06,      /* I = 24 */
(PID.TID 0000.0001)                 6.125177588917375E+06,      /* I = 25 */
(PID.TID 0000.0001)                 6.125822822587557E+06,      /* I = 26 */
(PID.TID 0000.0001)                 6.126462109735798E+06,      /* I = 27 */
(PID.TID 0000.0001)                 6.127096927982701E+06,      /* I = 28 */
(PID.TID 0000.0001)                 6.127726934952759E+06,      /* I = 29 */
(PID.TID 0000.0001)                 6.128351481934491E+06,      /* I = 30 */
(PID.TID 0000.0001)                 6.128970983382454E+06,      /* I = 31 */
(PID.TID 0000.0001)                 6.129585241079249E+06,      /* I = 32 */
(PID.TID 0000.0001)                 6.130194705518966E+06,      /* I = 33 */
(PID.TID 0000.0001)                 6.130799556899237E+06,      /* I = 34 */
(PID.TID 0000.0001)                 6.131398876212124E+06,      /* I = 35 */
(PID.TID 0000.0001)                 6.131993005833136E+06,      /* I = 36 */
(PID.TID 0000.0001)                 6.132582071900617E+06,      /* I = 37 */
(PID.TID 0000.0001)                 6.133166416790070E+06,      /* I = 38 */
(PID.TID 0000.0001)                 6.133745770205046E+06,      /* I = 39 */
(PID.TID 0000.0001)                 6.134320132145544E+06,      /* I = 40 */
(PID.TID 0000.0001)                 6.134888511524572E+06,      /* I = 41 */
(PID.TID 0000.0001)                 6.135453413089253E+06,      /* I = 42 */
(PID.TID 0000.0001)                 6.136012350112230E+06,      /* I = 43 */
(PID.TID 0000.0001)                 6.136566908332686E+06,      /* I = 44 */
(PID.TID 0000.0001)                 6.137115682209073E+06,      /* I = 45 */
(PID.TID 0000.0001)                 6.137659608769085E+06,      /* I = 46 */
(PID.TID 0000.0001)                 6.138199192566107E+06,      /* I = 47 */
(PID.TID 0000.0001)                 6.138733100137639E+06,      /* I = 48 */
(PID.TID 0000.0001)                 6.139262268511380E+06,      /* I = 49 */
(PID.TID 0000.0001)                 6.139786048975848E+06,      /* I = 50 */
(PID.TID 0000.0001)                 6.140305540736612E+06,      /* I = 51 */
(PID.TID 0000.0001)                 6.140819410331177E+06,      /* I = 52 */
(PID.TID 0000.0001)                 6.141328522708190E+06,      /* I = 53 */
(PID.TID 0000.0001)                 6.141832985986229E+06,      /* I = 54 */
(PID.TID 0000.0001)                 6.142331628880670E+06,      /* I = 55 */
(PID.TID 0000.0001)                 6.142825766834248E+06,      /* I = 56 */
(PID.TID 0000.0001)                 6.143315147570271E+06,      /* I = 57 */
(PID.TID 0000.0001)                 6.143799482772527E+06,      /* I = 58 */
(PID.TID 0000.0001)                 6.144278303927165E+06,      /* I = 59 */
(PID.TID 0000.0001)                 6.144752908457152E+06       /* I = 60 */
(PID.TID 0000.0001)     ;
(PID.TID 0000.0001) rA  =  /* rA (1,:,1,:) ( units: m^2 ) */
(PID.TID 0000.0001)                 6.108171851607347E+06,      /* J =  1 */
(PID.TID 0000.0001)                 6.123836684259087E+06,      /* J =  2 */
(PID.TID 0000.0001)                 6.139544998600055E+06,      /* J =  3 */
(PID.TID 0000.0001)                 6.155296794630250E+06,      /* J =  4 */
(PID.TID 0000.0001)                 6.171092108389197E+06,      /* J =  5 */
(PID.TID 0000.0001)                 6.186931624627912E+06,      /* J =  6 */
(PID.TID 0000.0001)                 6.202815055030175E+06,      /* J =  7 */
(PID.TID 0000.0001)                 6.218741985141430E+06,      /* J =  8 */
(PID.TID 0000.0001)                 6.234713261890557E+06,      /* J =  9 */
(PID.TID 0000.0001)                 6.250728326664890E+06,      /* J = 10 */
(PID.TID 0000.0001)                 6.266787611938752E+06,      /* J = 11 */
(PID.TID 0000.0001)                 6.282890450980893E+06,      /* J = 12 */
(PID.TID 0000.0001)                 6.299037816858544E+06,      /* J = 13 */
(PID.TID 0000.0001)                 6.315229565413594E+06,      /* J = 14 */
(PID.TID 0000.0001)                 6.331465246151958E+06,      /* J = 15 */
(PID.TID 0000.0001)                 6.347745435706064E+06,      /* J = 16 */
(PID.TID 0000.0001)                 6.364070134075917E+06,      /* J = 17 */
(PID.TID 0000.0001)                 6.380439413340567E+06,      /* J = 18 */
(PID.TID 0000.0001)                 6.396852588749003E+06,      /* J = 19 */
(PID.TID 0000.0001)                 6.413310615348688E+06,      /* J = 20 */
(PID.TID 0000.0001)                 6.429813348981517E+06,      /* J = 21 */
(PID.TID 0000.0001)                 6.446360591430089E+06,      /* J = 22 */
(PID.TID 0000.0001)                 6.462952829228019E+06,      /* J = 23 */
(PID.TID 0000.0001)                 6.479589323565004E+06,      /* J = 24 */
(PID.TID 0000.0001)                 6.496270687113004E+06,      /* J = 25 */
(PID.TID 0000.0001)                 6.512997622642791E+06,      /* J = 26 */
(PID.TID 0000.0001)                 6.529768760652343E+06,      /* J = 27 */
(PID.TID 0000.0001)                 6.546584930050780E+06,      /* J = 28 */
(PID.TID 0000.0001)                 6.563446220936920E+06,      /* J = 29 */
(PID.TID 0000.0001)                 6.580352831528158E+06,      /* J = 30 */
(PID.TID 0000.0001)                 6.597304725784969E+06,      /* J = 31 */
(PID.TID 0000.0001)                 6.614301507272556E+06,      /* J = 32 */
(PID.TID 0000.0001)                 6.631343608465246E+06,      /* J = 33 */
(PID.TID 0000.0001)                 6.648431155501377E+06,      /* J = 34 */
(PID.TID 0000.0001)                 6.665563175313727E+06,      /* J = 35 */
(PID.TID 0000.0001)                 6.682741866313435E+06,      /* J = 36 */
(PID.TID 0000.0001)                 6.699965426524158E+06,      /* J = 37 */
(PID.TID 0000.0001)                 6.717234414558559E+06,      /* J = 38 */
(PID.TID 0000.0001)                 6.734549028634040E+06,      /* J = 39 */
(PID.TID 0000.0001)                 6.751909484987762E+06,      /* J = 40 */
(PID.TID 0000.0001)                 6.769315062829184E+06,      /* J = 41 */
(PID.TID 0000.0001)                 6.786767149680096E+06,      /* J = 42 */
(PID.TID 0000.0001)                 6.804264484157053E+06,      /* J = 43 */
(PID.TID 0000.0001)                 6.821807859129647E+06,      /* J = 44 */
(PID.TID 0000.0001)                 6.839396824103795E+06,      /* J = 45 */
(PID.TID 0000.0001)                 6.857031865613106E+06,      /* J = 46 */
(PID.TID 0000.0001)                 6.874713019697110E+06,      /* J = 47 */
(PID.TID 0000.0001)                 6.892440142197698E+06,      /* J = 48 */
(PID.TID 0000.0001)                 6.910213557470612E+06,      /* J = 49 */
(PID.TID 0000.0001)                 6.928033121357746E+06,      /* J = 50 */
(PID.TID 0000.0001)                 6.945898599602174E+06,      /* J = 51 */
(PID.TID 0000.0001)                 6.963810460717745E+06,      /* J = 52 */
(PID.TID 0000.0001)                 6.981768614605644E+06,      /* J = 53 */
(PID.TID 0000.0001)                 6.999773349582083E+06,      /* J = 54 */
(PID.TID 0000.0001)                 7.017824052975108E+06,      /* J = 55 */
(PID.TID 0000.0001)                 7.035921157259040E+06,      /* J = 56 */
(PID.TID 0000.0001)                 7.054065401244180E+06,      /* J = 57 */
(PID.TID 0000.0001)                 7.072255523547089E+06,      /* J = 58 */
(PID.TID 0000.0001)                 7.090492443175700E+06,      /* J = 59 */
(PID.TID 0000.0001)                 7.108776088050961E+06       /* J = 60 */
(PID.TID 0000.0001)     ;
(PID.TID 0000.0001) rAw =  /* rAw(:,1,:,1) ( units: m^2 ) */
(PID.TID 0000.0001)                 6.107786048471685E+06,      /* I =  1 */
(PID.TID 0000.0001)                 6.108556267221222E+06,      /* I =  2 */
(PID.TID 0000.0001)                 6.109321494496278E+06,      /* I =  3 */
(PID.TID 0000.0001)                 6.110081243763244E+06,      /* I =  4 */
(PID.TID 0000.0001)                 6.110835677199989E+06,      /* I =  5 */
(PID.TID 0000.0001)                 6.111585479557524E+06,      /* I =  6 */
(PID.TID 0000.0001)                 6.112329605689570E+06,      /* I =  7 */
(PID.TID 0000.0001)                 6.113068181734471E+06,      /* I =  8 */
(PID.TID 0000.0001)                 6.113802721352356E+06,      /* I =  9 */
(PID.TID 0000.0001)                 6.114532107317894E+06,      /* I = 10 */
(PID.TID 0000.0001)                 6.115255258445273E+06,      /* I = 11 */
(PID.TID 0000.0001)                 6.115974102849186E+06,      /* I = 12 */
(PID.TID 0000.0001)                 6.116687937758857E+06,      /* I = 13 */
(PID.TID 0000.0001)                 6.117396564956889E+06,      /* I = 14 */
(PID.TID 0000.0001)                 6.118100020482808E+06,      /* I = 15 */
(PID.TID 0000.0001)                 6.118797907901819E+06,      /* I = 16 */
(PID.TID 0000.0001)                 6.119490767806823E+06,      /* I = 17 */
(PID.TID 0000.0001)                 6.120179519205760E+06,      /* I = 18 */
(PID.TID 0000.0001)                 6.120861855568904E+06,      /* I = 19 */
(PID.TID 0000.0001)                 6.121540083425980E+06,      /* I = 20 */
(PID.TID 0000.0001)                 6.122212761195911E+06,      /* I = 21 */
(PID.TID 0000.0001)                 6.122880555609945E+06,      /* I = 22 */
(PID.TID 0000.0001)                 6.123543268450681E+06,      /* I = 23 */
(PID.TID 0000.0001)                 6.124200809619307E+06,      /* I = 24 */
(PID.TID 0000.0001)                 6.124853557530852E+06,      /* I = 25 */
(PID.TID 0000.0001)                 6.125500665256433E+06,      /* I = 26 */
(PID.TID 0000.0001)                 6.126143105863281E+06,      /* I = 27 */
(PID.TID 0000.0001)                 6.126780248659669E+06,      /* I = 28 */
(PID.TID 0000.0001)                 6.127412490080398E+06,      /* I = 29 */
(PID.TID 0000.0001)                 6.128040082402153E+06,      /* I = 30 */
(PID.TID 0000.0001)                 6.128661602063623E+06,      /* I = 31 */
(PID.TID 0000.0001)                 6.129278833021389E+06,      /* I = 32 */
(PID.TID 0000.0001)                 6.129890603990829E+06,      /* I = 33 */
(PID.TID 0000.0001)                 6.130497725861294E+06,      /* I = 34 */
(PID.TID 0000.0001)                 6.131099856257282E+06,      /* I = 35 */
(PID.TID 0000.0001)                 6.131696256368491E+06,      /* I = 36 */
(PID.TID 0000.0001)                 6.132288529953866E+06,      /* I = 37 */
(PID.TID 0000.0001)                 6.132874802958010E+06,      /* I = 38 */
(PID.TID 0000.0001)                 6.133456643100344E+06,      /* I = 39 */
(PID.TID 0000.0001)                 6.134033653946070E+06,      /* I = 40 */
(PID.TID 0000.0001)                 6.134605024605833E+06,      /* I = 41 */
(PID.TID 0000.0001)                 6.135171656067806E+06,      /* I = 42 */
(PID.TID 0000.0001)                 6.135733332094828E+06,      /* I = 43 */
(PID.TID 0000.0001)                 6.136290232884534E+06,      /* I = 44 */
(PID.TID 0000.0001)                 6.136842070120707E+06,      /* I = 45 */
(PID.TID 0000.0001)                 6.137388141032574E+06,      /* I = 46 */
(PID.TID 0000.0001)                 6.137930121458135E+06,      /* I = 47 */
(PID.TID 0000.0001)                 6.138466677934895E+06,      /* I = 48 */
(PID.TID 0000.0001)                 6.138998351055757E+06,      /* I = 49 */
(PID.TID 0000.0001)                 6.139524762405690E+06,      /* I = 50 */
(PID.TID 0000.0001)                 6.140046290399726E+06,      /* I = 51 */
(PID.TID 0000.0001)                 6.140563241373843E+06,      /* I = 52 */
(PID.TID 0000.0001)                 6.141074660280578E+06,      /* I = 53 */
(PID.TID 0000.0001)                 6.141581466127866E+06,      /* I = 54 */
(PID.TID 0000.0001)                 6.142082866046116E+06,      /* I = 55 */
(PID.TID 0000.0001)                 6.142579328549180E+06,      /* I = 56 */
(PID.TID 0000.0001)                 6.143071033834691E+06,      /* I = 57 */
(PID.TID 0000.0001)                 6.143558072001466E+06,      /* I = 58 */
(PID.TID 0000.0001)                 6.144039253745114E+06,      /* I = 59 */
(PID.TID 0000.0001)                 6.144516435101277E+06       /* I = 60 */
(PID.TID 0000.0001)     ;
(PID.TID 0000.0001) rAw =  /* rAw(1,:,1,:) ( units: m^2 ) */
(PID.TID 0000.0001)                 6.107786048471685E+06,      /* J =  1 */
(PID.TID 0000.0001)                 6.123450592807211E+06,      /* J =  2 */
(PID.TID 0000.0001)                 6.139158384575038E+06,      /* J =  3 */
(PID.TID 0000.0001)                 6.154909730111146E+06,      /* J =  4 */
(PID.TID 0000.0001)                 6.170704917731751E+06,      /* J =  5 */
(PID.TID 0000.0001)                 6.186543785258980E+06,      /* J =  6 */
(PID.TID 0000.0001)                 6.202426873285738E+06,      /* J =  7 */
(PID.TID 0000.0001)                 6.218353370922669E+06,      /* J =  8 */
(PID.TID 0000.0001)                 6.234324359355581E+06,      /* J =  9 */
(PID.TID 0000.0001)                 6.250338342944106E+06,      /* J = 10 */
(PID.TID 0000.0001)                 6.266397339901753E+06,      /* J = 11 */
(PID.TID 0000.0001)                 6.282499818548625E+06,      /* J = 12 */
(PID.TID 0000.0001)                 6.298646769971717E+06,      /* J = 13 */
(PID.TID 0000.0001)                 6.314838104072207E+06,      /* J = 14 */
(PID.TID 0000.0001)                 6.331073262237430E+06,      /* J = 15 */
(PID.TID 0000.0001)                 6.347352857139343E+06,      /* J = 16 */
(PID.TID 0000.0001)                 6.363677014916291E+06,      /* J = 17 */
(PID.TID 0000.0001)                 6.380045104876553E+06,      /* J = 18 */
(PID.TID 0000.0001)                 6.396458442462860E+06,      /* J = 19 */
(PID.TID 0000.0001)                 6.412915676192954E+06,      /* J = 20 */
(PID.TID 0000.0001)                 6.429417652995718E+06,      /* J = 21 */
(PID.TID 0000.0001)                 6.445964715246655E+06,      /* J = 22 */
(PID.TID 0000.0001)                 6.462555727700669E+06,      /* J = 23 */
(PID.TID 0000.0001)                 6.479192131938837E+06,      /* J = 24 */
(PID.TID 0000.0001)                 6.495872900834642E+06,      /* J = 25 */
(PID.TID 0000.0001)                 6.512599277751762E+06,      /* J = 26 */
(PID.TID 0000.0001)                 6.529369911207939E+06,      /* J = 27 */
(PID.TID 0000.0001)                 6.546185269717020E+06,      /* J = 28 */
(PID.TID 0000.0001)                 6.563046038030019E+06,      /* J = 29 */
(PID.TID 0000.0001)                 6.579951603474976E+06,      /* J = 30 */
(PID.TID 0000.0001)                 6.596903101296991E+06,      /* J = 31 */
(PID.TID 0000.0001)                 6.613898945756880E+06,      /* J = 32 */
(PID.TID 0000.0001)                 6.630940200020686E+06,      /* J = 33 */
(PID.TID 0000.0001)                 6.648027116365096E+06,      /* J = 34 */
(PID.TID 0000.0001)                 6.665158703703123E+06,      /* J = 35 */
(PID.TID 0000.0001)                 6.682336385596077E+06,      /* J = 36 */
(PID.TID 0000.0001)                 6.699559080858152E+06,      /* J = 37 */
(PID.TID 0000.0001)                 6.716827258003199E+06,      /* J = 38 */
(PID.TID 0000.0001)                 6.734141187327669E+06,      /* J = 39 */
(PID.TID 0000.0001)                 6.751500958930379E+06,      /* J = 40 */
(PID.TID 0000.0001)                 6.768906050238188E+06,      /* J = 41 */
(PID.TID 0000.0001)                 6.786357037883528E+06,      /* J = 42 */
(PID.TID 0000.0001)                 6.803853453352548E+06,      /* J = 43 */
(PID.TID 0000.0001)                 6.821395981396262E+06,      /* J = 44 */
(PID.TID 0000.0001)                 6.838984315678688E+06,      /* J = 45 */
(PID.TID 0000.0001)                 6.856618330061481E+06,      /* J = 46 */
(PID.TID 0000.0001)                 6.874298745335184E+06,      /* J = 47 */
(PID.TID 0000.0001)                 6.892024966847599E+06,      /* J = 48 */
(PID.TID 0000.0001)                 6.909797427073050E+06,      /* J = 49 */
(PID.TID 0000.0001)                 6.927616180070829E+06,      /* J = 50 */
(PID.TID 0000.0001)                 6.945480559109684E+06,      /* J = 51 */
(PID.TID 0000.0001)                 6.963391375078975E+06,      /* J = 52 */
(PID.TID 0000.0001)                 6.981348537879883E+06,      /* J = 53 */
(PID.TID 0000.0001)                 6.999352498006494E+06,      /* J = 54 */
(PID.TID 0000.0001)                 7.017401994075367E+06,      /* J = 55 */
(PID.TID 0000.0001)                 7.035498143311836E+06,      /* J = 56 */
(PID.TID 0000.0001)                 7.053641270071642E+06,      /* J = 57 */
(PID.TID 0000.0001)                 7.071830797722356E+06,      /* J = 58 */
(PID.TID 0000.0001)                 7.090066546066342E+06,      /* J = 59 */
(PID.TID 0000.0001)                 7.108348875498870E+06       /* J = 60 */
(PID.TID 0000.0001)     ;
(PID.TID 0000.0001) rAs =  /* rAs(:,1,:,1) ( units: m^2 ) */
(PID.TID 0000.0001)                 6.100355851285988E+06,      /* I =  1 */
(PID.TID 0000.0001)                 6.101122934596682E+06,      /* I =  2 */
(PID.TID 0000.0001)                 6.101885044452660E+06,      /* I =  3 */
(PID.TID 0000.0001)                 6.102641856498181E+06,      /* I =  4 */
(PID.TID 0000.0001)                 6.103393659049461E+06,      /* I =  5 */
(PID.TID 0000.0001)                 6.104140380027445E+06,      /* I =  6 */
(PID.TID 0000.0001)                 6.104881424779939E+06,      /* I =  7 */
(PID.TID 0000.0001)                 6.105617532117248E+06,      /* I =  8 */
(PID.TID 0000.0001)                 6.106348972335817E+06,      /* I =  9 */
(PID.TID 0000.0001)                 6.107074826427717E+06,      /* I = 10 */
(PID.TID 0000.0001)                 6.107795454788212E+06,      /* I = 11 */
(PID.TID 0000.0001)                 6.108511452069499E+06,      /* I = 12 */
(PID.TID 0000.0001)                 6.109222115500800E+06,      /* I = 13 */
(PID.TID 0000.0001)                 6.109927913595970E+06,      /* I = 14 */
(PID.TID 0000.0001)                 6.110628269722573E+06,      /* I = 15 */
(PID.TID 0000.0001)                 6.111323418137537E+06,      /* I = 16 */
(PID.TID 0000.0001)                 6.112013863394239E+06,      /* I = 17 */
(PID.TID 0000.0001)                 6.112699064899774E+06,      /* I = 18 */
(PID.TID 0000.0001)                 6.113378860476270E+06,      /* I = 19 */
(PID.TID 0000.0001)                 6.114053916854979E+06,      /* I = 20 */
(PID.TID 0000.0001)                 6.114724017798734E+06,      /* I = 21 */
(PID.TID 0000.0001)                 6.115388856971560E+06,      /* I = 22 */
(PID.TID 0000.0001)                 6.116048218136294E+06,      /* I = 23 */
(PID.TID 0000.0001)                 6.116703290597325E+06,      /* I = 24 */
(PID.TID 0000.0001)                 6.117352867030501E+06,      /* I = 25 */
(PID.TID 0000.0001)                 6.117997325850855E+06,      /* I = 26 */
(PID.TID 0000.0001)                 6.118636522900278E+06,      /* I = 27 */
(PID.TID 0000.0001)                 6.119271251048365E+06,      /* I = 28 */
(PID.TID 0000.0001)                 6.119900519208120E+06,      /* I = 29 */
(PID.TID 0000.0001)                 6.120524795893399E+06,      /* I = 30 */
(PID.TID 0000.0001)                 6.121144243282073E+06,      /* I = 31 */
(PID.TID 0000.0001)                 6.121758032465018E+06,      /* I = 32 */
(PID.TID 0000.0001)                 6.122366938292067E+06,      /* I = 33 */
(PID.TID 0000.0001)                 6.122971249079434E+06,      /* I = 34 */
(PID.TID 0000.0001)                 6.123570352155162E+06,      /* I = 35 */
(PID.TID 0000.0001)                 6.124164103361141E+06,      /* I = 36 */
(PID.TID 0000.0001)                 6.124753187448384E+06,      /* I = 37 */
(PID.TID 0000.0001)                 6.125337532337838E+06,      /* I = 38 */
(PID.TID 0000.0001)                 6.125916417238964E+06,      /* I = 39 */
(PID.TID 0000.0001)                 6.126490040369160E+06,      /* I = 40 */
(PID.TID 0000.0001)                 6.127058726084167E+06,      /* I = 41 */
(PID.TID 0000.0001)                 6.127622888838546E+06,      /* I = 42 */
(PID.TID 0000.0001)                 6.128181681703415E+06,      /* I = 43 */
(PID.TID 0000.0001)                 6.128735843489075E+06,      /* I = 44 */
(PID.TID 0000.0001)                 6.129284455187589E+06,      /* I = 45 */
(PID.TID 0000.0001)                 6.129827931253517E+06,      /* I = 46 */
(PID.TID 0000.0001)                 6.130367226734323E+06,      /* I = 47 */
(PID.TID 0000.0001)                 6.130900647772241E+06,      /* I = 48 */
(PID.TID 0000.0001)                 6.131429996343618E+06,      /* I = 49 */
(PID.TID 0000.0001)                 6.131953380373289E+06,      /* I = 50 */
(PID.TID 0000.0001)                 6.132472457679495E+06,      /* I = 51 */
(PID.TID 0000.0001)                 6.132986237175241E+06,      /* I = 52 */
(PID.TID 0000.0001)                 6.133494718860532E+06,      /* I = 53 */
(PID.TID 0000.0001)                 6.133998947881646E+06,      /* I = 54 */
(PID.TID 0000.0001)                 6.134497590776089E+06,      /* I = 55 */
(PID.TID 0000.0001)                 6.134991098037945E+06,      /* I = 56 */
(PID.TID 0000.0001)                 6.135480514813497E+06,      /* I = 57 */
(PID.TID 0000.0001)                 6.135964525660010E+06,      /* I = 58 */
(PID.TID 0000.0001)                 6.136443220676301E+06,      /* I = 59 */
(PID.TID 0000.0001)                 6.136917194514569E+06       /* I = 60 */
(PID.TID 0000.0001)     ;
(PID.TID 0000.0001) rAs =  /* rAs(1,:,1,:) ( units: m^2 ) */
(PID.TID 0000.0001)                 6.100355851285988E+06,      /* J =  1 */
(PID.TID 0000.0001)                 6.115998988142524E+06,      /* J =  2 */
(PID.TID 0000.0001)                 6.131685354411598E+06,      /* J =  3 */
(PID.TID 0000.0001)                 6.147415382567534E+06,      /* J =  4 */
(PID.TID 0000.0001)                 6.163188838353407E+06,      /* J =  5 */
(PID.TID 0000.0001)                 6.179006550678334E+06,      /* J =  6 */
(PID.TID 0000.0001)                 6.194867762712253E+06,      /* J =  7 */
(PID.TID 0000.0001)                 6.210773141186411E+06,      /* J =  8 */
(PID.TID 0000.0001)                 6.226722109468374E+06,      /* J =  9 */
(PID.TID 0000.0001)                 6.242715334289395E+06,      /* J = 10 */
(PID.TID 0000.0001)                 6.258752347135622E+06,      /* J = 11 */
(PID.TID 0000.0001)                 6.274833400283742E+06,      /* J = 12 */
(PID.TID 0000.0001)                 6.290958727990681E+06,      /* J = 13 */
(PID.TID 0000.0001)                 6.307128294216913E+06,      /* J = 14 */
(PID.TID 0000.0001)                 6.323341774606694E+06,      /* J = 15 */
(PID.TID 0000.0001)                 6.339599944009855E+06,      /* J = 16 */
(PID.TID 0000.0001)                 6.355902009556802E+06,      /* J = 17 */
(PID.TID 0000.0001)                 6.372249376789085E+06,      /* J = 18 */
(PID.TID 0000.0001)                 6.388640351848939E+06,      /* J = 19 */
(PID.TID 0000.0001)                 6.405075907803591E+06,      /* J = 20 */
(PID.TID 0000.0001)                 6.421556549206420E+06,      /* J = 21 */
(PID.TID 0000.0001)                 6.438081375069248E+06,      /* J = 22 */
(PID.TID 0000.0001)                 6.454651178261672E+06,      /* J = 23 */
(PID.TID 0000.0001)                 6.471265292052442E+06,      /* J = 24 */
(PID.TID 0000.0001)                 6.487924527330913E+06,      /* J = 25 */
(PID.TID 0000.0001)                 6.504628433602999E+06,      /* J = 26 */
(PID.TID 0000.0001)                 6.521377623540659E+06,      /* J = 27 */
(PID.TID 0000.0001)                 6.538171214175481E+06,      /* J = 28 */
(PID.TID 0000.0001)                 6.555009908278242E+06,      /* J = 29 */
(PID.TID 0000.0001)                 6.571893904066339E+06,      /* J = 30 */
(PID.TID 0000.0001)                 6.588823273618827E+06,      /* J = 31 */
(PID.TID 0000.0001)                 6.605797494362563E+06,      /* J = 32 */
(PID.TID 0000.0001)                 6.622816836594003E+06,      /* J = 33 */
(PID.TID 0000.0001)                 6.639881804866522E+06,      /* J = 34 */
(PID.TID 0000.0001)                 6.656991281954782E+06,      /* J = 35 */
(PID.TID 0000.0001)                 6.674147105874661E+06,      /* J = 36 */
(PID.TID 0000.0001)                 6.691347780985790E+06,      /* J = 37 */
(PID.TID 0000.0001)                 6.708594370454213E+06,      /* J = 38 */
(PID.TID 0000.0001)                 6.725885865173175E+06,      /* J = 39 */
(PID.TID 0000.0001)                 6.743223436427303E+06,      /* J = 40 */
(PID.TID 0000.0001)                 6.760606759860855E+06,      /* J = 41 */
(PID.TID 0000.0001)                 6.778035402999505E+06,      /* J = 42 */
(PID.TID 0000.0001)                 6.795509942475686E+06,      /* J = 43 */
(PID.TID 0000.0001)                 6.813030648585849E+06,      /* J = 44 */
(PID.TID 0000.0001)                 6.830596602322059E+06,      /* J = 45 */
(PID.TID 0000.0001)                 6.848208452395799E+06,      /* J = 46 */
(PID.TID 0000.0001)                 6.865866505143047E+06,      /* J = 47 */
(PID.TID 0000.0001)                 6.883571048880022E+06,      /* J = 48 */
(PID.TID 0000.0001)                 6.901320930341858E+06,      /* J = 49 */
(PID.TID 0000.0001)                 6.919117789327035E+06,      /* J = 50 */
(PID.TID 0000.0001)                 6.936959787819674E+06,      /* J = 51 */
(PID.TID 0000.0001)                 6.954849052151868E+06,      /* J = 52 */
(PID.TID 0000.0001)                 6.972783744307742E+06,      /* J = 53 */
(PID.TID 0000.0001)                 6.990765053591684E+06,      /* J = 54 */
(PID.TID 0000.0001)                 7.008792871885117E+06,      /* J = 55 */
(PID.TID 0000.0001)                 7.026866874832294E+06,      /* J = 56 */
(PID.TID 0000.0001)                 7.044987260650614E+06,      /* J = 57 */
(PID.TID 0000.0001)                 7.063154858249199E+06,      /* J = 58 */
(PID.TID 0000.0001)                 7.081368099908625E+06,      /* J = 59 */
(PID.TID 0000.0001)                 7.099628517308787E+06       /* J = 60 */
(PID.TID 0000.0001)     ;
(PID.TID 0000.0001) globalArea = /* Integrated horizontal Area (m^2) */
(PID.TID 0000.0001)                 3.596918662074775E+14
(PID.TID 0000.0001)     ;
(PID.TID 0000.0001) hasWetCSCorners = /* Domain contains CS corners (True/False) */
(PID.TID 0000.0001)                   F
(PID.TID 0000.0001)     ;
(PID.TID 0000.0001) // =======================================================
(PID.TID 0000.0001) // End of Model config. summary
(PID.TID 0000.0001) // =======================================================
(PID.TID 0000.0001) 
(PID.TID 0000.0001) DEBUG_MSG: CALLING S/R PACKAGES_CHECK
(PID.TID 0000.0001) == Packages configuration : Check & print summary ==
(PID.TID 0000.0001) 
(PID.TID 0000.0001) KPP_CHECK: #define ALLOW_KPP
(PID.TID 0000.0001)  kpp_freq = /* frequency of KPP calculation */
(PID.TID 0000.0001)                 3.000000000000000E+02
(PID.TID 0000.0001)     ;
(PID.TID 0000.0001) KPP_ghatUseTotalDiffus= /* non-local term fct of total diffus */
(PID.TID 0000.0001)                   F
(PID.TID 0000.0001)     ;
(PID.TID 0000.0001) KPPuseDoubleDiff = /* include double diffusive contrib */
(PID.TID 0000.0001)                   F
(PID.TID 0000.0001)     ;
(PID.TID 0000.0001) LimitHblStable = /* limits depth of hbl if stable cond.*/
(PID.TID 0000.0001)                   T
(PID.TID 0000.0001)     ;
(PID.TID 0000.0001)  minKPPhbl = /* minimum KPPhbl value [m] */
(PID.TID 0000.0001)                 5.000000000000000E-01
(PID.TID 0000.0001)     ;
(PID.TID 0000.0001)  epsln     = /* constant [-] */
(PID.TID 0000.0001)                 9.999999999999999E-21
(PID.TID 0000.0001)     ;
(PID.TID 0000.0001)  phepsi    = /* constant [-] */
(PID.TID 0000.0001)                 1.000000000000000E-10
(PID.TID 0000.0001)     ;
(PID.TID 0000.0001)  epsilon   = /* constant [-] */
(PID.TID 0000.0001)                 1.000000000000000E-01
(PID.TID 0000.0001)     ;
(PID.TID 0000.0001)  vonk      = /* Von Karmans constant [-] */
(PID.TID 0000.0001)                 4.000000000000000E-01
(PID.TID 0000.0001)     ;
(PID.TID 0000.0001)  dB_dz     = /* maximum N^2 in mixed layer [s^-2] */
(PID.TID 0000.0001)                 5.200000000000000E-05
(PID.TID 0000.0001)     ;
(PID.TID 0000.0001)  conc1     = /* scalar constant [-] */
(PID.TID 0000.0001)                 5.000000000000000E+00
(PID.TID 0000.0001)     ;
(PID.TID 0000.0001)  conam     = /* scalar constant [-] */
(PID.TID 0000.0001)                 1.257000000000000E+00
(PID.TID 0000.0001)     ;
(PID.TID 0000.0001)  concm     = /* scalar constant [-] */
(PID.TID 0000.0001)                 8.380000000000001E+00
(PID.TID 0000.0001)     ;
(PID.TID 0000.0001)  conc2     = /* scalar constant [-] */
(PID.TID 0000.0001)                 1.600000000000000E+01
(PID.TID 0000.0001)     ;
(PID.TID 0000.0001)  conas     = /* scalar constant [-] */
(PID.TID 0000.0001)                -2.886000000000000E+01
(PID.TID 0000.0001)     ;
(PID.TID 0000.0001)  concs     = /* scalar constant [-] */
(PID.TID 0000.0001)                 9.895999999999999E+01
(PID.TID 0000.0001)     ;
(PID.TID 0000.0001)  conc3     = /* scalar constant [-] */
(PID.TID 0000.0001)                 1.600000000000000E+01
(PID.TID 0000.0001)     ;
(PID.TID 0000.0001)  zetam     = /* scalar constant [-] */
(PID.TID 0000.0001)                -2.000000000000000E-01
(PID.TID 0000.0001)     ;
(PID.TID 0000.0001)  zetas     = /* scalar constant [-] */
(PID.TID 0000.0001)                -1.000000000000000E+00
(PID.TID 0000.0001)     ;
(PID.TID 0000.0001)  Ricr      = /* critical bulk Richardson Number [-] */
(PID.TID 0000.0001)                 3.559000000000000E-01
(PID.TID 0000.0001)     ;
(PID.TID 0000.0001)  cekman    = /* coeff for Ekman depth [-] */
(PID.TID 0000.0001)                 7.000000000000000E-01
(PID.TID 0000.0001)     ;
(PID.TID 0000.0001)  cmonob    = /* coeff for Monin-Obukhov depth [-] */
(PID.TID 0000.0001)                 1.000000000000000E+00
(PID.TID 0000.0001)     ;
(PID.TID 0000.0001)  concv     = /* buoyancy freq ratio [-] */
(PID.TID 0000.0001)                 1.800000000000000E+00
(PID.TID 0000.0001)     ;
(PID.TID 0000.0001)  hbf       = /* solar radiation depth ratio [-] */
(PID.TID 0000.0001)                 1.000000000000000E+00
(PID.TID 0000.0001)     ;
(PID.TID 0000.0001)  zmin      = /* minimum for zehat in table [m3/s3] */
(PID.TID 0000.0001)                -4.000000000000000E-07
(PID.TID 0000.0001)     ;
(PID.TID 0000.0001)  zmax      = /* maximum for zehat in table [m3/s3] */
(PID.TID 0000.0001)                 0.000000000000000E+00
(PID.TID 0000.0001)     ;
(PID.TID 0000.0001)  umin      = /* minimum for ustar in table [m/s] */
(PID.TID 0000.0001)                 0.000000000000000E+00
(PID.TID 0000.0001)     ;
(PID.TID 0000.0001)  umax      = /* maximum for ustar in table [m/s] */
(PID.TID 0000.0001)                 4.000000000000000E-02
(PID.TID 0000.0001)     ;
(PID.TID 0000.0001) num_v_smooth_Ri = /* number of vertical smoothing */
(PID.TID 0000.0001)                       0
(PID.TID 0000.0001)     ;
(PID.TID 0000.0001)  Riinfty   = /* shear instability Ri number limit [-] */
(PID.TID 0000.0001)                 6.998000000000000E-01
(PID.TID 0000.0001)     ;
(PID.TID 0000.0001)  BVSQcon   = /* Brunt-Vaisala squared (=N^2) [s^-2] */
(PID.TID 0000.0001)                -2.000000000000000E-05
(PID.TID 0000.0001)     ;
(PID.TID 0000.0001)  difm0     = /* max viscosity from shear instab. [m2/s] */
(PID.TID 0000.0001)                 5.000000000000000E-03
(PID.TID 0000.0001)     ;
(PID.TID 0000.0001)  difs0     = /* max diffusiv. from shear instab. [m2/s] */
(PID.TID 0000.0001)                 5.000000000000000E-03
(PID.TID 0000.0001)     ;
(PID.TID 0000.0001)  dift0     = /* max diffusiv. from shear instab. [m2/s] */
(PID.TID 0000.0001)                 5.000000000000000E-03
(PID.TID 0000.0001)     ;
(PID.TID 0000.0001)  difmcon   = /* convective viscosity [m2/s] */
(PID.TID 0000.0001)                 1.000000000000000E-01
(PID.TID 0000.0001)     ;
(PID.TID 0000.0001)  difscon   = /* convective diffusiv. [m2/s] */
(PID.TID 0000.0001)                 1.000000000000000E-01
(PID.TID 0000.0001)     ;
(PID.TID 0000.0001)  diftcon   = /* convective diffusiv. [m2/s] */
(PID.TID 0000.0001)                 1.000000000000000E-01
(PID.TID 0000.0001)     ;
(PID.TID 0000.0001)  Rrho0     = /* double diffusion density ratio [-] */
(PID.TID 0000.0001)                 1.900000000000000E+00
(PID.TID 0000.0001)     ;
(PID.TID 0000.0001)  dsfmax    = /* max diffusiv. for salt fingering [m2/s] */
(PID.TID 0000.0001)                 1.000000000000000E-02
(PID.TID 0000.0001)     ;
(PID.TID 0000.0001)  cstar     = /* coeff for non-locak transport [-] */
(PID.TID 0000.0001)                 1.000000000000000E+01
(PID.TID 0000.0001)     ;
(PID.TID 0000.0001) KPPwriteState = /* write KPP fields to file */
(PID.TID 0000.0001)                   F
(PID.TID 0000.0001)     ;
(PID.TID 0000.0001)  kpp_dumpFreq = /* dump freq of KPP output */
(PID.TID 0000.0001)                 0.000000000000000E+00
(PID.TID 0000.0001)     ;
(PID.TID 0000.0001)  kpp_taveFreq = /* time-averaging freq of KPP output */
(PID.TID 0000.0001)                 0.000000000000000E+00
(PID.TID 0000.0001)     ;
(PID.TID 0000.0001) 
(PID.TID 0000.0001) GAD_CHECK: #define ALLOW_GENERIC_ADVDIFF
(PID.TID 0000.0001) DEBUG_MSG: CALLING S/R CONFIG_CHECK
(PID.TID 0000.0001) // =======================================================
(PID.TID 0000.0001) // Check Model config. (CONFIG_CHECK):
(PID.TID 0000.0001) // CONFIG_CHECK : Normal End
(PID.TID 0000.0001) // =======================================================
(PID.TID 0000.0001) 
(PID.TID 0000.0001) DEBUG_MSG: CALLING S/R WRITE_GRID
(PID.TID 0000.0001)  MDS_WRITE_FIELD: it,rec,kS,kL,kH=      -1     1   1   1   1 file=XC
(PID.TID 0000.0001)  MDS_WRITE_FIELD: it,rec,kS,kL,kH=      -1     1   1   1   1 file=YC
(PID.TID 0000.0001)  MDS_WRITE_FIELD: it,rec,kS,kL,kH=      -1     1   1   1   1 file=XG
(PID.TID 0000.0001)  MDS_WRITE_FIELD: it,rec,kS,kL,kH=      -1     1   1   1   1 file=YG
(PID.TID 0000.0001)  MDS_WRITE_FIELD: it,rec,kS,kL,kH=      -1     1   1   1   1 file=RAC
(PID.TID 0000.0001)  MDS_WRITE_FIELD: it,rec,kS,kL,kH=      -1     1   1   1   1 file=RAW
(PID.TID 0000.0001)  MDS_WRITE_FIELD: it,rec,kS,kL,kH=      -1     1   1   1   1 file=RAS
(PID.TID 0000.0001)  MDS_WRITE_FIELD: it,rec,kS,kL,kH=      -1     1   1   1   1 file=RAZ
(PID.TID 0000.0001)  MDS_WRITE_FIELD: it,rec,kS,kL,kH=      -1     1   1   1   1 file=DXG
(PID.TID 0000.0001)  MDS_WRITE_FIELD: it,rec,kS,kL,kH=      -1     1   1   1   1 file=DYG
(PID.TID 0000.0001)  MDS_WRITE_FIELD: it,rec,kS,kL,kH=      -1     1   1   1   1 file=DXC
(PID.TID 0000.0001)  MDS_WRITE_FIELD: it,rec,kS,kL,kH=      -1     1   1   1   1 file=DYC
(PID.TID 0000.0001)  MDS_WRITE_FIELD: it,rec,kS,kL,kH=      -1     1   1   1   1 file=AngleCS
(PID.TID 0000.0001)  MDS_WRITE_FIELD: it,rec,kS,kL,kH=      -1     1   1   1   1 file=AngleSN
(PID.TID 0000.0001)  MDS_WRITE_FIELD: it,rec,kS,kL,kH=      -1     1   1   1   1 file=U2zonDir
(PID.TID 0000.0001)  MDS_WRITE_FIELD: it,rec,kS,kL,kH=      -1     1   1   1   1 file=V2zonDir
(PID.TID 0000.0001)  MDS_WRITE_FIELD: it,rec,kS,kL,kH=      -1     1   1   1   1 file=Depth
(PID.TID 0000.0001)  MDS_WRITE_FIELD: it,rec,kS,kL,kH=      -1     1   1   1   1 file=rLowC
(PID.TID 0000.0001)  MDS_WRITE_FIELD: it,rec,kS,kL,kH=      -1     1   1   1   1 file=rLowW
(PID.TID 0000.0001)  MDS_WRITE_FIELD: it,rec,kS,kL,kH=      -1     1   1   1   1 file=rLowS
(PID.TID 0000.0001)  MDS_WRITE_FIELD: it,rec,kS,kL,kH=      -1     1   1   1   1 file=rSurfC
(PID.TID 0000.0001)  MDS_WRITE_FIELD: it,rec,kS,kL,kH=      -1     1   1   1   1 file=rSurfW
(PID.TID 0000.0001)  MDS_WRITE_FIELD: it,rec,kS,kL,kH=      -1     1   1   1   1 file=rSurfS
(PID.TID 0000.0001)  MDS_WRITE_FIELD: it,rec,kS,kL,kH=       0     1  90   1  90 file=hFacC
(PID.TID 0000.0001)  MDS_WRITE_FIELD: it,rec,kS,kL,kH=       0     1  90   1  90 file=hFacW
(PID.TID 0000.0001)  MDS_WRITE_FIELD: it,rec,kS,kL,kH=       0     1  90   1  90 file=hFacS
(PID.TID 0000.0001)  MDS_WRITEVEC_LOC: open file: RC.data
(PID.TID 0000.0001)  MDS_WR_REC_RS: iRec,Dim =         1         90
(PID.TID 0000.0001)  MDS_WRITEVEC_LOC: open file: RF.data
(PID.TID 0000.0001)  MDS_WR_REC_RS: iRec,Dim =         1         91
(PID.TID 0000.0001)  MDS_WRITEVEC_LOC: open file: DRC.data
(PID.TID 0000.0001)  MDS_WR_REC_RS: iRec,Dim =         1         91
(PID.TID 0000.0001)  MDS_WRITEVEC_LOC: open file: DRF.data
(PID.TID 0000.0001)  MDS_WR_REC_RS: iRec,Dim =         1         90
(PID.TID 0000.0001)  MDS_WRITEVEC_LOC: open file: PHrefF.data
(PID.TID 0000.0001)  MDS_WR_REC_RS: iRec,Dim =         1         91
(PID.TID 0000.0001)  MDS_WRITEVEC_LOC: open file: PHrefC.data
(PID.TID 0000.0001)  MDS_WR_REC_RS: iRec,Dim =         1         90
(PID.TID 0000.0001) DEBUG_MSG: LEAVING S/R INITIALISE_FIXED
(PID.TID 0000.0001) DEBUG_MSG: ENTERED S/R INITIALISE_VARIA
(PID.TID 0000.0001) DEBUG_MSG: ENTERED S/R INI_NLFS_VARS
(PID.TID 0000.0001) DEBUG_MSG: LEAVING S/R INI_NLFS_VARS
(PID.TID 0000.0001) DEBUG_MSG: CALLING S/R INI_DYNVARS
(PID.TID 0000.0001) DEBUG_MSG: CALLING S/R INI_FIELDS
(PID.TID 0000.0001)  MDS_READ_META: opening file: pickup.0000731520.meta
(PID.TID 0000.0001)  nRecords = 543 ; filePrec =  64 ; fileIter =    731520
(PID.TID 0000.0001)     nDims =   2 , dims:
(PID.TID 0000.0001)    1:1080   11080
(PID.TID 0000.0001)    2:****   1****
(PID.TID 0000.0001)     nFlds =   9 , nFl3D =   6 , fields:
(PID.TID 0000.0001)  >Uvel    < >Vvel    < >Theta   < >Salt    < >GuNm1   < >GvNm1   < >EtaN    < >dEtaHdt < >EtaH    <
(PID.TID 0000.0001) missingVal=  1.00000000000000E+00 ; nTimRec =   1 , timeList:
(PID.TID 0000.0001)   0.000000000000E+00
(PID.TID 0000.0001) READ_MFLDS_3D_RL: read field: "Uvel    ", #   1 in fldList, rec=   1
(PID.TID 0000.0001)  MDS_READ_FIELD: opening global file: pickup.0000731520.data
(PID.TID 0000.0001) READ_MFLDS_3D_RL: read field: "Vvel    ", #   2 in fldList, rec=   2
(PID.TID 0000.0001)  MDS_READ_FIELD: opening global file: pickup.0000731520.data
(PID.TID 0000.0001) READ_MFLDS_3D_RL: read field: "Theta   ", #   3 in fldList, rec=   3
(PID.TID 0000.0001)  MDS_READ_FIELD: opening global file: pickup.0000731520.data
(PID.TID 0000.0001) READ_MFLDS_3D_RL: read field: "Salt    ", #   4 in fldList, rec=   4
(PID.TID 0000.0001)  MDS_READ_FIELD: opening global file: pickup.0000731520.data
(PID.TID 0000.0001) READ_MFLDS_3D_RL: read field: "GuNm1   ", #   5 in fldList, rec=   5
(PID.TID 0000.0001)  MDS_READ_FIELD: opening global file: pickup.0000731520.data
(PID.TID 0000.0001) READ_MFLDS_3D_RL: read field: "GvNm1   ", #   6 in fldList, rec=   6
(PID.TID 0000.0001)  MDS_READ_FIELD: opening global file: pickup.0000731520.data
(PID.TID 0000.0001) READ_MFLDS_3D_RL: read field: "EtaN    ", #   7 in fldList, rec= 541
(PID.TID 0000.0001)  MDS_READ_FIELD: opening global file: pickup.0000731520.data
(PID.TID 0000.0001) READ_MFLDS_3D_RL: read field: "dEtaHdt ", #   8 in fldList, rec= 542
(PID.TID 0000.0001)  MDS_READ_FIELD: opening global file: pickup.0000731520.data
(PID.TID 0000.0001) READ_MFLDS_CHECK: - normal end ; reset MFLDS file-name: pickup.0000731520
(PID.TID 0000.0001) DEBUG_MSG: CALLING S/R INI_MIXING
(PID.TID 0000.0001) DEBUG_MSG: CALLING S/R INI_FORCING
(PID.TID 0000.0001) DEBUG_MSG: CALLING S/R PACKAGES_INIT_VARIABLES
(PID.TID 0000.0001) DEBUG_MSG: ENTERED S/R PACKAGES_INIT_VARIABLES
(PID.TID 0000.0001)  write diagnostics summary to file ioUnit:      6
Iter.Nb:    731520 ; Time(s):  2.1945600000000E+08
------------------------------------------------------------------------
2D/3D diagnostics: Number of lists:     2
------------------------------------------------------------------------
listId=    1 ; file name: state_2d_set1
 nFlds, nActive,       freq     &     phase        , nLev               
    6  |    6  |      -300.000000       150.000000 |   1
 levels:   1
 diag# | name   |   ipt  |  iMate | kLev|   count |   mate.C|           
    80 |oceTAUX |      1 |      2 |   1 |       0 |       0 |
    81 |oceTAUY |      2 |      1 |   1 |       0 |       0 |
    84 |oceFWflx|      3 |      0 |   1 |       0 |
    85 |oceSflux|      4 |      0 |   1 |       0 |
    86 |oceQnet |      5 |      0 |   1 |       0 |
    87 |oceQsw  |      6 |      0 |   1 |       0 |
------------------------------------------------------------------------
listId=    2 ; file name: state_3d_set1
 nFlds, nActive,       freq     &     phase        , nLev               
    4  |    4  |      -300.000000       150.000000 |   1
 levels:   1
 diag# | name   |   ipt  |  iMate | kLev|   count |   mate.C|           
    27 |SALT    |      7 |      0 |  90 |       0 |
    26 |THETA   |     97 |      0 |  90 |       0 |
    45 |UVELMASS|    187 |    277 |  90 |       0 |       0 |
    46 |VVELMASS|    277 |    187 |  90 |       0 |       0 |
------------------------------------------------------------------------
Global & Regional Statistics diagnostics: Number of lists:     1
------------------------------------------------------------------------
listId=   1 ; file name: dynStDiag
 nFlds, nActive,       freq     &     phase        |                    
    6  |    6  |     10800.000000         0.000000 |
 Regions:   0
 diag# | name   |   ipt  |  iMate |    Volume   |   mate-Vol. |         
    23 |ETAN    |      1 |      0 | 0.00000E+00 |
    26 |THETA   |      2 |      0 | 0.00000E+00 |
    27 |SALT    |     92 |      0 | 0.00000E+00 |
    86 |oceQnet |    182 |      0 | 0.00000E+00 |
    84 |oceFWflx|    183 |      0 | 0.00000E+00 |
    85 |oceSflux|    184 |      0 | 0.00000E+00 |
------------------------------------------------------------------------
(PID.TID 0000.0001) DEBUG_MSG: CALLING S/R GAD_INIT_VARIA
(PID.TID 0000.0001) DEBUG_MSG: CALLING S/R KPP_INIT_VARIA
(PID.TID 0000.0001) DEBUG_MSG: CALLING S/R FRAZIL_INIT_VARIA
(PID.TID 0000.0001) DEBUG_MSG: LEAVING S/R PACKAGES_INIT_VARIABLES
(PID.TID 0000.0001) DEBUG_MSG: CALLING S/R INTEGR_CONTINUITY
(PID.TID 0000.0001) DEBUG_MSG: CALLING S/R UPDATE_ETAH
(PID.TID 0000.0001) DEBUG_MSG: CALLING S/R STATE_SUMMARY
(PID.TID 0000.0001) // =======================================================
(PID.TID 0000.0001) // Model current state
(PID.TID 0000.0001) // =======================================================
(PID.TID 0000.0001) 
(PID.TID 0000.0001) DEBUG_MSG: CALLING S/R MONITOR
(PID.TID 0000.0001) // =======================================================
(PID.TID 0000.0001) // Begin MONITOR dynamic field statistics
(PID.TID 0000.0001) // =======================================================
(PID.TID 0000.0001) %MON time_tsnumber                =                731520
(PID.TID 0000.0001) %MON time_secondsf                =   2.1945600000000E+08
(PID.TID 0000.0001) %MON dynstat_eta_max              =   1.0270729387105E+01
(PID.TID 0000.0001) %MON dynstat_eta_min              =  -1.2470926088993E+01
(PID.TID 0000.0001) %MON dynstat_eta_mean             =   1.8074695545056E-01
(PID.TID 0000.0001) %MON dynstat_eta_sd               =   7.7944988745118E-01
(PID.TID 0000.0001) %MON dynstat_eta_del2             =   3.8855457190818E-05
(PID.TID 0000.0001) %MON dynstat_uvel_max             =   5.7484025900592E+00
(PID.TID 0000.0001) %MON dynstat_uvel_min             =  -5.9265037883521E+00
(PID.TID 0000.0001) %MON dynstat_uvel_mean            =   3.6960087785313E-03
(PID.TID 0000.0001) %MON dynstat_uvel_sd              =   5.8321830005650E-02
(PID.TID 0000.0001) %MON dynstat_uvel_del2            =   1.2383352635683E-06
(PID.TID 0000.0001) %MON dynstat_vvel_max             =   6.7432493481106E+00
(PID.TID 0000.0001) %MON dynstat_vvel_min             =  -4.8644730179015E+00
(PID.TID 0000.0001) %MON dynstat_vvel_mean            =   6.3794575623040E-04
(PID.TID 0000.0001) %MON dynstat_vvel_sd              =   6.0782070961759E-02
(PID.TID 0000.0001) %MON dynstat_vvel_del2            =   1.2323414872794E-06
(PID.TID 0000.0001) %MON dynstat_wvel_max             =   1.4143293410666E-01
(PID.TID 0000.0001) %MON dynstat_wvel_min             =  -7.3301946431513E-02
(PID.TID 0000.0001) %MON dynstat_wvel_mean            =  -4.2977190418018E-21
(PID.TID 0000.0001) %MON dynstat_wvel_sd              =   1.4543136328065E-03
(PID.TID 0000.0001) %MON dynstat_wvel_del2            =   4.8820464123192E-08
(PID.TID 0000.0001) %MON dynstat_theta_max            =   4.1757953224881E+01
(PID.TID 0000.0001) %MON dynstat_theta_min            =  -2.9414464718303E+00
(PID.TID 0000.0001) %MON dynstat_theta_mean           =   3.6451534842067E+00
(PID.TID 0000.0001) %MON dynstat_theta_sd             =   4.4273809632957E+00
(PID.TID 0000.0001) %MON dynstat_theta_del2           =   6.2291465514649E-06
(PID.TID 0000.0001) %MON dynstat_salt_max             =   7.7723866602921E+01
(PID.TID 0000.0001) %MON dynstat_salt_min             =   5.5631766713458E+00
(PID.TID 0000.0001) %MON dynstat_salt_mean            =   3.4722423528094E+01
(PID.TID 0000.0001) %MON dynstat_salt_sd              =   4.3989689492032E-01
(PID.TID 0000.0001) %MON dynstat_salt_del2            =   1.4256396398039E-06
(PID.TID 0000.0001) %MON dynstat_sst_max              =   3.1748299917680E+01
(PID.TID 0000.0001) %MON dynstat_sst_min              =  -2.9116473532397E+00
(PID.TID 0000.0001) %MON dynstat_sst_mean             =   1.7891451795679E+01
(PID.TID 0000.0001) %MON dynstat_sst_sd               =   9.9348859165100E+00
(PID.TID 0000.0001) %MON dynstat_sst_del2             =   5.8341261281755E-05
(PID.TID 0000.0001) %MON dynstat_sss_max              =   7.7720910985586E+01
(PID.TID 0000.0001) %MON dynstat_sss_min              =   5.5631766713458E+00
(PID.TID 0000.0001) %MON dynstat_sss_mean             =   3.4470296140312E+01
(PID.TID 0000.0001) %MON dynstat_sss_sd               =   1.6896155773080E+00
(PID.TID 0000.0001) %MON dynstat_sss_del2             =   2.2562798994336E-05
(PID.TID 0000.0001) %MON forcing_qnet_max             =   0.0000000000000E+00
(PID.TID 0000.0001) %MON forcing_qnet_min             =   0.0000000000000E+00
(PID.TID 0000.0001) %MON forcing_qnet_mean            =   0.0000000000000E+00
(PID.TID 0000.0001) %MON forcing_qnet_sd              =   0.0000000000000E+00
(PID.TID 0000.0001) %MON forcing_qnet_del2            =   0.0000000000000E+00
(PID.TID 0000.0001) %MON forcing_qsw_max              =   0.0000000000000E+00
(PID.TID 0000.0001) %MON forcing_qsw_min              =   0.0000000000000E+00
(PID.TID 0000.0001) %MON forcing_qsw_mean             =   0.0000000000000E+00
(PID.TID 0000.0001) %MON forcing_qsw_sd               =   0.0000000000000E+00
(PID.TID 0000.0001) %MON forcing_qsw_del2             =   0.0000000000000E+00
(PID.TID 0000.0001) %MON forcing_empmr_max            =   0.0000000000000E+00
(PID.TID 0000.0001) %MON forcing_empmr_min            =   0.0000000000000E+00
(PID.TID 0000.0001) %MON forcing_empmr_mean           =   0.0000000000000E+00
(PID.TID 0000.0001) %MON forcing_empmr_sd             =   0.0000000000000E+00
(PID.TID 0000.0001) %MON forcing_empmr_del2           =   0.0000000000000E+00
(PID.TID 0000.0001) %MON forcing_fu_max               =   0.0000000000000E+00
(PID.TID 0000.0001) %MON forcing_fu_min               =   0.0000000000000E+00
(PID.TID 0000.0001) %MON forcing_fu_mean              =   0.0000000000000E+00
(PID.TID 0000.0001) %MON forcing_fu_sd                =   0.0000000000000E+00
(PID.TID 0000.0001) %MON forcing_fu_del2              =   0.0000000000000E+00
(PID.TID 0000.0001) %MON forcing_fv_max               =   0.0000000000000E+00
(PID.TID 0000.0001) %MON forcing_fv_min               =   0.0000000000000E+00
(PID.TID 0000.0001) %MON forcing_fv_mean              =   0.0000000000000E+00
(PID.TID 0000.0001) %MON forcing_fv_sd                =   0.0000000000000E+00
(PID.TID 0000.0001) %MON forcing_fv_del2              =   0.0000000000000E+00
(PID.TID 0000.0001) %MON trAdv_CFL_u_max              =   0.0000000000000E+00
(PID.TID 0000.0001) %MON trAdv_CFL_v_max              =   0.0000000000000E+00
(PID.TID 0000.0001) %MON trAdv_CFL_w_max              =   0.0000000000000E+00
(PID.TID 0000.0001) %MON advcfl_uvel_max              =   6.2740881554760E-01
(PID.TID 0000.0001) %MON advcfl_vvel_max              =   5.0505473716913E-01
(PID.TID 0000.0001) %MON advcfl_wvel_max              =   1.1718522186768E+00
(PID.TID 0000.0001) %MON advcfl_W_hf_max              =   9.3843412811979E-01
(PID.TID 0000.0001) %MON pe_b_mean                    =   8.4786289521130E-04
(PID.TID 0000.0001) %MON ke_max                       =   2.7675751022302E+01
(PID.TID 0000.0001) %MON ke_mean                      =   3.5071256580802E-03
(PID.TID 0000.0001) %MON ke_vol                       =   1.3321941752083E+18
(PID.TID 0000.0001) %MON vort_r_min                   =  -3.8540866546278E-03
(PID.TID 0000.0001) %MON vort_r_max                   =   3.0879463193094E-03
(PID.TID 0000.0001) %MON vort_a_mean                  =  -1.9843068470673E-05
(PID.TID 0000.0001) %MON vort_a_sd                    =   7.4709120544854E-05
(PID.TID 0000.0001) %MON vort_p_mean                  =  -2.0738617268288E-05
(PID.TID 0000.0001) %MON vort_p_sd                    =   8.3554957145470E-05
(PID.TID 0000.0001) %MON surfExpan_theta_mean         =   4.8119575578565E-05
(PID.TID 0000.0001) %MON surfExpan_salt_mean          =   1.4789800181605E-06
(PID.TID 0000.0001) // =======================================================
(PID.TID 0000.0001) // End MONITOR dynamic field statistics
(PID.TID 0000.0001) // =======================================================
(PID.TID 0000.0001) DEBUG_MSG: CALLING S/R DO_THE_MODEL_IO
(PID.TID 0000.0001) // =======================================================
(PID.TID 0000.0001) // Field Current uVel   at iteration     731520
(PID.TID 0000.0001) // CMIN =         -2.450000951026399E-01
(PID.TID 0000.0001) // CMAX =         -1.525724912469905E-02
(PID.TID 0000.0001) // CINT =          8.508994295479291E-03
(PID.TID 0000.0001) // SYMBOLS (CMIN->CMAX): -abcdefghijklmnopqrstuvwxyz+
(PID.TID 0000.0001) //                  0.0: .
(PID.TID 0000.0001) // RANGE I (Lo:Hi:Step):(     1:    60:     1)
(PID.TID 0000.0001) // RANGE J (Lo:Hi:Step):(    60:     1:    -1)
(PID.TID 0000.0001) // RANGE K (Lo:Hi:Step):(   1:   1:   1)
(PID.TID 0000.0001) // =======================================================
(PID.TID 0000.0001) K =   1
(PID.TID 0000.0001)                I=10      I=20      I=30      I=40      I=50      I=60
(PID.TID 0000.0001) |--J--|123456789|123456789|123456789|123456789|123456789|123456789|
(PID.TID 0000.0001)     60 iffegijnqstuuvvvvvvusrqrqqqq................................
(PID.TID 0000.0001)     59 edccfjnqtuvvvvvvvutrstvutsu.................................
(PID.TID 0000.0001)     58 jihghjlmprssrrsrqpsuuvvtrru.................................
(PID.TID 0000.0001)     57 mkhfdegijlpponnnpsstuvvuqv..................................
(PID.TID 0000.0001)     56 vtspmkkjea-agkknrqrstuvv....................................
(PID.TID 0000.0001)     55 +xxyyywtrlhekffqsrqsvvww....................................
(PID.TID 0000.0001)     54 ........+zzx.......zyyy.....................................
(PID.TID 0000.0001)     53 ............................................................
(PID.TID 0000.0001)     52 ............................................................
(PID.TID 0000.0001)     51 ............................................................
(PID.TID 0000.0001)     50 ............................................................
(PID.TID 0000.0001)     49 ............................................................
(PID.TID 0000.0001)     48 ............................................................
(PID.TID 0000.0001)     47 ............................................................
(PID.TID 0000.0001)     46 ............................................................
(PID.TID 0000.0001)     45 ............................................................
(PID.TID 0000.0001)     44 ............................................................
(PID.TID 0000.0001)     43 ............................................................
(PID.TID 0000.0001)     42 ............................................................
(PID.TID 0000.0001)     41 ............................................................
(PID.TID 0000.0001)     40 ............................................................
(PID.TID 0000.0001)     39 ............................................................
(PID.TID 0000.0001)     38 ............................................................
(PID.TID 0000.0001)     37 ............................................................
(PID.TID 0000.0001)     36 ............................................................
(PID.TID 0000.0001)     35 ............................................................
(PID.TID 0000.0001)     34 ............................................................
(PID.TID 0000.0001)     33 ............................................................
(PID.TID 0000.0001)     32 ............................................................
(PID.TID 0000.0001)     31 ............................................................
(PID.TID 0000.0001)     30 ............................................................
(PID.TID 0000.0001)     29 ............................................................
(PID.TID 0000.0001)     28 ............................................................
(PID.TID 0000.0001)     27 ............................................................
(PID.TID 0000.0001)     26 ............................................................
(PID.TID 0000.0001)     25 ............................................................
(PID.TID 0000.0001)     24 ............................................................
(PID.TID 0000.0001)     23 ............................................................
(PID.TID 0000.0001)     22 ............................................................
(PID.TID 0000.0001)     21 ............................................................
(PID.TID 0000.0001)     20 ............................................................
(PID.TID 0000.0001)     19 ............................................................
(PID.TID 0000.0001)     18 ............................................................
(PID.TID 0000.0001)     17 ............................................................
(PID.TID 0000.0001)     16 ............................................................
(PID.TID 0000.0001)     15 ............................................................
(PID.TID 0000.0001)     14 ............................................................
(PID.TID 0000.0001)     13 ............................................................
(PID.TID 0000.0001)     12 ............................................................
(PID.TID 0000.0001)     11 ............................................................
(PID.TID 0000.0001)     10 ............................................................
(PID.TID 0000.0001)      9 ............................................................
(PID.TID 0000.0001)      8 ............................................................
(PID.TID 0000.0001)      7 ............................................................
(PID.TID 0000.0001)      6 ............................................................
(PID.TID 0000.0001)      5 ............................................................
(PID.TID 0000.0001)      4 ............................................................
(PID.TID 0000.0001)      3 ............................................................
(PID.TID 0000.0001)      2 ............................................................
(PID.TID 0000.0001)      1 ............................................................
(PID.TID 0000.0001) // =======================================================
(PID.TID 0000.0001) // END OF FIELD                                          =
(PID.TID 0000.0001) // =======================================================
(PID.TID 0000.0001) 
(PID.TID 0000.0001) // =======================================================
(PID.TID 0000.0001) // Field Current vVel   at iteration     731520
(PID.TID 0000.0001) // CMIN =         -8.088474333660793E-02
(PID.TID 0000.0001) // CMAX =          1.674310240890459E-01
(PID.TID 0000.0001) // CINT =          9.196880275024214E-03
(PID.TID 0000.0001) // SYMBOLS (CMIN->CMAX): -abcdefghijklmnopqrstuvwxyz+
(PID.TID 0000.0001) //                  0.0: .
(PID.TID 0000.0001) // RANGE I (Lo:Hi:Step):(     1:    60:     1)
(PID.TID 0000.0001) // RANGE J (Lo:Hi:Step):(    60:     1:    -1)
(PID.TID 0000.0001) // RANGE K (Lo:Hi:Step):(   1:   1:   1)
(PID.TID 0000.0001) // =======================================================
(PID.TID 0000.0001) K =   1
(PID.TID 0000.0001)                I=10      I=20      I=30      I=40      I=50      I=60
(PID.TID 0000.0001) |--J--|123456789|123456789|123456789|123456789|123456789|123456789|
(PID.TID 0000.0001)     60 kjihhikigffeeddcbba--bbbbb-.................................
(PID.TID 0000.0001)     59 ihhijkljhhhgggfecbcddcbbbdf.................................
(PID.TID 0000.0001)     58 lllllkklkihiihhgegfedcbbee..................................
(PID.TID 0000.0001)     57 nooonllnomhhkmliihgfeedb....................................
(PID.TID 0000.0001)     56 llnopqsw++vrqomkjiihhggg....................................
(PID.TID 0000.0001)     55 ..m....pppol....m.qmkih.....................................
(PID.TID 0000.0001)     54 ............................................................
(PID.TID 0000.0001)     53 ............................................................
(PID.TID 0000.0001)     52 ............................................................
(PID.TID 0000.0001)     51 ............................................................
(PID.TID 0000.0001)     50 ............................................................
(PID.TID 0000.0001)     49 ............................................................
(PID.TID 0000.0001)     48 ............................................................
(PID.TID 0000.0001)     47 ............................................................
(PID.TID 0000.0001)     46 ............................................................
(PID.TID 0000.0001)     45 ............................................................
(PID.TID 0000.0001)     44 ............................................................
(PID.TID 0000.0001)     43 ............................................................
(PID.TID 0000.0001)     42 ............................................................
(PID.TID 0000.0001)     41 ............................................................
(PID.TID 0000.0001)     40 ............................................................
(PID.TID 0000.0001)     39 ............................................................
(PID.TID 0000.0001)     38 ............................................................
(PID.TID 0000.0001)     37 ............................................................
(PID.TID 0000.0001)     36 ............................................................
(PID.TID 0000.0001)     35 ............................................................
(PID.TID 0000.0001)     34 ............................................................
(PID.TID 0000.0001)     33 ............................................................
(PID.TID 0000.0001)     32 ............................................................
(PID.TID 0000.0001)     31 ............................................................
(PID.TID 0000.0001)     30 ............................................................
(PID.TID 0000.0001)     29 ............................................................
(PID.TID 0000.0001)     28 ............................................................
(PID.TID 0000.0001)     27 ............................................................
(PID.TID 0000.0001)     26 ............................................................
(PID.TID 0000.0001)     25 ............................................................
(PID.TID 0000.0001)     24 ............................................................
(PID.TID 0000.0001)     23 ............................................................
(PID.TID 0000.0001)     22 ............................................................
(PID.TID 0000.0001)     21 ............................................................
(PID.TID 0000.0001)     20 ............................................................
(PID.TID 0000.0001)     19 ............................................................
(PID.TID 0000.0001)     18 ............................................................
(PID.TID 0000.0001)     17 ............................................................
(PID.TID 0000.0001)     16 ............................................................
(PID.TID 0000.0001)     15 ............................................................
(PID.TID 0000.0001)     14 ............................................................
(PID.TID 0000.0001)     13 ............................................................
(PID.TID 0000.0001)     12 ............................................................
(PID.TID 0000.0001)     11 ............................................................
(PID.TID 0000.0001)     10 ............................................................
(PID.TID 0000.0001)      9 ............................................................
(PID.TID 0000.0001)      8 ............................................................
(PID.TID 0000.0001)      7 ............................................................
(PID.TID 0000.0001)      6 ............................................................
(PID.TID 0000.0001)      5 ............................................................
(PID.TID 0000.0001)      4 ............................................................
(PID.TID 0000.0001)      3 ............................................................
(PID.TID 0000.0001)      2 ............................................................
(PID.TID 0000.0001)      1 ............................................................
(PID.TID 0000.0001) // =======================================================
(PID.TID 0000.0001) // END OF FIELD                                          =
(PID.TID 0000.0001) // =======================================================
(PID.TID 0000.0001) 
(PID.TID 0000.0001) // =======================================================
(PID.TID 0000.0001) // Field Current theta  at iteration     731520
(PID.TID 0000.0001) // CMIN =         -1.825160993509397E+00
(PID.TID 0000.0001) // CMAX =          5.576578077027747E+00
(PID.TID 0000.0001) // CINT =          2.741384840939683E-01
(PID.TID 0000.0001) // SYMBOLS (CMIN->CMAX): -abcdefghijklmnopqrstuvwxyz+
(PID.TID 0000.0001) //                  0.0: .
(PID.TID 0000.0001) // RANGE I (Lo:Hi:Step):(     1:    60:     1)
(PID.TID 0000.0001) // RANGE J (Lo:Hi:Step):(    60:     1:    -1)
(PID.TID 0000.0001) // RANGE K (Lo:Hi:Step):(   1:   1:   1)
(PID.TID 0000.0001) // =======================================================
(PID.TID 0000.0001) K =   1
(PID.TID 0000.0001)                I=10      I=20      I=30      I=40      I=50      I=60
(PID.TID 0000.0001) |--J--|123456789|123456789|123456789|123456789|123456789|123456789|
(PID.TID 0000.0001)     60 ----------------------------................................
(PID.TID 0000.0001)     59 ---------------------------.................................
(PID.TID 0000.0001)     58 ---------------------------.................................
(PID.TID 0000.0001)     57 --------------------------..................................
(PID.TID 0000.0001)     56 -------------a----------....................................
(PID.TID 0000.0001)     55 ------------ac-aa-------....................................
(PID.TID 0000.0001)     54 ..-...+-----...o-.-----.....................................
(PID.TID 0000.0001)     53 ............................................................
(PID.TID 0000.0001)     52 ............................................................
(PID.TID 0000.0001)     51 ............................................................
(PID.TID 0000.0001)     50 ............................................................
(PID.TID 0000.0001)     49 ............................................................
(PID.TID 0000.0001)     48 ............................................................
(PID.TID 0000.0001)     47 ............................................................
(PID.TID 0000.0001)     46 ............................................................
(PID.TID 0000.0001)     45 ............................................................
(PID.TID 0000.0001)     44 ............................................................
(PID.TID 0000.0001)     43 ............................................................
(PID.TID 0000.0001)     42 ............................................................
(PID.TID 0000.0001)     41 ............................................................
(PID.TID 0000.0001)     40 ............................................................
(PID.TID 0000.0001)     39 ............................................................
(PID.TID 0000.0001)     38 ............................................................
(PID.TID 0000.0001)     37 ............................................................
(PID.TID 0000.0001)     36 ............................................................
(PID.TID 0000.0001)     35 ............................................................
(PID.TID 0000.0001)     34 ............................................................
(PID.TID 0000.0001)     33 ............................................................
(PID.TID 0000.0001)     32 ............................................................
(PID.TID 0000.0001)     31 ............................................................
(PID.TID 0000.0001)     30 ............................................................
(PID.TID 0000.0001)     29 ............................................................
(PID.TID 0000.0001)     28 ............................................................
(PID.TID 0000.0001)     27 ............................................................
(PID.TID 0000.0001)     26 ............................................................
(PID.TID 0000.0001)     25 ............................................................
(PID.TID 0000.0001)     24 ............................................................
(PID.TID 0000.0001)     23 ............................................................
(PID.TID 0000.0001)     22 ............................................................
(PID.TID 0000.0001)     21 ............................................................
(PID.TID 0000.0001)     20 ............................................................
(PID.TID 0000.0001)     19 ............................................................
(PID.TID 0000.0001)     18 ............................................................
(PID.TID 0000.0001)     17 ............................................................
(PID.TID 0000.0001)     16 ............................................................
(PID.TID 0000.0001)     15 ............................................................
(PID.TID 0000.0001)     14 ............................................................
(PID.TID 0000.0001)     13 ............................................................
(PID.TID 0000.0001)     12 ............................................................
(PID.TID 0000.0001)     11 ............................................................
(PID.TID 0000.0001)     10 ............................................................
(PID.TID 0000.0001)      9 ............................................................
(PID.TID 0000.0001)      8 ............................................................
(PID.TID 0000.0001)      7 ............................................................
(PID.TID 0000.0001)      6 ............................................................
(PID.TID 0000.0001)      5 ............................................................
(PID.TID 0000.0001)      4 ............................................................
(PID.TID 0000.0001)      3 ............................................................
(PID.TID 0000.0001)      2 ............................................................
(PID.TID 0000.0001)      1 ............................................................
(PID.TID 0000.0001) // =======================================================
(PID.TID 0000.0001) // END OF FIELD                                          =
(PID.TID 0000.0001) // =======================================================
(PID.TID 0000.0001) 
(PID.TID 0000.0001) // =======================================================
(PID.TID 0000.0001) // Field Current etaN   at iteration     731520
(PID.TID 0000.0001) // CMIN =         -4.349592951461725E+00
(PID.TID 0000.0001) // CMAX =         -3.659273250715859E-01
(PID.TID 0000.0001) // CINT =          1.475431713477829E-01
(PID.TID 0000.0001) // SYMBOLS (CMIN->CMAX): -abcdefghijklmnopqrstuvwxyz+
(PID.TID 0000.0001) //                  0.0: .
(PID.TID 0000.0001) // RANGE I (Lo:Hi:Step):(    -7:    68:     1)
(PID.TID 0000.0001) // RANGE J (Lo:Hi:Step):(    68:    -7:    -1)
(PID.TID 0000.0001) // RANGE K (Lo:Hi:Step):(   1:   1:   1)
(PID.TID 0000.0001) // =======================================================
(PID.TID 0000.0001) K =   1
(PID.TID 0000.0001)                I=2       I=12      I=22      I=32      I=42      I=52      I=62
(PID.TID 0000.0001) |--J--|765432101|345678901|345678901|345678901|345678901|345678901|345678901|345678
(PID.TID 0000.0001)     68 yyyyxwwvuuvwssvuuuvvvutttutsrqqqqpoopqrrsrsstvxu............................
(PID.TID 0000.0001)     67 xyyxvuutwuuuvssuuuuttsstuutsrqqqpopqrstttttuxymm............................
(PID.TID 0000.0001)     66 xxvwtuquvswwoortttsssssttttsrrrqppqrsttuuuwwtjm.............................
(PID.TID 0000.0001)     65 xwuvspwtpuxqnnqttttssssttttssrrqpqrsttuuu+xpilm.............................
(PID.TID 0000.0001)     64 xuurtsrrstnmmnostttssssttttssrrqqrrrrrpns+vgkls.............................
(PID.TID 0000.0001)     63 wuqvpuowunmmmnnprstssssttttsssrrrqqqpqtv...ij...............................
(PID.TID 0000.0001)     62 vtsotuuntmmmmmmmoqsssssttttsssrrrqppty......................................
(PID.TID 0000.0001)     61 utrrtrpwqnonnnmlmorssssstttsssssssstu.......................................
(PID.TID 0000.0001)     60 uttsqvrrrponnnppoqrssssstttttttttttt........................................
(PID.TID 0000.0001)     59 vuvtrwsqtrrrqstsssssssssttttttttssq.........................................
(PID.TID 0000.0001)     58 xwuutsttttttuuuuutsttttuvwtttsrqplk.........................................
(PID.TID 0000.0001)     57 zyxvuutuutsstuuuuuutuuwxuqqnokhffi..........................................
(PID.TID 0000.0001)     56 yyxvuuuuuuuttvvtruwvu+zrbbabcdfg............................................
(PID.TID 0000.0001)     55 yyxvvuuuuuuvwzzxyzzzu+taa-acdffi............................................
(PID.TID 0000.0001)     54 ..........v...sgffgi...sl.eddfi.............................................
(PID.TID 0000.0001)     53 ............................................................................
(PID.TID 0000.0001)     52 ............................................................................
(PID.TID 0000.0001)     51 ............................................................................
(PID.TID 0000.0001)     50 ............................................................................
(PID.TID 0000.0001)     49 ............................................................................
(PID.TID 0000.0001)     48 ............................................................................
(PID.TID 0000.0001)     47 ............................................................................
(PID.TID 0000.0001)     46 ............................................................................
(PID.TID 0000.0001)     45 ............................................................................
(PID.TID 0000.0001)     44 ............................................................................
(PID.TID 0000.0001)     43 ............................................................................
(PID.TID 0000.0001)     42 ............................................................................
(PID.TID 0000.0001)     41 ............................................................................
(PID.TID 0000.0001)     40 ............................................................................
(PID.TID 0000.0001)     39 ............................................................................
(PID.TID 0000.0001)     38 ............................................................................
(PID.TID 0000.0001)     37 ............................................................................
(PID.TID 0000.0001)     36 ............................................................................
(PID.TID 0000.0001)     35 ............................................................................
(PID.TID 0000.0001)     34 ............................................................................
(PID.TID 0000.0001)     33 ............................................................................
(PID.TID 0000.0001)     32 ............................................................................
(PID.TID 0000.0001)     31 ............................................................................
(PID.TID 0000.0001)     30 ............................................................................
(PID.TID 0000.0001)     29 ............................................................................
(PID.TID 0000.0001)     28 ............................................................................
(PID.TID 0000.0001)     27 ............................................................................
(PID.TID 0000.0001)     26 ............................................................................
(PID.TID 0000.0001)     25 ............................................................................
(PID.TID 0000.0001)     24 ............................................................................
(PID.TID 0000.0001)     23 ............................................................................
(PID.TID 0000.0001)     22 ............................................................................
(PID.TID 0000.0001)     21 ............................................................................
(PID.TID 0000.0001)     20 ............................................................................
(PID.TID 0000.0001)     19 ............................................................................
(PID.TID 0000.0001)     18 ............................................................................
(PID.TID 0000.0001)     17 ............................................................................
(PID.TID 0000.0001)     16 ............................................................................
(PID.TID 0000.0001)     15 ............................................................................
(PID.TID 0000.0001)     14 ............................................................................
(PID.TID 0000.0001)     13 ............................................................................
(PID.TID 0000.0001)     12 ............................................................................
(PID.TID 0000.0001)     11 ............................................................................
(PID.TID 0000.0001)     10 ............................................................................
(PID.TID 0000.0001)      9 ............................................................................
(PID.TID 0000.0001)      8 ............................................................................
(PID.TID 0000.0001)      7 ............................................................................
(PID.TID 0000.0001)      6 ............................................................................
(PID.TID 0000.0001)      5 ............................................................................
(PID.TID 0000.0001)      4 ............................................................................
(PID.TID 0000.0001)      3 ............................................................................
(PID.TID 0000.0001)      2 ............................................................................
(PID.TID 0000.0001)      1 ............................................................................
(PID.TID 0000.0001)      0 ............................................................................
(PID.TID 0000.0001)     -1 ............................................................................
(PID.TID 0000.0001)     -2 ............................................................................
(PID.TID 0000.0001)     -3 ............................................................................
(PID.TID 0000.0001)     -4 ............................................................................
(PID.TID 0000.0001)     -5 ............................................................................
(PID.TID 0000.0001)     -6 ............................................................................
(PID.TID 0000.0001)     -7 ............................................................................
(PID.TID 0000.0001) // =======================================================
(PID.TID 0000.0001) // END OF FIELD                                          =
(PID.TID 0000.0001) // =======================================================
(PID.TID 0000.0001) 
(PID.TID 0000.0001)  MDS_WRITE_FIELD: it,rec,kS,kL,kH=  731520     1  90   1  90 file=U.0000731520
(PID.TID 0000.0001)  MDS_WRITE_FIELD: it,rec,kS,kL,kH=  731520     1  90   1  90 file=V.0000731520
(PID.TID 0000.0001)  MDS_WRITE_FIELD: it,rec,kS,kL,kH=  731520     1  90   1  90 file=T.0000731520
(PID.TID 0000.0001)  MDS_WRITE_FIELD: it,rec,kS,kL,kH=  731520     1  90   1  90 file=S.0000731520
(PID.TID 0000.0001)  MDS_WRITE_FIELD: it,rec,kS,kL,kH=  731520     1   1   1   1 file=Eta.0000731520
(PID.TID 0000.0001)  MDS_WRITE_FIELD: it,rec,kS,kL,kH=  731520     1  90   1  90 file=W.0000731520
(PID.TID 0000.0001) DEBUG_MSG: LEAVING S/R INITIALISE_VARIA
   Integer*4 Resource Parameter INTERPOLATE_SST:           0
   Integer*4 Resource Parameter BYPASS_OGCM:           0
 Freq: 000500  Dur: 000500  TM:   -1  Collection: geosgcm_prog
 Freq: 000500  Dur: 000500  TM:   -1  Collection: geosgcm_surf
 Freq: 000500  Dur: 000500  TM:   -1  Collection: mit_ocn
 Freq: 000500  Dur: 000500  TM:   -1  Collection: mit_ice
 Freq: 000500  Dur: 000500  TM:   -1  Collection: mit_ice_all
 Freq: 000500  Dur: 000500  TM:   -1  Collection: mit_snow_all
      Real*4 Resource Parameter ALPHA:    0.00000    
      Real*4 Resource Parameter BETA:    1.00000    
      Real*4 Resource Parameter ALPHAQ:    0.00000    
      Real*4 Resource Parameter BETAQ:    1.00000    
      Real*4 Resource Parameter ALPHAO:    0.00000    
      Real*4 Resource Parameter BETAO:    1.00000    
      Real*4 Resource Parameter TAUANL:    21600.0    
   Integer*4 Resource Parameter IS_FCST:           0
   Integer*4 Resource Parameter CONSTRAIN_DAS:           1
   Character Resource Parameter ANA_IS_WEIGHTED: NO
   Integer*4 Resource Parameter CONSV:           1
   Integer*4 Resource Parameter FILL:           0
   Character Resource Parameter DPEDT_PHYS: YES
      Real*4 Resource Parameter DOPHYSICS:    1.00000    
   Integer*4 Resource Parameter PGWV:           4
      Real*4 Resource Parameter EFFGWORO:   0.250000    
      Real*4 Resource Parameter EFFGWBKG:   0.125000    
      Real*4 Resource Parameter EFFORONH:    1.00000    
      Real*4 Resource Parameter EFFOROSH:    2.50000    
      Real*4 Resource Parameter RAYLEIGH_Z1:    75000.0    
      Real*4 Resource Parameter RAYLEIGH_TAU1:    172800.    
      Real*4 Resource Parameter RAYLEIGH_H0:    7000.00    
      Real*4 Resource Parameter RAYLEIGH_HH:    7500.00    
   Integer*4 Resource Parameter CLEANUP_RH:           1
      Real*4 Resource Parameter CUFRICFAC:    1.00000    
      Real*4 Resource Parameter SHR_LAMBDA_FAC:   0.500000E-01
      Real*4 Resource Parameter AUTOC_CN:   0.250000E-02
      Real*4 Resource Parameter AUTO_CNV:    1.00000    
      Real*4 Resource Parameter LCCIRRUS:    500.000    
      Real*4 Resource Parameter UISCALE:    1.00000    
      Real*4 Resource Parameter OVERSHOOT_FRAC:    0.00000    
      Real*4 Resource Parameter LIU_MU:    2.00000    
      Real*4 Resource Parameter NPRE_FRAC:    1.00000    
      Real*4 Resource Parameter LTS_LOW:    12.0000    
      Real*4 Resource Parameter LTS_UP:    22.0000    
      Real*4 Resource Parameter MIN_EXP:    1.00000    
      Real*4 Resource Parameter DCRIT_DRIZZLE:    1.00000    
      Real*4 Resource Parameter USE_AV_V:    0.00000    
      Real*4 Resource Parameter TS_AUTO_ICE:    1.50000    
      Real*4 Resource Parameter TMAXLL:    296.000    
      Real*4 Resource Parameter CCNPARAM:    2.00000    
      Real*4 Resource Parameter INPARAM:    5.00000    
      Real*4 Resource Parameter FDROP_DUST:   0.500000    
      Real*4 Resource Parameter FDROP_SOOT:   0.100000E-01
      Real*4 Resource Parameter SIGMA_NUC:   0.280000    
      Real*4 Resource Parameter SS_SCALE:    14.0000    
      Real*4 Resource Parameter MIN_ALH:    300.000    
      Real*4 Resource Parameter USE_NAT_WSUB:    1.00000    
      Real*4 Resource Parameter BKG_TAU:   0.150000E-01
      Real*4 Resource Parameter DCS:   0.350000E-03
      Real*4 Resource Parameter QC_CRIT_CN:   0.800000E-03
      Real*4 Resource Parameter RASAL1:    1800.00    
      Real*4 Resource Parameter RASAL2:    43200.0    
      Real*4 Resource Parameter RASNCL:   -300.000    
      Real*4 Resource Parameter LAMBDA_FAC:    4.00000    
      Real*4 Resource Parameter LAMBMX_FAC:    0.00000    
      Real*4 Resource Parameter MIN_DIAMETER:    200.000    
      Real*4 Resource Parameter CUFRICLAMBDA:   0.750000E-03
      Real*4 Resource Parameter RDTLEXPON:    1.00000    
      Real*4 Resource Parameter STRAPPING:   -1.00000    
      Real*4 Resource Parameter SDQV2:    1.30000    
      Real*4 Resource Parameter SDQV3:    1.30000    
      Real*4 Resource Parameter SDQVT1:    263.000    
      Real*4 Resource Parameter ACRITFAC:   0.500000    
      Real*4 Resource Parameter HMINTRIGGER:    1.00000    
      Real*4 Resource Parameter LLDISAGGXP:    0.00000    
      Real*4 Resource Parameter PBLFRAC:   0.100000    
      Real*4 Resource Parameter RASAUTORAMPB:   0.800000    
      Real*4 Resource Parameter PMIN_DET    3000.00    
      Real*4 Resource Parameter PMIN_CBL    50000.0    
      Real*4 Resource Parameter AUTOC_CN_LAND:   0.250000E-02
      Real*4 Resource Parameter AUTOC_CN_ZDEP:    1.00000    
      Real*4 Resource Parameter MAXDALLOWED_S:    450.000    
      Real*4 Resource Parameter MAXDALLOWED_D:    2000.00    
      Real*4 Resource Parameter RAS_RHMIN:   0.500000    
      Real*4 Resource Parameter RAS_RHFULL:   0.650000    
   Integer*4 Resource Parameter CBL_METHOD:           6
      Real*4 Resource Parameter CBL_TPERT:    1.00000    
      Real*4 Resource Parameter CBL_QPERT:    0.00000    
      Real*4 Resource Parameter CBL_TPERT_MXOCN:    2.00000    
      Real*4 Resource Parameter CBL_TPERT_MXLND:    4.00000    
      Real*4 Resource Parameter CNV_Q600_MIN:   0.250000E-02
      Real*4 Resource Parameter CNV_Q600_MAX:   0.250000E-02
      Real*4 Resource Parameter CNV_BETA:    10.0000    
      Real*4 Resource Parameter ANV_BETA:    4.00000    
      Real*4 Resource Parameter LS_BETA:    4.00000    
      Real*4 Resource Parameter RH_CRIT:    1.00000    
      Real*4 Resource Parameter AUTOC_LS:   0.200000E-02
      Real*4 Resource Parameter QC_CRIT_LS:   0.800000E-03
      Real*4 Resource Parameter ACCRETION:    2.00000    
      Real*4 Resource Parameter RAIN_REVAP_FAC:    1.00000    
      Real*4 Resource Parameter VOL_TO_FRAC:   -1.00000    
      Real*4 Resource Parameter SUPERSAT:    0.00000    
      Real*4 Resource Parameter SHEAR_EVAP_FAC:    1.30000    
      Real*4 Resource Parameter MIN_ALLOW_CCW:   0.100000E-08
      Real*4 Resource Parameter CCW_EVAP_EFF:   0.330000E-03
      Real*4 Resource Parameter NSUB_AUTOCONV:    20.0000    
      Real*4 Resource Parameter LS_SUND_INTER:    4.80000    
      Real*4 Resource Parameter LS_SUND_COLD:    4.80000    
      Real*4 Resource Parameter LS_SUND_TEMP1:    230.000    
      Real*4 Resource Parameter ANV_SUND_INTER:    1.00000    
      Real*4 Resource Parameter ANV_SUND_COLD:    1.00000    
      Real*4 Resource Parameter ANV_SUND_TEMP1:    230.000    
      Real*4 Resource Parameter ANV_TO_LS_TIME:    14400.0    
      Real*4 Resource Parameter NCCN_WARM:    50.0000    
      Real*4 Resource Parameter NCCN_ICE:   0.100000E-01
      Real*4 Resource Parameter NCCN_ANVIL:   0.100000    
      Real*4 Resource Parameter NCCN_PBL:    200.000    
      Real*4 Resource Parameter DISABLE_RAD:    0.00000    
      Real*4 Resource Parameter ICE_SETTLE:    0.00000    
      Real*4 Resource Parameter ANV_ICEFALL:   0.500000    
      Real*4 Resource Parameter LS_ICEFALL:   0.500000    
      Real*4 Resource Parameter REVAP_OFF_P:    2000.00    
      Real*4 Resource Parameter WRHODEP:   0.500000    
      Real*4 Resource Parameter ICE_RAMP:   -40.0000    
      Real*4 Resource Parameter CNV_ICEPARAM:    1.00000    
      Real*4 Resource Parameter CNV_ICEFRPWR:    4.00000    
      Real*4 Resource Parameter CNV_DDRF:    0.00000    
      Real*4 Resource Parameter ANV_DDRF:    0.00000    
      Real*4 Resource Parameter LS_DDRF:    0.00000    
      Real*4 Resource Parameter AUTOC_ANV:   0.100000E-02
      Real*4 Resource Parameter QC_CRIT_ANV:   0.800000E-03
      Real*4 Resource Parameter TANHRHCRIT:    1.00000    
      Real*4 Resource Parameter MINRHCRIT:   0.970000    
      Real*4 Resource Parameter MAXRHCRIT:    1.00000    
      Real*4 Resource Parameter PRECIPRAD:    0.00000    
      Real*4 Resource Parameter MAXRHCRITLAND:   0.980000    
      Real*4 Resource Parameter SNOW_REVAP_FAC:    1.00000    
      Real*4 Resource Parameter CNV_ENVF:   0.800000    
      Real*4 Resource Parameter SCLMFDFR:    1.00000    
      Real*4 Resource Parameter TURNRHCRIT:    750.000    
      Real*4 Resource Parameter MOVE2RAS:    1.00000    
      Real*4 Resource Parameter FR_LS_WAT:    1.00000    
      Real*4 Resource Parameter FR_LS_ICE:    1.00000    
      Real*4 Resource Parameter FR_AN_WAT:    0.00000    
      Real*4 Resource Parameter FR_AN_ICE:    0.00000    
      Real*4 Resource Parameter MIN_RL:   0.100000E-04
      Real*4 Resource Parameter MIN_RI:   0.200000E-04
      Real*4 Resource Parameter MAX_RL:   0.210000E-04
      Real*4 Resource Parameter MAX_RI:   0.400000E-04
      Real*4 Resource Parameter RI_ANV:   0.300000E-04
      Real*4 Resource Parameter PDFSHAPE:    1.00000    
      Real*4 Resource Parameter TURNRHCRIT_UP:    300.000    
      Real*4 Resource Parameter RSUB_RADIUS:   0.100000E-02
      Real*4 Resource Parameter MARINE_A0:   0.139868E-01
      Real*4 Resource Parameter MARINE_A1:   0.358764E-01
      Real*4 Resource Parameter MARINE_A2:  -0.610214E-01
      Real*4 Resource Parameter MARINE_A3:  -0.102320E-01
      Real*4 Resource Parameter MARINE_A4:   0.313520E-02
      Real*4 Resource Parameter MARINE_A5:   0.346241E-01
      Real*4 Resource Parameter CONTINENT_A0:  -0.183172E-01
      Real*4 Resource Parameter CONTINENT_A1:  -0.562338E-01
      Real*4 Resource Parameter CONTINENT_A2:   0.186274    
      Real*4 Resource Parameter CONTINENT_A3:  -0.233630E-02
      Real*4 Resource Parameter CONTINENT_A4:  -0.138380E-02
      Real*4 Resource Parameter CONTINENT_A5:   0.114759E-01
      Real*4 Resource Parameter X1_DIVISOR:    4.36000    
      Real*4 Resource Parameter X2_DIVISOR:    9.27000    
      Real*4 Resource Parameter X3_DIVISOR:    34.4000    
      Real*4 Resource Parameter X4_DIVISOR:    21.4000    
      Real*4 Resource Parameter X5_DIVISOR:    14600.0    
      Real*4 Resource Parameter X5_EXPONENT:    3.00000    
      Real*4 Resource Parameter SFC_T_LIMIT:    273.000    
      Real*4 Resource Parameter AIR_T_LIMIT:    263.000    
      Real*4 Resource Parameter CLOUD_TOP_LIMIT:    500.000    
   Integer*4 Resource Parameter CHOOSEMOSFC:           1
   Integer*4 Resource Parameter INTERPOLATE_ATMLM:           0
   Integer*4 Resource Parameter CHOOSEZ0:           3
      Real*4 Resource Parameter OCEANICEZ0:   0.100000E-02
      Real*4 Resource Parameter OCEANZ0:   0.100000E-02
      Real*4 Resource Parameter ICEZ0:   0.500000E-03
   Character Resource Parameter LAI_FILE: lai.data
   Character Resource Parameter GREEN_FILE: green.data
   Integer*4 Resource Parameter PARALLEL_READFORCING:           1
      Real*4 Resource Parameter SCALE4Z0:    2.00000    
      Real*4 Resource Parameter TURBULENCE_LOUIS:    5.00000    
      Real*4 Resource Parameter TURBULENCE_LAMBDAM:    160.000    
      Real*4 Resource Parameter TURBULENCE_LAMBDAM2:    1.00000    
      Real*4 Resource Parameter TURBULENCE_LAMBDAH:    160.000    
      Real*4 Resource Parameter TURBULENCE_LAMBDAH2:    1.00000    
      Real*4 Resource Parameter TURBULENCE_ZKMENV:    3000.00    
      Real*4 Resource Parameter TURBULENCE_ZKHENV:    3000.00    
      Real*4 Resource Parameter TURBULENCE_MINTHICK:   0.100000    
      Real*4 Resource Parameter TURBULENCE_MINSHEAR:   0.300000E-02
      Real*4 Resource Parameter TURBULENCE_C_B:   0.102000E-06
      Real*4 Resource Parameter TURBULENCE_LAMBDA_B:    1500.00    
      Real*4 Resource Parameter TURBULENCE_AKHMMAX:    500.000    
   Integer*4 Resource Parameter TURBULENCE_LOCK_ON:           1
      Real*4 Resource Parameter TURBULENCE_PRANDTLSFC:    1.00000    
      Real*4 Resource Parameter TURBULENCE_PRANDTLRAD:   0.750000    
      Real*4 Resource Parameter TURBULENCE_BETA_RAD:   0.500000    
      Real*4 Resource Parameter TURBULENCE_BETA_SURF:   0.250000    
      Real*4 Resource Parameter TURBULENCE_KHRADFAC:   0.850000    
      Real*4 Resource Parameter TURBULENCE_KHSFCFAC:   0.450000    
      Real*4 Resource Parameter TURBULENCE_TPFAC_SURF:    20.0000    
      Real*4 Resource Parameter TURBULENCE_ENTRATE_SURF:   0.150000E-02
      Real*4 Resource Parameter TURBULENCE_PCEFF_SURF:   0.500000    
      Real*4 Resource Parameter TURBULENCE_LOUIS_MEMORY:   -999.000    
   Integer*4 Resource Parameter TURBULENCE_PBLHT_OPTION:           4
      Real*4 Resource Parameter ECCENTRICITY:   0.167000E-01
      Real*4 Resource Parameter OBLIQUITY:    23.4500    
      Real*4 Resource Parameter PERIHELION:    102.000    
   Integer*4 Resource Parameter EQUINOX:          80
   Character Resource Parameter PRECIP_FILE: null
      Real*4 Resource Parameter SOLAR_CONSTANT:   -1.00000    
   Integer*4 Resource Parameter INTERPOLATE_ATMTAU:           0
      Real*4 Resource Parameter LANDICEEMISS:   0.999990    
      Real*4 Resource Parameter LANDICEALBEDO:   0.580000    
      Real*4 Resource Parameter LANDICEDEPTH:   0.700000E-01
      Real*4 Resource Parameter LANDICECOND:    1.20000    
      Real*4 Resource Parameter LANDICETDEEP:    230.000    
      Real*4 Resource Parameter SURFLAY:    50.0000    
   Character Resource Parameter VISDF_FILE: visdf.dat
   Character Resource Parameter NIRDF_FILE: nirdf.dat
      Real*4 Resource Parameter MAX_SEAICE_DEPTH:   0.700000E-01
      Real*4 Resource Parameter MIN_SEAICE_DEPTH:   0.700000E-01
   Integer*4 Resource Parameter USE_SKIN_LAYER:           0
      Real*4 Resource Parameter MAX_WATER_DEPTH:    20.0000    
      Real*4 Resource Parameter MIN_WATER_DEPTH:   0.500000    
      Real*4 Resource Parameter MU_SKIN:   0.200000    
      Real*4 Resource Parameter STOKES_VELOCITY:   0.100000E-01
   Integer*4 Resource Parameter USE_KPAR:           1
      Real*4 Resource Parameter CICE_EMSICE:   0.999990    
      Real*4 Resource Parameter MAX_SALINITY:    40.0000    
      Real*4 Resource Parameter MIN_SALINITY:    5.00000    
      Real*4 Resource Parameter LATSO:    70.0000    
      Real*4 Resource Parameter LONSO:    70.0000    
      Real*4 Resource Parameter CICE_FRZMLT_MAX:    1000.00    
   Integer*4 Resource Parameter DIAG_ICE_BUDGET:           0
   Integer*4 Resource Parameter COOL_SKIN_LAYER_ITERATIONS           3
      Real*4 Resource Parameter THRESHOLD_ICE_FR_SST:   0.150000    
      Real*4 Resource Parameter FRESH_NEW_ICE_MIN_SALINITY:    5.00000    
      Real*4 Resource Parameter CICE_ICE_THICKNESS_THRESH:    1.50000    
      Real*4 Resource Parameter CICE_ICE_ARTIFICIAL_MELT:   0.100000    
      Real*4 Resource Parameter SHVC_EFFECT:    0.00000    
      Real*4 Resource Parameter CH4_FIXED_VALUE:   -1.00000    
      Real*4 Resource Parameter CH4_RELAXTIME:    259200.    
      Real*4 Resource Parameter CH4_DELP:    5000.00    
      Real*4 Resource Parameter CH4_PCRIT:   0.100000E+17
      Real*4 Resource Parameter N2O_FIXED_VALUE:   -1.00000    
      Real*4 Resource Parameter N2O_RELAXTIME:    259200.    
      Real*4 Resource Parameter N2O_DELP:    5000.00    
      Real*4 Resource Parameter N2O_PCRIT:   0.100000E+17
      Real*4 Resource Parameter CFC11_FIXED_VALUE:   -1.00000    
      Real*4 Resource Parameter CFC11_RELAXTIME:    259200.    
      Real*4 Resource Parameter CFC11_DELP:    5000.00    
      Real*4 Resource Parameter CFC11_PCRIT:   0.100000E+17
      Real*4 Resource Parameter CFC12_FIXED_VALUE:   -1.00000    
      Real*4 Resource Parameter CFC12_RELAXTIME:    259200.    
      Real*4 Resource Parameter CFC12_DELP:    5000.00    
      Real*4 Resource Parameter CFC12_PCRIT:   0.100000E+17
      Real*4 Resource Parameter HCFC22_FIXED_VALUE:   -1.00000    
      Real*4 Resource Parameter HCFC22_RELAXTIME:    259200.    
      Real*4 Resource Parameter HCFC22_DELP:    5000.00    
      Real*4 Resource Parameter HCFC22_PCRIT:   0.100000E+17
      Real*4 Resource Parameter OX_FIXED_VALUE:   -1.00000    
      Real*4 Resource Parameter OX_RELAXTIME:    259200.    
      Real*4 Resource Parameter OX_DELP:    5000.00    
      Real*4 Resource Parameter OX_PCRIT:   0.100000E+17
      Real*4 Resource Parameter H2O_RELAXTIME:    259200.    
      Real*4 Resource Parameter H2O_DELP:    5000.00    
      Real*4 Resource Parameter H2O_PCRIT:    20000.0    
      Real*4 Resource Parameter PRS_LOW_MID_CLOUDS:    70000.0    
      Real*4 Resource Parameter PRS_MID_HIGH_CLOUDS:    40000.0    
      Real*4 Resource Parameter CO2:   -1.00000    
   Integer*4 Resource Parameter SUN_FLAG:           0
   Integer*4 Resource Parameter SOLAR_LOAD_BALANCE:           1
   Integer*4 Resource Parameter CALLED_LAST:           1
      Real*4 Resource Parameter TAUCRIT:   0.100000    
   Character Resource Parameter KPAR_FILE: SEAWIFS_KPAR_mon_clim.data
      Real*4 Resource Parameter MIT_TAU_MIN:    60.0000    
      Real*4 Resource Parameter MIT_TAU_MAX:    86400.0    
      Real*4 Resource Parameter MIT_M3:    1.00000    
      Real*4 Resource Parameter MIT_SKINH:    2.00000    
   Integer*4 Resource Parameter STEADY_STATE_OCEAN:           1
(PID.TID 0000.0001) DEBUG_MSG: ENTERED S/R FORWARD_STEP
(PID.TID 0000.0001) DEBUG_MSG: CALLING S/R LOAD_FIELDS_DRIVER
(PID.TID 0000.0001) DEBUG_MSG: ENTERED S/R LOAD_FIELDS_DRIVER
(PID.TID 0000.0001) DEBUG_MSG: CALLING S/R EXTERNAL_FIELDS_LOAD
(PID.TID 0000.0001) DEBUG_MSG: LEAVING S/R LOAD_FIELDS_DRIVER
(PID.TID 0000.0001) DEBUG_MSG: CALLING S/R DO_ATMOSPHERIC_PHYS
(PID.TID 0000.0001) DEBUG_MSG: ENTERED S/R DO_ATMOSPHERIC_PHYS
(PID.TID 0000.0001) DEBUG_MSG: LEAVING S/R DO_ATMOSPHERIC_PHYS
(PID.TID 0000.0001) DEBUG_MSG: CALLING S/R DO_OCEANIC_PHYS
(PID.TID 0000.0001) DEBUG_MSG: ENTERED S/R DO_OCEANIC_PHYS
(PID.TID 0000.0001) DEBUG_MSG: CALLING S/R EXTERNAL_FORCING_SURF
(PID.TID 0000.0001) DEBUG_MSG: CALLING S/R FIND_RHO_2D (xNr)
(PID.TID 0000.0001) DEBUG_MSG:                  ENTERING UPWARD K LOOP (bi=   1, bj=   1)
(PID.TID 0000.0001) DEBUG_MSG: CALLING S/R KPP_CALC
(PID.TID 0000.0001) DEBUG_MSG: LEAVING S/R DO_OCEANIC_PHYS
(PID.TID 0000.0001) DEBUG_MSG: CALLING S/R DYNAMICS
(PID.TID 0000.0001) DEBUG_MSG: ENTERED S/R DYNAMICS
DEBUG_STATS_RL:                EtaN (DYNAMICS)  min= -1.24709260889934E+01
DEBUG_STATS_RL:                EtaN (DYNAMICS)  max=  1.02707293871047E+01
DEBUG_STATS_RL:                EtaN (DYNAMICS) mean= -2.68767874095688E-01
DEBUG_STATS_RL:                EtaN (DYNAMICS) S.D.=  9.96384948260256E-01
DEBUG_STATS_RL:                Uvel (DYNAMICS)  min= -5.92650378835205E+00
DEBUG_STATS_RL:                Uvel (DYNAMICS)  max=  5.74840259005916E+00
DEBUG_STATS_RL:                Uvel (DYNAMICS) mean=  5.69709390116817E-03
DEBUG_STATS_RL:                Uvel (DYNAMICS) S.D.=  1.06846896782567E-01
DEBUG_STATS_RL:                Vvel (DYNAMICS)  min= -4.86447301790151E+00
DEBUG_STATS_RL:                Vvel (DYNAMICS)  max=  6.74324934811059E+00
DEBUG_STATS_RL:                Vvel (DYNAMICS) mean=  4.95050719367976E-03
DEBUG_STATS_RL:                Vvel (DYNAMICS) S.D.=  1.10692877779668E-01
DEBUG_STATS_RL:                Wvel (DYNAMICS)  min= -7.33019464315133E-02
DEBUG_STATS_RL:                Wvel (DYNAMICS)  max=  1.41432934106663E-01
DEBUG_STATS_RL:                Wvel (DYNAMICS) mean= -1.01018898810361E-06
DEBUG_STATS_RL:                Wvel (DYNAMICS) S.D.=  1.07607016671739E-03
DEBUG_STATS_RL:               Theta (DYNAMICS)  min= -1.69194901630670E+01
DEBUG_STATS_RL:               Theta (DYNAMICS)  max=  4.17579532248814E+01
DEBUG_STATS_RL:               Theta (DYNAMICS) mean=  6.42456407077198E+00
DEBUG_STATS_RL:               Theta (DYNAMICS) S.D.=  7.78734722091025E+00
DEBUG_STATS_RL:                Salt (DYNAMICS)  min=  5.26862743701794E+00
DEBUG_STATS_RL:                Salt (DYNAMICS)  max=  2.95593144064072E+02
DEBUG_STATS_RL:                Salt (DYNAMICS) mean=  3.45444901101685E+01
DEBUG_STATS_RL:                Salt (DYNAMICS) S.D.=  1.03265379917124E+00
DEBUG_STATS_RL:                  Gu (DYNAMICS)  min= -5.82443132315884E+00
DEBUG_STATS_RL:                  Gu (DYNAMICS)  max=  4.86467904849385E+00
DEBUG_STATS_RL:                  Gu (DYNAMICS) mean=  5.39998303608096E-03
DEBUG_STATS_RL:                  Gu (DYNAMICS) S.D.=  1.02225527760440E-01
DEBUG_STATS_RL:                  Gv (DYNAMICS)  min= -4.95799377287369E+00
DEBUG_STATS_RL:                  Gv (DYNAMICS)  max=  5.53509441897087E+00
DEBUG_STATS_RL:                  Gv (DYNAMICS) mean=  5.21501849419653E-03
DEBUG_STATS_RL:                  Gv (DYNAMICS) S.D.=  1.06133854142006E-01
DEBUG_STATS_RL:               GuNm1 (DYNAMICS)  min= -3.30953359373574E-03
DEBUG_STATS_RL:               GuNm1 (DYNAMICS)  max=  4.06048870847389E-03
DEBUG_STATS_RL:               GuNm1 (DYNAMICS) mean= -6.10678377377964E-07
DEBUG_STATS_RL:               GuNm1 (DYNAMICS) S.D.=  1.06514900190415E-05
DEBUG_STATS_RL:               GvNm1 (DYNAMICS)  min= -3.86664372807203E-03
DEBUG_STATS_RL:               GvNm1 (DYNAMICS)  max=  3.72450619780310E-03
DEBUG_STATS_RL:               GvNm1 (DYNAMICS) mean=  5.41789743218757E-07
DEBUG_STATS_RL:               GvNm1 (DYNAMICS) S.D.=  1.05343602933734E-05
DEBUG_STATS_RL:               GtNm1 (DYNAMICS)  min=  0.00000000000000E+00
DEBUG_STATS_RL:               GtNm1 (DYNAMICS)  max=  0.00000000000000E+00
DEBUG_STATS_RL:               GtNm1 (DYNAMICS) mean=  0.00000000000000E+00
DEBUG_STATS_RL:               GtNm1 (DYNAMICS) S.D.=  0.00000000000000E+00
DEBUG_STATS_RL:               GsNm1 (DYNAMICS)  min=  0.00000000000000E+00
DEBUG_STATS_RL:               GsNm1 (DYNAMICS)  max=  0.00000000000000E+00
DEBUG_STATS_RL:               GsNm1 (DYNAMICS) mean=  0.00000000000000E+00
DEBUG_STATS_RL:               GsNm1 (DYNAMICS) S.D.=  0.00000000000000E+00
(PID.TID 0000.0001) DEBUG_MSG: LEAVING S/R DYNAMICS
(PID.TID 0000.0001) SOLVE_FOR_PRESSURE: putPmEinXvector =    F
DEBUG_STATS_RL:    cg2d_b (SOLVE_FOR_PRESSURE)  min= -8.84521653206848E+03
DEBUG_STATS_RL:    cg2d_b (SOLVE_FOR_PRESSURE)  max=  7.44261984723359E+03
DEBUG_STATS_RL:    cg2d_b (SOLVE_FOR_PRESSURE) mean= -8.15910347755338E+01
DEBUG_STATS_RL:    cg2d_b (SOLVE_FOR_PRESSURE) S.D.=  4.52144499917404E+02
 cg2d: Sum(rhs),rhsMax =  -8.12611500308154E+04  1.16146662523082E+00
(PID.TID 0000.0001)  cg2d: iter=     1 ; resid.=  2.96320373943812E+02
(PID.TID 0000.0001)  cg2d: iter=     2 ; resid.=  1.54844208550143E+02
(PID.TID 0000.0001)  cg2d: iter=     3 ; resid.=  8.99685198033497E+01
(PID.TID 0000.0001)  cg2d: iter=     4 ; resid.=  5.81376819741716E+01
(PID.TID 0000.0001)  cg2d: iter=     5 ; resid.=  4.17891908912534E+01
(PID.TID 0000.0001)  cg2d: iter=     6 ; resid.=  3.35288515315435E+01
(PID.TID 0000.0001)  cg2d: iter=     7 ; resid.=  2.88097600101806E+01
(PID.TID 0000.0001)  cg2d: iter=     8 ; resid.=  2.50219802657840E+01
(PID.TID 0000.0001)  cg2d: iter=     9 ; resid.=  2.10686429035384E+01
(PID.TID 0000.0001)  cg2d: iter=    10 ; resid.=  1.75322091986126E+01
(PID.TID 0000.0001)  cg2d: iter=    11 ; resid.=  1.52720341920298E+01
(PID.TID 0000.0001)  cg2d: iter=    12 ; resid.=  1.36476194209565E+01
(PID.TID 0000.0001)  cg2d: iter=    13 ; resid.=  1.24273129211683E+01
(PID.TID 0000.0001)  cg2d: iter=    14 ; resid.=  1.14374629608886E+01
(PID.TID 0000.0001)  cg2d: iter=    15 ; resid.=  1.02424279351259E+01
(PID.TID 0000.0001)  cg2d: iter=    16 ; resid.=  8.96514414100036E+00
(PID.TID 0000.0001)  cg2d: iter=    17 ; resid.=  7.94974276252976E+00
(PID.TID 0000.0001)  cg2d: iter=    18 ; resid.=  7.28500818488860E+00
(PID.TID 0000.0001)  cg2d: iter=    19 ; resid.=  6.74391800302917E+00
(PID.TID 0000.0001)  cg2d: iter=    20 ; resid.=  6.28069687083755E+00
(PID.TID 0000.0001)  cg2d: iter=    21 ; resid.=  5.78242324748231E+00
(PID.TID 0000.0001)  cg2d: iter=    22 ; resid.=  5.20354272276363E+00
(PID.TID 0000.0001)  cg2d: iter=    23 ; resid.=  4.73445505885179E+00
(PID.TID 0000.0001)  cg2d: iter=    24 ; resid.=  4.46857341558947E+00
(PID.TID 0000.0001)  cg2d: iter=    25 ; resid.=  4.26502712209428E+00
(PID.TID 0000.0001)  cg2d: iter=    26 ; resid.=  3.93775880272652E+00
(PID.TID 0000.0001)  cg2d: iter=    27 ; resid.=  3.58701141662311E+00
(PID.TID 0000.0001)  cg2d: iter=    28 ; resid.=  3.34353118744706E+00
(PID.TID 0000.0001)  cg2d: iter=    29 ; resid.=  3.11266622027030E+00
(PID.TID 0000.0001)  cg2d: iter=    30 ; resid.=  2.91714904383734E+00
(PID.TID 0000.0001)  cg2d: iter=    31 ; resid.=  2.77631385164912E+00
(PID.TID 0000.0001)  cg2d: iter=    32 ; resid.=  2.61863860850334E+00
(PID.TID 0000.0001)  cg2d: iter=    33 ; resid.=  2.40791375461840E+00
(PID.TID 0000.0001)  cg2d: iter=    34 ; resid.=  2.23520979520257E+00
(PID.TID 0000.0001)  cg2d: iter=    35 ; resid.=  2.09380749275302E+00
(PID.TID 0000.0001)  cg2d: iter=    36 ; resid.=  1.96041322027766E+00
(PID.TID 0000.0001)  cg2d: iter=    37 ; resid.=  1.86209073369916E+00
(PID.TID 0000.0001)  cg2d: iter=    38 ; resid.=  1.77085893249198E+00
(PID.TID 0000.0001)  cg2d: iter=    39 ; resid.=  1.64413749086616E+00
(PID.TID 0000.0001)  cg2d: iter=    40 ; resid.=  1.50095012477222E+00
(PID.TID 0000.0001)  cg2d: iter=    41 ; resid.=  1.39879049782765E+00
(PID.TID 0000.0001)  cg2d: iter=    42 ; resid.=  1.33492280837201E+00
(PID.TID 0000.0001)  cg2d: iter=    43 ; resid.=  1.26051629932615E+00
(PID.TID 0000.0001)  cg2d: iter=    44 ; resid.=  1.16100183778935E+00
(PID.TID 0000.0001)  cg2d: iter=    45 ; resid.=  1.06096340391627E+00
(PID.TID 0000.0001)  cg2d: iter=    46 ; resid.=  9.76361182857762E-01
(PID.TID 0000.0001)  cg2d: iter=    47 ; resid.=  9.13087198463961E-01
(PID.TID 0000.0001)  cg2d: iter=    48 ; resid.=  8.69210191018210E-01
(PID.TID 0000.0001)  cg2d: iter=    49 ; resid.=  8.16013033077199E-01
(PID.TID 0000.0001)  cg2d: iter=    50 ; resid.=  7.55583549745977E-01
(PID.TID 0000.0001)  cg2d: iter=    51 ; resid.=  7.02138420214762E-01
(PID.TID 0000.0001)  cg2d: iter=    52 ; resid.=  6.58370223779778E-01
(PID.TID 0000.0001)  cg2d: iter=    53 ; resid.=  6.14699430606748E-01
(PID.TID 0000.0001)  cg2d: iter=    54 ; resid.=  5.68264657644256E-01
(PID.TID 0000.0001)  cg2d: iter=    55 ; resid.=  5.32324331125010E-01
(PID.TID 0000.0001)  cg2d: iter=    56 ; resid.=  5.04101241993778E-01
(PID.TID 0000.0001)  cg2d: iter=    57 ; resid.=  4.73697052469060E-01
(PID.TID 0000.0001)  cg2d: iter=    58 ; resid.=  4.40719230882472E-01
(PID.TID 0000.0001)  cg2d: iter=    59 ; resid.=  4.09863753424296E-01
(PID.TID 0000.0001)  cg2d: iter=    60 ; resid.=  3.85741333721117E-01
(PID.TID 0000.0001)  cg2d: iter=    61 ; resid.=  3.67055509262057E-01
(PID.TID 0000.0001)  cg2d: iter=    62 ; resid.=  3.46589266516881E-01
(PID.TID 0000.0001)  cg2d: iter=    63 ; resid.=  3.19698887887994E-01
(PID.TID 0000.0001)  cg2d: iter=    64 ; resid.=  2.94554321005962E-01
(PID.TID 0000.0001)  cg2d: iter=    65 ; resid.=  2.73856944662111E-01
(PID.TID 0000.0001)  cg2d: iter=    66 ; resid.=  2.59656956620056E-01
(PID.TID 0000.0001)  cg2d: iter=    67 ; resid.=  2.47679049671021E-01
(PID.TID 0000.0001)  cg2d: iter=    68 ; resid.=  2.33537615247647E-01
(PID.TID 0000.0001)  cg2d: iter=    69 ; resid.=  2.15076365765936E-01
(PID.TID 0000.0001)  cg2d: iter=    70 ; resid.=  1.99061283185875E-01
(PID.TID 0000.0001)  cg2d: iter=    71 ; resid.=  1.88655929262233E-01
(PID.TID 0000.0001)  cg2d: iter=    72 ; resid.=  1.79578421612515E-01
(PID.TID 0000.0001)  cg2d: iter=    73 ; resid.=  1.69370740610835E-01
(PID.TID 0000.0001)  cg2d: iter=    74 ; resid.=  1.57414409873589E-01
(PID.TID 0000.0001)  cg2d: iter=    75 ; resid.=  1.45444958229546E-01
(PID.TID 0000.0001)  cg2d: iter=    76 ; resid.=  1.35530846345497E-01
(PID.TID 0000.0001)  cg2d: iter=    77 ; resid.=  1.27834219843771E-01
(PID.TID 0000.0001)  cg2d: iter=    78 ; resid.=  1.20970651954740E-01
(PID.TID 0000.0001)  cg2d: iter=    79 ; resid.=  1.13750956265160E-01
(PID.TID 0000.0001)  cg2d: iter=    80 ; resid.=  1.06108243801943E-01
(PID.TID 0000.0001)  cg2d: iter=    81 ; resid.=  9.83089607290918E-02
(PID.TID 0000.0001)  cg2d: iter=    82 ; resid.=  9.10011062321562E-02
(PID.TID 0000.0001)  cg2d: iter=    83 ; resid.=  8.53793849512063E-02
(PID.TID 0000.0001)  cg2d: iter=    84 ; resid.=  8.10453514075655E-02
(PID.TID 0000.0001)  cg2d: iter=    85 ; resid.=  7.66268074713747E-02
(PID.TID 0000.0001)  cg2d: iter=    86 ; resid.=  7.10879227955284E-02
(PID.TID 0000.0001)  cg2d: iter=    87 ; resid.=  6.59653429340350E-02
(PID.TID 0000.0001)  cg2d: iter=    88 ; resid.=  6.14428221139069E-02
(PID.TID 0000.0001)  cg2d: iter=    89 ; resid.=  5.83902806846929E-02
(PID.TID 0000.0001)  cg2d: iter=    90 ; resid.=  5.55037731452831E-02
(PID.TID 0000.0001)  cg2d: iter=    91 ; resid.=  5.20035820533136E-02
(PID.TID 0000.0001)  cg2d: iter=    92 ; resid.=  4.81656957575617E-02
(PID.TID 0000.0001)  cg2d: iter=    93 ; resid.=  4.49189090708858E-02
(PID.TID 0000.0001)  cg2d: iter=    94 ; resid.=  4.23661610497283E-02
(PID.TID 0000.0001)  cg2d: iter=    95 ; resid.=  4.00121132262299E-02
(PID.TID 0000.0001)  cg2d: iter=    96 ; resid.=  3.77356056157981E-02
(PID.TID 0000.0001)  cg2d: iter=    97 ; resid.=  3.53940886553217E-02
(PID.TID 0000.0001)  cg2d: iter=    98 ; resid.=  3.31514161243745E-02
(PID.TID 0000.0001)  cg2d: iter=    99 ; resid.=  3.09969331407527E-02
(PID.TID 0000.0001)  cg2d: iter=   100 ; resid.=  2.92211927044915E-02
DEBUG_STATS_RL:    cg2d_x (SOLVE_FOR_PRESSURE)  min= -1.20473970043361E+02
DEBUG_STATS_RL:    cg2d_x (SOLVE_FOR_PRESSURE)  max=  1.00755854122045E+02
DEBUG_STATS_RL:    cg2d_x (SOLVE_FOR_PRESSURE) mean= -2.64400412949192E+00
DEBUG_STATS_RL:    cg2d_x (SOLVE_FOR_PRESSURE) S.D.=  9.67784029953147E+00
(PID.TID 0000.0001)      cg2d_init_res =   7.60490104932474E+02
(PID.TID 0000.0001)      cg2d_iters(min,last) =      -1     100
(PID.TID 0000.0001)      cg2d_last_res =   2.92211927044915E-02
(PID.TID 0000.0001) DEBUG_MSG: CALLING S/R UPDATE_ETAH
(PID.TID 0000.0001) DEBUG_MSG: CALLING S/R DO_STAGGER_FIELDS_EXCH.
(PID.TID 0000.0001) DEBUG_MSG: CALLING S/R THERMODYNAMICS
(PID.TID 0000.0001) DEBUG_MSG: ENTERED S/R THERMODYNAMICS
(PID.TID 0000.0001) DEBUG_MSG: CALLING S/R TEMP_INTEGRATE
(PID.TID 0000.0001) DEBUG_MSG: CALLING S/R GAD_ADVECTION
(PID.TID 0000.0001) DEBUG_MSG: CALLING S/R SALT_INTEGRATE
(PID.TID 0000.0001) DEBUG_MSG: CALLING S/R GAD_ADVECTION
DEBUG_STATS_RL:          Uvel (THERMODYNAMICS)  min= -5.75153482534644E+00
DEBUG_STATS_RL:          Uvel (THERMODYNAMICS)  max=  4.76807593820319E+00
DEBUG_STATS_RL:          Uvel (THERMODYNAMICS) mean=  5.79675350994042E-03
DEBUG_STATS_RL:          Uvel (THERMODYNAMICS) S.D.=  1.02493198279399E-01
DEBUG_STATS_RL:          Vvel (THERMODYNAMICS)  min= -4.93407012738194E+00
DEBUG_STATS_RL:          Vvel (THERMODYNAMICS)  max=  5.59535651139830E+00
DEBUG_STATS_RL:          Vvel (THERMODYNAMICS) mean=  4.90215452401415E-03
DEBUG_STATS_RL:          Vvel (THERMODYNAMICS) S.D.=  1.06272471355877E-01
DEBUG_STATS_RL:          Wvel (THERMODYNAMICS)  min= -8.25003076480247E-02
DEBUG_STATS_RL:          Wvel (THERMODYNAMICS)  max=  1.34255247702360E-01
DEBUG_STATS_RL:          Wvel (THERMODYNAMICS) mean= -5.16538110578262E-07
DEBUG_STATS_RL:          Wvel (THERMODYNAMICS) S.D.=  1.12335052750530E-03
DEBUG_STATS_RL:         Theta (THERMODYNAMICS)  min= -1.69194901630670E+01
DEBUG_STATS_RL:         Theta (THERMODYNAMICS)  max=  6.52553153497846E+01
DEBUG_STATS_RL:         Theta (THERMODYNAMICS) mean=  6.24503598313193E+00
DEBUG_STATS_RL:         Theta (THERMODYNAMICS) S.D.=  7.51171366404999E+00
DEBUG_STATS_RL:          Salt (THERMODYNAMICS)  min=  5.26862743701794E+00
DEBUG_STATS_RL:          Salt (THERMODYNAMICS)  max=  2.95593144064072E+02
DEBUG_STATS_RL:          Salt (THERMODYNAMICS) mean=  3.45718890447110E+01
DEBUG_STATS_RL:          Salt (THERMODYNAMICS) S.D.=  9.57289208406464E-01
DEBUG_STATS_RL:         GtNm1 (THERMODYNAMICS)  min=  0.00000000000000E+00
DEBUG_STATS_RL:         GtNm1 (THERMODYNAMICS)  max=  0.00000000000000E+00
DEBUG_STATS_RL:         GtNm1 (THERMODYNAMICS) mean=  0.00000000000000E+00
DEBUG_STATS_RL:         GtNm1 (THERMODYNAMICS) S.D.=  0.00000000000000E+00
DEBUG_STATS_RL:         GsNm1 (THERMODYNAMICS)  min=  0.00000000000000E+00
DEBUG_STATS_RL:         GsNm1 (THERMODYNAMICS)  max=  0.00000000000000E+00
DEBUG_STATS_RL:         GsNm1 (THERMODYNAMICS) mean=  0.00000000000000E+00
DEBUG_STATS_RL:         GsNm1 (THERMODYNAMICS) S.D.=  0.00000000000000E+00
(PID.TID 0000.0001) DEBUG_MSG: LEAVING S/R THERMODYNAMICS
(PID.TID 0000.0001) // =======================================================
(PID.TID 0000.0001) // Begin MONITOR dynamic field statistics
(PID.TID 0000.0001) // =======================================================
(PID.TID 0000.0001) %MON time_tsnumber                =                731521
(PID.TID 0000.0001) %MON time_secondsf                =   2.1945630000000E+08
(PID.TID 0000.0001) %MON dynstat_eta_max              =   1.0270729268301E+01
(PID.TID 0000.0001) %MON dynstat_eta_min              =  -1.2280747752801E+01
(PID.TID 0000.0001) %MON dynstat_eta_mean             =   1.7997363079562E-01
(PID.TID 0000.0001) %MON dynstat_eta_sd               =   7.7750344183667E-01
(PID.TID 0000.0001) %MON dynstat_eta_del2             =   6.4430531069243E-06
(PID.TID 0000.0001) %MON dynstat_uvel_max             =   4.7680759382032E+00
(PID.TID 0000.0001) %MON dynstat_uvel_min             =  -5.7515348253464E+00
(PID.TID 0000.0001) %MON dynstat_uvel_mean            =   3.6304027786907E-03
(PID.TID 0000.0001) %MON dynstat_uvel_sd              =   5.6787277339128E-02
(PID.TID 0000.0001) %MON dynstat_uvel_del2            =   1.2754655987734E-06
(PID.TID 0000.0001) %MON dynstat_vvel_max             =   5.5953565113983E+00
(PID.TID 0000.0001) %MON dynstat_vvel_min             =  -4.9340701273819E+00
(PID.TID 0000.0001) %MON dynstat_vvel_mean            =   6.5416905142217E-04
(PID.TID 0000.0001) %MON dynstat_vvel_sd              =   5.9231164665565E-02
(PID.TID 0000.0001) %MON dynstat_vvel_del2            =   1.2695306874105E-06
(PID.TID 0000.0001) %MON dynstat_wvel_max             =   1.3425524770236E-01
(PID.TID 0000.0001) %MON dynstat_wvel_min             =  -8.2500307648025E-02
(PID.TID 0000.0001) %MON dynstat_wvel_mean            =  -1.4094669975802E-20
(PID.TID 0000.0001) %MON dynstat_wvel_sd              =   1.4777584511647E-03
(PID.TID 0000.0001) %MON dynstat_wvel_del2            =   6.1750456658666E-08
(PID.TID 0000.0001) %MON dynstat_theta_max            =   6.5255315349785E+01
(PID.TID 0000.0001) %MON dynstat_theta_min            =  -3.0238588701670E+00
(PID.TID 0000.0001) %MON dynstat_theta_mean           =   3.6452373291740E+00
(PID.TID 0000.0001) %MON dynstat_theta_sd             =   4.3100717114324E+00
(PID.TID 0000.0001) %MON dynstat_theta_del2           =   4.6709198995286E-05
(PID.TID 0000.0001) %MON dynstat_salt_max             =   7.7723726334492E+01
(PID.TID 0000.0001) %MON dynstat_salt_min             =   8.4741365573101E+00
(PID.TID 0000.0001) %MON dynstat_salt_mean            =   3.4722540105103E+01
(PID.TID 0000.0001) %MON dynstat_salt_sd              =   4.3214232124163E-01
(PID.TID 0000.0001) %MON dynstat_salt_del2            =   6.4052322155887E-06
(PID.TID 0000.0001) %MON dynstat_sst_max              =   6.5255315349785E+01
(PID.TID 0000.0001) %MON dynstat_sst_min              =  -3.0238588701670E+00
(PID.TID 0000.0001) %MON dynstat_sst_mean             =   1.7107132592174E+01
(PID.TID 0000.0001) %MON dynstat_sst_sd               =   9.7447241758686E+00
(PID.TID 0000.0001) %MON dynstat_sst_del2             =   5.6747853301874E-04
(PID.TID 0000.0001) %MON dynstat_sss_max              =   7.7448088483554E+01
(PID.TID 0000.0001) %MON dynstat_sss_min              =   8.4741365573101E+00
(PID.TID 0000.0001) %MON dynstat_sss_mean             =   3.4602434839750E+01
(PID.TID 0000.0001) %MON dynstat_sss_sd               =   1.5787557800262E+00
(PID.TID 0000.0001) %MON dynstat_sss_del2             =   1.0057126762404E-04
(PID.TID 0000.0001) %MON forcing_qnet_max             =   2.7497971875000E+05
(PID.TID 0000.0001) %MON forcing_qnet_min             =  -3.2515743750000E+05
(PID.TID 0000.0001) %MON forcing_qnet_mean            =  -4.2432545023470E+03
(PID.TID 0000.0001) %MON forcing_qnet_sd              =   1.7138174871717E+04
(PID.TID 0000.0001) %MON forcing_qnet_del2            =   3.1327789453725E+00
(PID.TID 0000.0001) %MON forcing_qsw_max              =   0.0000000000000E+00
(PID.TID 0000.0001) %MON forcing_qsw_min              =   0.0000000000000E+00
(PID.TID 0000.0001) %MON forcing_qsw_mean             =   0.0000000000000E+00
(PID.TID 0000.0001) %MON forcing_qsw_sd               =   0.0000000000000E+00
(PID.TID 0000.0001) %MON forcing_qsw_del2             =   0.0000000000000E+00
(PID.TID 0000.0001) %MON forcing_empmr_max            =   4.1666669845581E+00
(PID.TID 0000.0001) %MON forcing_empmr_min            =  -1.9489309787750E+00
(PID.TID 0000.0001) %MON forcing_empmr_mean           =   2.6486369431779E-03
(PID.TID 0000.0001) %MON forcing_empmr_sd             =   1.0095795627011E-01
(PID.TID 0000.0001) %MON forcing_empmr_del2           =   2.9171316691789E-05
(PID.TID 0000.0001) %MON forcing_fu_max               =   1.5598747134209E+00
(PID.TID 0000.0001) %MON forcing_fu_min               =  -1.2117989063264E+00
(PID.TID 0000.0001) %MON forcing_fu_mean              =   1.6932841385166E-02
(PID.TID 0000.0001) %MON forcing_fu_sd                =   1.5986009721897E-01
(PID.TID 0000.0001) %MON forcing_fu_del2              =   2.2210679315288E-06
(PID.TID 0000.0001) %MON forcing_fv_max               =   1.3342811465263E+00
(PID.TID 0000.0001) %MON forcing_fv_min               =  -1.6999086895144E+00
(PID.TID 0000.0001) %MON forcing_fv_mean              =  -2.5763368986383E-03
(PID.TID 0000.0001) %MON forcing_fv_sd                =   1.5830868632593E-01
(PID.TID 0000.0001) %MON forcing_fv_del2              =   1.8091025978487E-06
(PID.TID 0000.0001) %MON trAdv_CFL_u_max              =   5.9891343602754E-01
(PID.TID 0000.0001) %MON trAdv_CFL_v_max              =   4.4915934843314E-01
(PID.TID 0000.0001) %MON trAdv_CFL_w_max              =   6.9700378563015E+00
(PID.TID 0000.0001) %MON advcfl_uvel_max              =   5.9896426694644E-01
(PID.TID 0000.0001) %MON advcfl_vvel_max              =   4.4956424961707E-01
(PID.TID 0000.0001) %MON advcfl_wvel_max              =   1.3940075712603E+01
(PID.TID 0000.0001) %MON advcfl_W_hf_max              =   6.8640359388176E+00
(PID.TID 0000.0001) %MON pe_b_mean                    =   8.4347999339874E-04
(PID.TID 0000.0001) %MON ke_max                       =   1.8611631241370E+01
(PID.TID 0000.0001) %MON ke_mean                      =   3.3279554445592E-03
(PID.TID 0000.0001) %MON ke_vol                       =   1.3321941752083E+18
(PID.TID 0000.0001) %MON vort_r_min                   =  -3.5836461126360E-03
(PID.TID 0000.0001) %MON vort_r_max                   =   2.7527047634958E-03
(PID.TID 0000.0001) %MON vort_a_mean                  =  -1.9843068471649E-05
(PID.TID 0000.0001) %MON vort_a_sd                    =   7.4708675035094E-05
(PID.TID 0000.0001) %MON vort_p_mean                  =  -2.0738617269309E-05
(PID.TID 0000.0001) %MON vort_p_sd                    =   8.3553493132731E-05
(PID.TID 0000.0001) %MON surfExpan_theta_mean         =   4.6580958568585E-05
(PID.TID 0000.0001) %MON surfExpan_salt_mean          =   1.9766395391210E-06
(PID.TID 0000.0001) // =======================================================
(PID.TID 0000.0001) // End MONITOR dynamic field statistics
(PID.TID 0000.0001) // =======================================================
(PID.TID 0000.0001) // =======================================================
(PID.TID 0000.0001) // Field Current uVel   at iteration     731521
(PID.TID 0000.0001) // CMIN =         -2.228535397089854E-01
(PID.TID 0000.0001) // CMAX =          5.124968008939270E-01
(PID.TID 0000.0001) // CINT =          2.723519780010787E-02
(PID.TID 0000.0001) // SYMBOLS (CMIN->CMAX): -abcdefghijklmnopqrstuvwxyz+
(PID.TID 0000.0001) //                  0.0: .
(PID.TID 0000.0001) // RANGE I (Lo:Hi:Step):(     1:    60:     1)
(PID.TID 0000.0001) // RANGE J (Lo:Hi:Step):(    60:     1:    -1)
(PID.TID 0000.0001) // RANGE K (Lo:Hi:Step):(   1:   1:   1)
(PID.TID 0000.0001) // =======================================================
(PID.TID 0000.0001) K =   1
(PID.TID 0000.0001)                I=10      I=20      I=30      I=40      I=50      I=60
(PID.TID 0000.0001) |--J--|123456789|123456789|123456789|123456789|123456789|123456789|
(PID.TID 0000.0001)     60 cbbabccdefffgggggggffeeeeddd................................
(PID.TID 0000.0001)     59 baaabcdefgggggggggffefffeee.................................
(PID.TID 0000.0001)     58 ccbbbcddeffffffffefffffeegk.................................
(PID.TID 0000.0001)     57 dccbabbccdeeeeeeefffffffg+..................................
(PID.TID 0000.0001)     56 gffedcccb--acddefffffffg....................................
(PID.TID 0000.0001)     55 hggggghhfdbadccfggffgggh....................................
(PID.TID 0000.0001)     54 ........kijq.......fggi.....................................
(PID.TID 0000.0001)     53 ............................................................
(PID.TID 0000.0001)     52 ............................................................
(PID.TID 0000.0001)     51 ............................................................
(PID.TID 0000.0001)     50 ............................................................
(PID.TID 0000.0001)     49 ............................................................
(PID.TID 0000.0001)     48 ............................................................
(PID.TID 0000.0001)     47 ............................................................
(PID.TID 0000.0001)     46 ............................................................
(PID.TID 0000.0001)     45 ............................................................
(PID.TID 0000.0001)     44 ............................................................
(PID.TID 0000.0001)     43 ............................................................
(PID.TID 0000.0001)     42 ............................................................
(PID.TID 0000.0001)     41 ............................................................
(PID.TID 0000.0001)     40 ............................................................
(PID.TID 0000.0001)     39 ............................................................
(PID.TID 0000.0001)     38 ............................................................
(PID.TID 0000.0001)     37 ............................................................
(PID.TID 0000.0001)     36 ............................................................
(PID.TID 0000.0001)     35 ............................................................
(PID.TID 0000.0001)     34 ............................................................
(PID.TID 0000.0001)     33 ............................................................
(PID.TID 0000.0001)     32 ............................................................
(PID.TID 0000.0001)     31 ............................................................
(PID.TID 0000.0001)     30 ............................................................
(PID.TID 0000.0001)     29 ............................................................
(PID.TID 0000.0001)     28 ............................................................
(PID.TID 0000.0001)     27 ............................................................
(PID.TID 0000.0001)     26 ............................................................
(PID.TID 0000.0001)     25 ............................................................
(PID.TID 0000.0001)     24 ............................................................
(PID.TID 0000.0001)     23 ............................................................
(PID.TID 0000.0001)     22 ............................................................
(PID.TID 0000.0001)     21 ............................................................
(PID.TID 0000.0001)     20 ............................................................
(PID.TID 0000.0001)     19 ............................................................
(PID.TID 0000.0001)     18 ............................................................
(PID.TID 0000.0001)     17 ............................................................
(PID.TID 0000.0001)     16 ............................................................
(PID.TID 0000.0001)     15 ............................................................
(PID.TID 0000.0001)     14 ............................................................
(PID.TID 0000.0001)     13 ............................................................
(PID.TID 0000.0001)     12 ............................................................
(PID.TID 0000.0001)     11 ............................................................
(PID.TID 0000.0001)     10 ............................................................
(PID.TID 0000.0001)      9 ............................................................
(PID.TID 0000.0001)      8 ............................................................
(PID.TID 0000.0001)      7 ............................................................
(PID.TID 0000.0001)      6 ............................................................
(PID.TID 0000.0001)      5 ............................................................
(PID.TID 0000.0001)      4 ............................................................
(PID.TID 0000.0001)      3 ............................................................
(PID.TID 0000.0001)      2 ............................................................
(PID.TID 0000.0001)      1 ............................................................
(PID.TID 0000.0001) // =======================================================
(PID.TID 0000.0001) // END OF FIELD                                          =
(PID.TID 0000.0001) // =======================================================
(PID.TID 0000.0001) 
(PID.TID 0000.0001) // =======================================================
(PID.TID 0000.0001) // Field Current vVel   at iteration     731521
(PID.TID 0000.0001) // CMIN =         -7.144617497993190E-01
(PID.TID 0000.0001) // CMAX =          1.481053303974251E-01
(PID.TID 0000.0001) // CINT =          3.194692889617571E-02
(PID.TID 0000.0001) // SYMBOLS (CMIN->CMAX): -abcdefghijklmnopqrstuvwxyz+
(PID.TID 0000.0001) //                  0.0: .
(PID.TID 0000.0001) // RANGE I (Lo:Hi:Step):(     1:    60:     1)
(PID.TID 0000.0001) // RANGE J (Lo:Hi:Step):(    60:     1:    -1)
(PID.TID 0000.0001) // RANGE K (Lo:Hi:Step):(   1:   1:   1)
(PID.TID 0000.0001) // =======================================================
(PID.TID 0000.0001) K =   1
(PID.TID 0000.0001)                I=10      I=20      I=30      I=40      I=50      I=60
(PID.TID 0000.0001) |--J--|123456789|123456789|123456789|123456789|123456789|123456789|
(PID.TID 0000.0001)     60 wwvvvwwvvvuuuuttttsssttttts.................................
(PID.TID 0000.0001)     59 vvvvwwwwvvvvvvuuttttttssssp.................................
(PID.TID 0000.0001)     58 wwwwwwwwwvvvvvvututttsssrh..................................
(PID.TID 0000.0001)     57 xxxxxwwxxwvvwwvvuuttttss....................................
(PID.TID 0000.0001)     56 wxxyyyzz++zyxwwvvuuuttss....................................
(PID.TID 0000.0001)     55 ..y....hggf-....s.rrrrq.....................................
(PID.TID 0000.0001)     54 ............................................................
(PID.TID 0000.0001)     53 ............................................................
(PID.TID 0000.0001)     52 ............................................................
(PID.TID 0000.0001)     51 ............................................................
(PID.TID 0000.0001)     50 ............................................................
(PID.TID 0000.0001)     49 ............................................................
(PID.TID 0000.0001)     48 ............................................................
(PID.TID 0000.0001)     47 ............................................................
(PID.TID 0000.0001)     46 ............................................................
(PID.TID 0000.0001)     45 ............................................................
(PID.TID 0000.0001)     44 ............................................................
(PID.TID 0000.0001)     43 ............................................................
(PID.TID 0000.0001)     42 ............................................................
(PID.TID 0000.0001)     41 ............................................................
(PID.TID 0000.0001)     40 ............................................................
(PID.TID 0000.0001)     39 ............................................................
(PID.TID 0000.0001)     38 ............................................................
(PID.TID 0000.0001)     37 ............................................................
(PID.TID 0000.0001)     36 ............................................................
(PID.TID 0000.0001)     35 ............................................................
(PID.TID 0000.0001)     34 ............................................................
(PID.TID 0000.0001)     33 ............................................................
(PID.TID 0000.0001)     32 ............................................................
(PID.TID 0000.0001)     31 ............................................................
(PID.TID 0000.0001)     30 ............................................................
(PID.TID 0000.0001)     29 ............................................................
(PID.TID 0000.0001)     28 ............................................................
(PID.TID 0000.0001)     27 ............................................................
(PID.TID 0000.0001)     26 ............................................................
(PID.TID 0000.0001)     25 ............................................................
(PID.TID 0000.0001)     24 ............................................................
(PID.TID 0000.0001)     23 ............................................................
(PID.TID 0000.0001)     22 ............................................................
(PID.TID 0000.0001)     21 ............................................................
(PID.TID 0000.0001)     20 ............................................................
(PID.TID 0000.0001)     19 ............................................................
(PID.TID 0000.0001)     18 ............................................................
(PID.TID 0000.0001)     17 ............................................................
(PID.TID 0000.0001)     16 ............................................................
(PID.TID 0000.0001)     15 ............................................................
(PID.TID 0000.0001)     14 ............................................................
(PID.TID 0000.0001)     13 ............................................................
(PID.TID 0000.0001)     12 ............................................................
(PID.TID 0000.0001)     11 ............................................................
(PID.TID 0000.0001)     10 ............................................................
(PID.TID 0000.0001)      9 ............................................................
(PID.TID 0000.0001)      8 ............................................................
(PID.TID 0000.0001)      7 ............................................................
(PID.TID 0000.0001)      6 ............................................................
(PID.TID 0000.0001)      5 ............................................................
(PID.TID 0000.0001)      4 ............................................................
(PID.TID 0000.0001)      3 ............................................................
(PID.TID 0000.0001)      2 ............................................................
(PID.TID 0000.0001)      1 ............................................................
(PID.TID 0000.0001) // =======================================================
(PID.TID 0000.0001) // END OF FIELD                                          =
(PID.TID 0000.0001) // =======================================================
(PID.TID 0000.0001) 
(PID.TID 0000.0001) // =======================================================
(PID.TID 0000.0001) // Field Current theta  at iteration     731521
(PID.TID 0000.0001) // CMIN =         -1.825108633458275E+00
(PID.TID 0000.0001) // CMAX =          5.576578077027747E+00
(PID.TID 0000.0001) // CINT =          2.741365448328156E-01
(PID.TID 0000.0001) // SYMBOLS (CMIN->CMAX): -abcdefghijklmnopqrstuvwxyz+
(PID.TID 0000.0001) //                  0.0: .
(PID.TID 0000.0001) // RANGE I (Lo:Hi:Step):(     1:    60:     1)
(PID.TID 0000.0001) // RANGE J (Lo:Hi:Step):(    60:     1:    -1)
(PID.TID 0000.0001) // RANGE K (Lo:Hi:Step):(   1:   1:   1)
(PID.TID 0000.0001) // =======================================================
(PID.TID 0000.0001) K =   1
(PID.TID 0000.0001)                I=10      I=20      I=30      I=40      I=50      I=60
(PID.TID 0000.0001) |--J--|123456789|123456789|123456789|123456789|123456789|123456789|
(PID.TID 0000.0001)     60 ----------------------------................................
(PID.TID 0000.0001)     59 ---------------------------.................................
(PID.TID 0000.0001)     58 ---------------------------.................................
(PID.TID 0000.0001)     57 --------------------------..................................
(PID.TID 0000.0001)     56 -------------a----------....................................
(PID.TID 0000.0001)     55 ------------ac-aaaa---aa....................................
(PID.TID 0000.0001)     54 ..-...+---a-...o-.-aaaa.....................................
(PID.TID 0000.0001)     53 ............................................................
(PID.TID 0000.0001)     52 ............................................................
(PID.TID 0000.0001)     51 ............................................................
(PID.TID 0000.0001)     50 ............................................................
(PID.TID 0000.0001)     49 ............................................................
(PID.TID 0000.0001)     48 ............................................................
(PID.TID 0000.0001)     47 ............................................................
(PID.TID 0000.0001)     46 ............................................................
(PID.TID 0000.0001)     45 ............................................................
(PID.TID 0000.0001)     44 ............................................................
(PID.TID 0000.0001)     43 ............................................................
(PID.TID 0000.0001)     42 ............................................................
(PID.TID 0000.0001)     41 ............................................................
(PID.TID 0000.0001)     40 ............................................................
(PID.TID 0000.0001)     39 ............................................................
(PID.TID 0000.0001)     38 ............................................................
(PID.TID 0000.0001)     37 ............................................................
(PID.TID 0000.0001)     36 ............................................................
(PID.TID 0000.0001)     35 ............................................................
(PID.TID 0000.0001)     34 ............................................................
(PID.TID 0000.0001)     33 ............................................................
(PID.TID 0000.0001)     32 ............................................................
(PID.TID 0000.0001)     31 ............................................................
(PID.TID 0000.0001)     30 ............................................................
(PID.TID 0000.0001)     29 ............................................................
(PID.TID 0000.0001)     28 ............................................................
(PID.TID 0000.0001)     27 ............................................................
(PID.TID 0000.0001)     26 ............................................................
(PID.TID 0000.0001)     25 ............................................................
(PID.TID 0000.0001)     24 ............................................................
(PID.TID 0000.0001)     23 ............................................................
(PID.TID 0000.0001)     22 ............................................................
(PID.TID 0000.0001)     21 ............................................................
(PID.TID 0000.0001)     20 ............................................................
(PID.TID 0000.0001)     19 ............................................................
(PID.TID 0000.0001)     18 ............................................................
(PID.TID 0000.0001)     17 ............................................................
(PID.TID 0000.0001)     16 ............................................................
(PID.TID 0000.0001)     15 ............................................................
(PID.TID 0000.0001)     14 ............................................................
(PID.TID 0000.0001)     13 ............................................................
(PID.TID 0000.0001)     12 ............................................................
(PID.TID 0000.0001)     11 ............................................................
(PID.TID 0000.0001)     10 ............................................................
(PID.TID 0000.0001)      9 ............................................................
(PID.TID 0000.0001)      8 ............................................................
(PID.TID 0000.0001)      7 ............................................................
(PID.TID 0000.0001)      6 ............................................................
(PID.TID 0000.0001)      5 ............................................................
(PID.TID 0000.0001)      4 ............................................................
(PID.TID 0000.0001)      3 ............................................................
(PID.TID 0000.0001)      2 ............................................................
(PID.TID 0000.0001)      1 ............................................................
(PID.TID 0000.0001) // =======================================================
(PID.TID 0000.0001) // END OF FIELD                                          =
(PID.TID 0000.0001) // =======================================================
(PID.TID 0000.0001) 
(PID.TID 0000.0001) // =======================================================
(PID.TID 0000.0001) // Field Current etaN   at iteration     731521
(PID.TID 0000.0001) // CMIN =         -2.452852254908573E+00
(PID.TID 0000.0001) // CMAX =         -1.170297397228814E+00
(PID.TID 0000.0001) // CINT =          4.750203176591697E-02
(PID.TID 0000.0001) // SYMBOLS (CMIN->CMAX): -abcdefghijklmnopqrstuvwxyz+
(PID.TID 0000.0001) //                  0.0: .
(PID.TID 0000.0001) // RANGE I (Lo:Hi:Step):(    -7:    68:     1)
(PID.TID 0000.0001) // RANGE J (Lo:Hi:Step):(    68:    -7:    -1)
(PID.TID 0000.0001) // RANGE K (Lo:Hi:Step):(   1:   1:   1)
(PID.TID 0000.0001) // =======================================================
(PID.TID 0000.0001) K =   1
(PID.TID 0000.0001)                I=2       I=12      I=22      I=32      I=42      I=52      I=62
(PID.TID 0000.0001) |--J--|765432101|345678901|345678901|345678901|345678901|345678901|345678901|345678
(PID.TID 0000.0001)     68 zzzyyyxxxxwwwwvvvvuuuuttttsssrrrrqqqqqqqqqqqqqrr............................
(PID.TID 0000.0001)     67 zzyyyxxxwwwwvvvvuuuuuttttssssrrrrqqqqqqqqqqqqqqp............................
(PID.TID 0000.0001)     66 zyyyxxxwwwvvvvuuuuutttttssssrrrrrqqqqqqqqqqqppo.............................
(PID.TID 0000.0001)     65 yyyxxwwwvvvuuuuuutttttsssssrrrrrqqqqqqqqrqqponl.............................
(PID.TID 0000.0001)     64 yyxxwwwvvvuuuttttttttssssssrrrrqqqqqqqqqqqpnmjt.............................
(PID.TID 0000.0001)     63 yyxxwwwvvuuutttttttssssssrrrrrrqqqqqrqrr...-c...............................
(PID.TID 0000.0001)     62 yyxxwwvvuuutttttsssssssrrrrrrqqqqqqqrr......................................
(PID.TID 0000.0001)     61 yxxxwwvvvuutttttsssssrrrrrqqqqqqqqqqr.......................................
(PID.TID 0000.0001)     60 yyxxwwvvvuuuttttssssrrrrrqqqqqqqqqqq........................................
(PID.TID 0000.0001)     59 yyxxxwwvvuuuutttssssrrrqqqqqpppppqq.........................................
(PID.TID 0000.0001)     58 zyyxxwwwvvuuuttttsssrrrqqpppppoooom.........................................
(PID.TID 0000.0001)     57 zzyxxwwwvvvuuutttsssrrqqppooonnnme..........................................
(PID.TID 0000.0001)     56 zzzyxxwwwvvvuuuttsssrrqpoonnnmmm............................................
(PID.TID 0000.0001)     55 ++zyyxwwwwvvvvuttsssrqpponmmlllk............................................
(PID.TID 0000.0001)     54 ..........w...sgffea...tk.hiiih.............................................
(PID.TID 0000.0001)     53 ............................................................................
(PID.TID 0000.0001)     52 ............................................................................
(PID.TID 0000.0001)     51 ............................................................................
(PID.TID 0000.0001)     50 ............................................................................
(PID.TID 0000.0001)     49 ............................................................................
(PID.TID 0000.0001)     48 ............................................................................
(PID.TID 0000.0001)     47 ............................................................................
(PID.TID 0000.0001)     46 ............................................................................
(PID.TID 0000.0001)     45 ............................................................................
(PID.TID 0000.0001)     44 ............................................................................
(PID.TID 0000.0001)     43 ............................................................................
(PID.TID 0000.0001)     42 ............................................................................
(PID.TID 0000.0001)     41 ............................................................................
(PID.TID 0000.0001)     40 ............................................................................
(PID.TID 0000.0001)     39 ............................................................................
(PID.TID 0000.0001)     38 ............................................................................
(PID.TID 0000.0001)     37 ............................................................................
(PID.TID 0000.0001)     36 ............................................................................
(PID.TID 0000.0001)     35 ............................................................................
(PID.TID 0000.0001)     34 ............................................................................
(PID.TID 0000.0001)     33 ............................................................................
(PID.TID 0000.0001)     32 ............................................................................
(PID.TID 0000.0001)     31 ............................................................................
(PID.TID 0000.0001)     30 ............................................................................
(PID.TID 0000.0001)     29 ............................................................................
(PID.TID 0000.0001)     28 ............................................................................
(PID.TID 0000.0001)     27 ............................................................................
(PID.TID 0000.0001)     26 ............................................................................
(PID.TID 0000.0001)     25 ............................................................................
(PID.TID 0000.0001)     24 ............................................................................
(PID.TID 0000.0001)     23 ............................................................................
(PID.TID 0000.0001)     22 ............................................................................
(PID.TID 0000.0001)     21 ............................................................................
(PID.TID 0000.0001)     20 ............................................................................
(PID.TID 0000.0001)     19 ............................................................................
(PID.TID 0000.0001)     18 ............................................................................
(PID.TID 0000.0001)     17 ............................................................................
(PID.TID 0000.0001)     16 ............................................................................
(PID.TID 0000.0001)     15 ............................................................................
(PID.TID 0000.0001)     14 ............................................................................
(PID.TID 0000.0001)     13 ............................................................................
(PID.TID 0000.0001)     12 ............................................................................
(PID.TID 0000.0001)     11 ............................................................................
(PID.TID 0000.0001)     10 ............................................................................
(PID.TID 0000.0001)      9 ............................................................................
(PID.TID 0000.0001)      8 ............................................................................
(PID.TID 0000.0001)      7 ............................................................................
(PID.TID 0000.0001)      6 ............................................................................
(PID.TID 0000.0001)      5 ............................................................................
(PID.TID 0000.0001)      4 ............................................................................
(PID.TID 0000.0001)      3 ............................................................................
(PID.TID 0000.0001)      2 ............................................................................
(PID.TID 0000.0001)      1 ............................................................................
(PID.TID 0000.0001)      0 ............................................................................
(PID.TID 0000.0001)     -1 ............................................................................
(PID.TID 0000.0001)     -2 ............................................................................
(PID.TID 0000.0001)     -3 ............................................................................
(PID.TID 0000.0001)     -4 ............................................................................
(PID.TID 0000.0001)     -5 ............................................................................
(PID.TID 0000.0001)     -6 ............................................................................
(PID.TID 0000.0001)     -7 ............................................................................
(PID.TID 0000.0001) // =======================================================
(PID.TID 0000.0001) // END OF FIELD                                          =
(PID.TID 0000.0001) // =======================================================
(PID.TID 0000.0001) 
(PID.TID 0000.0001)  MDS_WRITE_FIELD: it,rec,kS,kL,kH=  731521     1  90   1  90 file=U.0000731521
(PID.TID 0000.0001)  MDS_WRITE_FIELD: it,rec,kS,kL,kH=  731521     1  90   1  90 file=V.0000731521
(PID.TID 0000.0001)  MDS_WRITE_FIELD: it,rec,kS,kL,kH=  731521     1  90   1  90 file=T.0000731521
(PID.TID 0000.0001)  MDS_WRITE_FIELD: it,rec,kS,kL,kH=  731521     1  90   1  90 file=S.0000731521
(PID.TID 0000.0001)  MDS_WRITE_FIELD: it,rec,kS,kL,kH=  731521     1   1   1   1 file=Eta.0000731521
(PID.TID 0000.0001)  MDS_WRITE_FIELD: it,rec,kS,kL,kH=  731521     1  90   1  90 file=W.0000731521
(PID.TID 0000.0001)  MDS_WRITE_FIELD: it,rec,kS,kL,kH=  731521     1  90   1  90 file=PH.0000731521
(PID.TID 0000.0001)  MDS_WRITE_FIELD: it,rec,kS,kL,kH=  731521     1   1   1   1 file=PHL.0000731521
 Computing Diagnostic #     80  oceTAUX      Counter:       1   Parms: UU      U1      
           Vector  Mate for  oceTAUX      Diagnostic #     81  oceTAUY  exists 
(PID.TID 0000.0001)  MDS_WRITE_FIELD: it,rec,kS,kL,kH=  731520    -1 450   1   1 file=state_2d_set1.0000731520
 Computing Diagnostic #     81  oceTAUY      Counter:       1   Parms: VV      U1      
           Vector  Mate for  oceTAUY      Diagnostic #     80  oceTAUX  exists 
(PID.TID 0000.0001)  MDS_WRITE_FIELD: it,rec,kS,kL,kH=  731520    -2 450   1   1 file=state_2d_set1.0000731520
 Computing Diagnostic #     84  oceFWflx     Counter:       1   Parms: SM      U1      
(PID.TID 0000.0001)  MDS_WRITE_FIELD: it,rec,kS,kL,kH=  731520    -3 450   1   1 file=state_2d_set1.0000731520
 Computing Diagnostic #     85  oceSflux     Counter:       1   Parms: SM      U1      
(PID.TID 0000.0001)  MDS_WRITE_FIELD: it,rec,kS,kL,kH=  731520    -4 450   1   1 file=state_2d_set1.0000731520
 Computing Diagnostic #     86  oceQnet      Counter:       1   Parms: SM      U1      
(PID.TID 0000.0001)  MDS_WRITE_FIELD: it,rec,kS,kL,kH=  731520    -5 450   1   1 file=state_2d_set1.0000731520
 Computing Diagnostic #     87  oceQsw       Counter:       1   Parms: SM      U1      
(PID.TID 0000.0001)  MDS_WRITE_FIELD: it,rec,kS,kL,kH=  731520    -6 450   1   1 file=state_2d_set1.0000731520
 Computing Diagnostic #     27  SALT         Counter:       1   Parms: SMR     MR      
(PID.TID 0000.0001)  MDS_WRITE_FIELD: it,rec,kS,kL,kH=  731520    -1 450   1   1 file=state_3d_set1.0000731520
 Computing Diagnostic #     26  THETA        Counter:       1   Parms: SMR     MR      
(PID.TID 0000.0001)  MDS_WRITE_FIELD: it,rec,kS,kL,kH=  731520    -2 450   1   1 file=state_3d_set1.0000731520
 Computing Diagnostic #     45  UVELMASS     Counter:       1   Parms: UUr     MR      
           Vector  Mate for  UVELMASS     Diagnostic #     46  VVELMASS exists 
(PID.TID 0000.0001)  MDS_WRITE_FIELD: it,rec,kS,kL,kH=  731520    -3 450   1   1 file=state_3d_set1.0000731520
 Computing Diagnostic #     46  VVELMASS     Counter:       1   Parms: VVr     MR      
           Vector  Mate for  VVELMASS     Diagnostic #     45  UVELMASS exists 
(PID.TID 0000.0001)  MDS_WRITE_FIELD: it,rec,kS,kL,kH=  731520    -4 450   1   1 file=state_3d_set1.0000731520
(PID.TID 0000.0001)  write diagnostics summary to file: diagnostics_status.0000731521.txt
(PID.TID 0000.0001) DEBUG_MSG: LEAVING S/R FORWARD_STEP
   Integer*4 Resource Parameter INTERPOLATE_OCEAN_ICE_CURRENTS:           0
 AGCM Date: 2012/02/02  Time: 21:05:00
 Writing:    483 Slices ( 69 Nodes, 68 PartitionRoot) to File:  TEST.geosgcm_prog.20120202_2105z.nc4
 Writing:    148 Slices ( 22 Nodes, 18 PartitionRoot) to File:  TEST.geosgcm_surf.20120202_2105z.nc4
 Writing:    196 Slices ( 28 Nodes, 40 PartitionRoot) to File:  TEST.mit_ocn.20120202_2105z.nc4
 Writing:     60 Slices (  9 Nodes,  9 PartitionRoot) to File:  TEST.mit_ice.20120202_2105z.nc4
 Writing:     40 Slices (  6 Nodes,  3 PartitionRoot) to File:  TEST.mit_ice_all.20120202_2105z.nc4
 Writing:     10 Slices (  2 Nodes,  1 PartitionRoot) to File:  TEST.mit_snow_all.20120202_2105z.nc4
(PID.TID 0000.0001) DEBUG_MSG: ENTERED S/R FORWARD_STEP
(PID.TID 0000.0001) DEBUG_MSG: CALLING S/R LOAD_FIELDS_DRIVER
(PID.TID 0000.0001) DEBUG_MSG: ENTERED S/R LOAD_FIELDS_DRIVER
(PID.TID 0000.0001) DEBUG_MSG: CALLING S/R EXTERNAL_FIELDS_LOAD
(PID.TID 0000.0001) DEBUG_MSG: LEAVING S/R LOAD_FIELDS_DRIVER
(PID.TID 0000.0001) DEBUG_MSG: CALLING S/R DO_ATMOSPHERIC_PHYS
(PID.TID 0000.0001) DEBUG_MSG: ENTERED S/R DO_ATMOSPHERIC_PHYS
(PID.TID 0000.0001) DEBUG_MSG: LEAVING S/R DO_ATMOSPHERIC_PHYS
(PID.TID 0000.0001) DEBUG_MSG: CALLING S/R DO_OCEANIC_PHYS
(PID.TID 0000.0001) DEBUG_MSG: ENTERED S/R DO_OCEANIC_PHYS
(PID.TID 0000.0001) DEBUG_MSG: CALLING S/R EXTERNAL_FORCING_SURF
(PID.TID 0000.0001) DEBUG_MSG: CALLING S/R FIND_RHO_2D (xNr)
(PID.TID 0000.0001) DEBUG_MSG:                  ENTERING UPWARD K LOOP (bi=   1, bj=   1)
(PID.TID 0000.0001) DEBUG_MSG: CALLING S/R KPP_CALC
(PID.TID 0000.0001) DEBUG_MSG: LEAVING S/R DO_OCEANIC_PHYS
(PID.TID 0000.0001) DEBUG_MSG: CALLING S/R DYNAMICS
(PID.TID 0000.0001) DEBUG_MSG: ENTERED S/R DYNAMICS
DEBUG_STATS_RL:                EtaN (DYNAMICS)  min= -1.22807477528015E+01
DEBUG_STATS_RL:                EtaN (DYNAMICS)  max=  1.02707292683014E+01
DEBUG_STATS_RL:                EtaN (DYNAMICS) mean= -2.69516798769131E-01
DEBUG_STATS_RL:                EtaN (DYNAMICS) S.D.=  9.86522236253645E-01
DEBUG_STATS_RL:                Uvel (DYNAMICS)  min= -5.75153482534644E+00
DEBUG_STATS_RL:                Uvel (DYNAMICS)  max=  4.76807593820319E+00
DEBUG_STATS_RL:                Uvel (DYNAMICS) mean=  5.79675350994042E-03
DEBUG_STATS_RL:                Uvel (DYNAMICS) S.D.=  1.02493198279399E-01
DEBUG_STATS_RL:                Vvel (DYNAMICS)  min= -4.93407012738194E+00
DEBUG_STATS_RL:                Vvel (DYNAMICS)  max=  5.59535651139830E+00
DEBUG_STATS_RL:                Vvel (DYNAMICS) mean=  4.90215452401415E-03
DEBUG_STATS_RL:                Vvel (DYNAMICS) S.D.=  1.06272471355877E-01
DEBUG_STATS_RL:                Wvel (DYNAMICS)  min= -8.25003076480247E-02
DEBUG_STATS_RL:                Wvel (DYNAMICS)  max=  1.34255247702360E-01
DEBUG_STATS_RL:                Wvel (DYNAMICS) mean= -5.16538110578262E-07
DEBUG_STATS_RL:                Wvel (DYNAMICS) S.D.=  1.12335052750530E-03
DEBUG_STATS_RL:               Theta (DYNAMICS)  min= -1.69194901630670E+01
DEBUG_STATS_RL:               Theta (DYNAMICS)  max=  6.52553153497846E+01
DEBUG_STATS_RL:               Theta (DYNAMICS) mean=  6.24503598313193E+00
DEBUG_STATS_RL:               Theta (DYNAMICS) S.D.=  7.51171366404999E+00
DEBUG_STATS_RL:                Salt (DYNAMICS)  min=  5.26862743701794E+00
DEBUG_STATS_RL:                Salt (DYNAMICS)  max=  2.95593144064072E+02
DEBUG_STATS_RL:                Salt (DYNAMICS) mean=  3.45718890447110E+01
DEBUG_STATS_RL:                Salt (DYNAMICS) S.D.=  9.57289208406464E-01
DEBUG_STATS_RL:                  Gu (DYNAMICS)  min= -5.75903727807972E+00
DEBUG_STATS_RL:                  Gu (DYNAMICS)  max=  4.63982413184753E+00
DEBUG_STATS_RL:                  Gu (DYNAMICS) mean=  5.64910554436065E-03
DEBUG_STATS_RL:                  Gu (DYNAMICS) S.D.=  1.03749721062194E-01
DEBUG_STATS_RL:                  Gv (DYNAMICS)  min= -5.04496037381213E+00
DEBUG_STATS_RL:                  Gv (DYNAMICS)  max=  1.14412983693607E+01
DEBUG_STATS_RL:                  Gv (DYNAMICS) mean=  5.19055390703163E-03
DEBUG_STATS_RL:                  Gv (DYNAMICS) S.D.=  1.07519846402470E-01
DEBUG_STATS_RL:               GuNm1 (DYNAMICS)  min= -6.72543373510523E-03
DEBUG_STATS_RL:               GuNm1 (DYNAMICS)  max=  1.05011357103310E-02
DEBUG_STATS_RL:               GuNm1 (DYNAMICS) mean= -5.74523853839136E-07
DEBUG_STATS_RL:               GuNm1 (DYNAMICS) S.D.=  1.05155618297612E-05
DEBUG_STATS_RL:               GvNm1 (DYNAMICS)  min= -4.00152832766623E-03
DEBUG_STATS_RL:               GvNm1 (DYNAMICS)  max=  2.36875888238648E-02
DEBUG_STATS_RL:               GvNm1 (DYNAMICS) mean=  5.15952587996120E-07
DEBUG_STATS_RL:               GvNm1 (DYNAMICS) S.D.=  1.04165876194265E-05
DEBUG_STATS_RL:               GtNm1 (DYNAMICS)  min=  0.00000000000000E+00
DEBUG_STATS_RL:               GtNm1 (DYNAMICS)  max=  0.00000000000000E+00
DEBUG_STATS_RL:               GtNm1 (DYNAMICS) mean=  0.00000000000000E+00
DEBUG_STATS_RL:               GtNm1 (DYNAMICS) S.D.=  0.00000000000000E+00
DEBUG_STATS_RL:               GsNm1 (DYNAMICS)  min=  0.00000000000000E+00
DEBUG_STATS_RL:               GsNm1 (DYNAMICS)  max=  0.00000000000000E+00
DEBUG_STATS_RL:               GsNm1 (DYNAMICS) mean=  0.00000000000000E+00
DEBUG_STATS_RL:               GsNm1 (DYNAMICS) S.D.=  0.00000000000000E+00
(PID.TID 0000.0001) DEBUG_MSG: LEAVING S/R DYNAMICS
DEBUG_STATS_RL:    cg2d_b (SOLVE_FOR_PRESSURE)  min= -1.95439831079030E+05
DEBUG_STATS_RL:    cg2d_b (SOLVE_FOR_PRESSURE)  max=  1.69558348849504E+05
DEBUG_STATS_RL:    cg2d_b (SOLVE_FOR_PRESSURE) mean= -8.15263340741940E+01
DEBUG_STATS_RL:    cg2d_b (SOLVE_FOR_PRESSURE) S.D.=  3.48978761579818E+03
 cg2d: Sum(rhs),rhsMax =  -3.67480101599568E+03  2.56632316705941E+01
(PID.TID 0000.0001)  cg2d: iter=     1 ; resid.=  1.72816764332382E+01
(PID.TID 0000.0001)  cg2d: iter=     2 ; resid.=  9.17596645838458E+00
(PID.TID 0000.0001)  cg2d: iter=     3 ; resid.=  5.39088832400909E+00
(PID.TID 0000.0001)  cg2d: iter=     4 ; resid.=  3.46197295473152E+00
(PID.TID 0000.0001)  cg2d: iter=     5 ; resid.=  2.56710768953060E+00
(PID.TID 0000.0001)  cg2d: iter=     6 ; resid.=  2.12695593488135E+00
(PID.TID 0000.0001)  cg2d: iter=     7 ; resid.=  1.79727843041951E+00
(PID.TID 0000.0001)  cg2d: iter=     8 ; resid.=  1.46407165180486E+00
(PID.TID 0000.0001)  cg2d: iter=     9 ; resid.=  1.17363826073809E+00
(PID.TID 0000.0001)  cg2d: iter=    10 ; resid.=  9.69632136652671E-01
(PID.TID 0000.0001)  cg2d: iter=    11 ; resid.=  8.42615910450585E-01
(PID.TID 0000.0001)  cg2d: iter=    12 ; resid.=  7.58321249144197E-01
(PID.TID 0000.0001)  cg2d: iter=    13 ; resid.=  6.80071282765848E-01
(PID.TID 0000.0001)  cg2d: iter=    14 ; resid.=  5.96227760636463E-01
(PID.TID 0000.0001)  cg2d: iter=    15 ; resid.=  5.21935683405283E-01
(PID.TID 0000.0001)  cg2d: iter=    16 ; resid.=  4.62892961656497E-01
(PID.TID 0000.0001)  cg2d: iter=    17 ; resid.=  4.22498614069764E-01
(PID.TID 0000.0001)  cg2d: iter=    18 ; resid.=  3.96139119724325E-01
(PID.TID 0000.0001)  cg2d: iter=    19 ; resid.=  3.74151212717935E-01
(PID.TID 0000.0001)  cg2d: iter=    20 ; resid.=  3.52592998267731E-01
(PID.TID 0000.0001)  cg2d: iter=    21 ; resid.=  3.27198179211066E-01
(PID.TID 0000.0001)  cg2d: iter=    22 ; resid.=  3.04453438257381E-01
(PID.TID 0000.0001)  cg2d: iter=    23 ; resid.=  2.90213045313151E-01
(PID.TID 0000.0001)  cg2d: iter=    24 ; resid.=  2.83564637221168E-01
(PID.TID 0000.0001)  cg2d: iter=    25 ; resid.=  2.76227050535491E-01
(PID.TID 0000.0001)  cg2d: iter=    26 ; resid.=  2.60592781595639E-01
(PID.TID 0000.0001)  cg2d: iter=    27 ; resid.=  2.39900240878143E-01
(PID.TID 0000.0001)  cg2d: iter=    28 ; resid.=  2.23465586917026E-01
(PID.TID 0000.0001)  cg2d: iter=    29 ; resid.=  2.15595390316636E-01
(PID.TID 0000.0001)  cg2d: iter=    30 ; resid.=  2.09866259978529E-01
(PID.TID 0000.0001)  cg2d: iter=    31 ; resid.=  1.98741185685889E-01
(PID.TID 0000.0001)  cg2d: iter=    32 ; resid.=  1.81541633988136E-01
(PID.TID 0000.0001)  cg2d: iter=    33 ; resid.=  1.65013750203701E-01
(PID.TID 0000.0001)  cg2d: iter=    34 ; resid.=  1.53774417046495E-01
(PID.TID 0000.0001)  cg2d: iter=    35 ; resid.=  1.45728965628419E-01
(PID.TID 0000.0001)  cg2d: iter=    36 ; resid.=  1.36710884225228E-01
(PID.TID 0000.0001)  cg2d: iter=    37 ; resid.=  1.26129651766720E-01
(PID.TID 0000.0001)  cg2d: iter=    38 ; resid.=  1.15483221961688E-01
(PID.TID 0000.0001)  cg2d: iter=    39 ; resid.=  1.07463700097234E-01
(PID.TID 0000.0001)  cg2d: iter=    40 ; resid.=  1.01370919591299E-01
(PID.TID 0000.0001)  cg2d: iter=    41 ; resid.=  9.53900476906483E-02
(PID.TID 0000.0001)  cg2d: iter=    42 ; resid.=  8.93373827053540E-02
(PID.TID 0000.0001)  cg2d: iter=    43 ; resid.=  8.32603298007214E-02
(PID.TID 0000.0001)  cg2d: iter=    44 ; resid.=  7.72489615074229E-02
(PID.TID 0000.0001)  cg2d: iter=    45 ; resid.=  7.16025751316403E-02
(PID.TID 0000.0001)  cg2d: iter=    46 ; resid.=  6.65448533822944E-02
(PID.TID 0000.0001)  cg2d: iter=    47 ; resid.=  6.24647763020738E-02
(PID.TID 0000.0001)  cg2d: iter=    48 ; resid.=  5.88092642420803E-02
(PID.TID 0000.0001)  cg2d: iter=    49 ; resid.=  5.49318758562984E-02
(PID.TID 0000.0001)  cg2d: iter=    50 ; resid.=  5.06927608235796E-02
(PID.TID 0000.0001)  cg2d: iter=    51 ; resid.=  4.68040896531781E-02
(PID.TID 0000.0001)  cg2d: iter=    52 ; resid.=  4.38445386491434E-02
(PID.TID 0000.0001)  cg2d: iter=    53 ; resid.=  4.13659427572497E-02
(PID.TID 0000.0001)  cg2d: iter=    54 ; resid.=  3.87381710472875E-02
(PID.TID 0000.0001)  cg2d: iter=    55 ; resid.=  3.56651903763400E-02
(PID.TID 0000.0001)  cg2d: iter=    56 ; resid.=  3.28108120914876E-02
(PID.TID 0000.0001)  cg2d: iter=    57 ; resid.=  3.08029634633486E-02
(PID.TID 0000.0001)  cg2d: iter=    58 ; resid.=  2.92907595785434E-02
(PID.TID 0000.0001)  cg2d: iter=    59 ; resid.=  2.76266281676577E-02
(PID.TID 0000.0001)  cg2d: iter=    60 ; resid.=  2.57140830275348E-02
(PID.TID 0000.0001)  cg2d: iter=    61 ; resid.=  2.38363499289465E-02
(PID.TID 0000.0001)  cg2d: iter=    62 ; resid.=  2.23017071391739E-02
(PID.TID 0000.0001)  cg2d: iter=    63 ; resid.=  2.10210107061040E-02
(PID.TID 0000.0001)  cg2d: iter=    64 ; resid.=  1.97641922775824E-02
(PID.TID 0000.0001)  cg2d: iter=    65 ; resid.=  1.85115783069719E-02
(PID.TID 0000.0001)  cg2d: iter=    66 ; resid.=  1.73760721707548E-02
(PID.TID 0000.0001)  cg2d: iter=    67 ; resid.=  1.63722023709303E-02
(PID.TID 0000.0001)  cg2d: iter=    68 ; resid.=  1.53491188545865E-02
(PID.TID 0000.0001)  cg2d: iter=    69 ; resid.=  1.43323153699117E-02
(PID.TID 0000.0001)  cg2d: iter=    70 ; resid.=  1.33774585013232E-02
(PID.TID 0000.0001)  cg2d: iter=    71 ; resid.=  1.25081139246457E-02
(PID.TID 0000.0001)  cg2d: iter=    72 ; resid.=  1.16819388972562E-02
(PID.TID 0000.0001)  cg2d: iter=    73 ; resid.=  1.08637965861571E-02
(PID.TID 0000.0001)  cg2d: iter=    74 ; resid.=  1.01141483328020E-02
(PID.TID 0000.0001)  cg2d: iter=    75 ; resid.=  9.46665253493871E-03
(PID.TID 0000.0001)  cg2d: iter=    76 ; resid.=  8.92736275050558E-03
(PID.TID 0000.0001)  cg2d: iter=    77 ; resid.=  8.40704747522270E-03
(PID.TID 0000.0001)  cg2d: iter=    78 ; resid.=  7.81978023064729E-03
(PID.TID 0000.0001)  cg2d: iter=    79 ; resid.=  7.21740630318633E-03
(PID.TID 0000.0001)  cg2d: iter=    80 ; resid.=  6.69409293746677E-03
(PID.TID 0000.0001)  cg2d: iter=    81 ; resid.=  6.28115338755559E-03
(PID.TID 0000.0001)  cg2d: iter=    82 ; resid.=  5.88299513861337E-03
(PID.TID 0000.0001)  cg2d: iter=    83 ; resid.=  5.47589730564471E-03
(PID.TID 0000.0001)  cg2d: iter=    84 ; resid.=  5.06467284266136E-03
(PID.TID 0000.0001)  cg2d: iter=    85 ; resid.=  4.70803312027371E-03
(PID.TID 0000.0001)  cg2d: iter=    86 ; resid.=  4.42491223920132E-03
(PID.TID 0000.0001)  cg2d: iter=    87 ; resid.=  4.16435823244541E-03
(PID.TID 0000.0001)  cg2d: iter=    88 ; resid.=  3.91073884869195E-03
(PID.TID 0000.0001)  cg2d: iter=    89 ; resid.=  3.66317101515625E-03
(PID.TID 0000.0001)  cg2d: iter=    90 ; resid.=  3.43971812797373E-03
(PID.TID 0000.0001)  cg2d: iter=    91 ; resid.=  3.23278475586436E-03
(PID.TID 0000.0001)  cg2d: iter=    92 ; resid.=  3.03352626220766E-03
(PID.TID 0000.0001)  cg2d: iter=    93 ; resid.=  2.85408329890331E-03
(PID.TID 0000.0001)  cg2d: iter=    94 ; resid.=  2.67781088464334E-03
(PID.TID 0000.0001)  cg2d: iter=    95 ; resid.=  2.50077847390991E-03
(PID.TID 0000.0001)  cg2d: iter=    96 ; resid.=  2.32821168068291E-03
(PID.TID 0000.0001)  cg2d: iter=    97 ; resid.=  2.16777035987847E-03
(PID.TID 0000.0001)  cg2d: iter=    98 ; resid.=  2.01970377766893E-03
(PID.TID 0000.0001)  cg2d: iter=    99 ; resid.=  1.89240703187499E-03
(PID.TID 0000.0001)  cg2d: iter=   100 ; resid.=  1.77977368676795E-03
DEBUG_STATS_RL:    cg2d_x (SOLVE_FOR_PRESSURE)  min= -1.16657530544562E+02
DEBUG_STATS_RL:    cg2d_x (SOLVE_FOR_PRESSURE)  max=  1.00755852956586E+02
DEBUG_STATS_RL:    cg2d_x (SOLVE_FOR_PRESSURE) mean= -2.64541671606062E+00
DEBUG_STATS_RL:    cg2d_x (SOLVE_FOR_PRESSURE) S.D.=  9.61594133935773E+00
(PID.TID 0000.0001)      cg2d_init_res =   5.27717676405466E+01
(PID.TID 0000.0001)      cg2d_iters(min,last) =      -1     100
(PID.TID 0000.0001)      cg2d_last_res =   1.77977368676795E-03
(PID.TID 0000.0001) DEBUG_MSG: CALLING S/R UPDATE_ETAH
(PID.TID 0000.0001) DEBUG_MSG: CALLING S/R DO_STAGGER_FIELDS_EXCH.
(PID.TID 0000.0001) DEBUG_MSG: CALLING S/R THERMODYNAMICS
(PID.TID 0000.0001) DEBUG_MSG: ENTERED S/R THERMODYNAMICS
(PID.TID 0000.0001) DEBUG_MSG: CALLING S/R TEMP_INTEGRATE
(PID.TID 0000.0001) DEBUG_MSG: CALLING S/R GAD_ADVECTION
(PID.TID 0000.0001) DEBUG_MSG: CALLING S/R SALT_INTEGRATE
(PID.TID 0000.0001) DEBUG_MSG: CALLING S/R GAD_ADVECTION
DEBUG_STATS_RL:          Uvel (THERMODYNAMICS)  min= -5.69014493240908E+00
DEBUG_STATS_RL:          Uvel (THERMODYNAMICS)  max=  4.55415258998335E+00
DEBUG_STATS_RL:          Uvel (THERMODYNAMICS) mean=  6.03099366707244E-03
DEBUG_STATS_RL:          Uvel (THERMODYNAMICS) S.D.=  1.03306478167639E-01
DEBUG_STATS_RL:          Vvel (THERMODYNAMICS)  min= -5.02621095196388E+00
DEBUG_STATS_RL:          Vvel (THERMODYNAMICS)  max=  1.01031458320600E+01
DEBUG_STATS_RL:          Vvel (THERMODYNAMICS) mean=  4.89232348218559E-03
DEBUG_STATS_RL:          Vvel (THERMODYNAMICS) S.D.=  1.07042580758097E-01
DEBUG_STATS_RL:          Wvel (THERMODYNAMICS)  min= -2.50028508249007E-01
DEBUG_STATS_RL:          Wvel (THERMODYNAMICS)  max=  2.55929421985951E-01
DEBUG_STATS_RL:          Wvel (THERMODYNAMICS) mean= -1.12079972575435E-07
DEBUG_STATS_RL:          Wvel (THERMODYNAMICS) S.D.=  2.76508089520142E-03
DEBUG_STATS_RL:         Theta (THERMODYNAMICS)  min= -1.69194901630670E+01
DEBUG_STATS_RL:         Theta (THERMODYNAMICS)  max=  6.31547368986394E+01
DEBUG_STATS_RL:         Theta (THERMODYNAMICS) mean=  6.24583670049930E+00
DEBUG_STATS_RL:         Theta (THERMODYNAMICS) S.D.=  7.51214468199989E+00
DEBUG_STATS_RL:          Salt (THERMODYNAMICS)  min=  5.26862743701794E+00
DEBUG_STATS_RL:          Salt (THERMODYNAMICS)  max=  2.95593144064072E+02
DEBUG_STATS_RL:          Salt (THERMODYNAMICS) mean=  3.45715109546291E+01
DEBUG_STATS_RL:          Salt (THERMODYNAMICS) S.D.=  9.57640130049876E-01
DEBUG_STATS_RL:         GtNm1 (THERMODYNAMICS)  min=  0.00000000000000E+00
DEBUG_STATS_RL:         GtNm1 (THERMODYNAMICS)  max=  0.00000000000000E+00
DEBUG_STATS_RL:         GtNm1 (THERMODYNAMICS) mean=  0.00000000000000E+00
DEBUG_STATS_RL:         GtNm1 (THERMODYNAMICS) S.D.=  0.00000000000000E+00
DEBUG_STATS_RL:         GsNm1 (THERMODYNAMICS)  min=  0.00000000000000E+00
DEBUG_STATS_RL:         GsNm1 (THERMODYNAMICS)  max=  0.00000000000000E+00
DEBUG_STATS_RL:         GsNm1 (THERMODYNAMICS) mean=  0.00000000000000E+00
DEBUG_STATS_RL:         GsNm1 (THERMODYNAMICS) S.D.=  0.00000000000000E+00
(PID.TID 0000.0001) DEBUG_MSG: LEAVING S/R THERMODYNAMICS
(PID.TID 0000.0001) // =======================================================
(PID.TID 0000.0001) // Begin MONITOR dynamic field statistics
(PID.TID 0000.0001) // =======================================================
(PID.TID 0000.0001) %MON time_tsnumber                =                731522
(PID.TID 0000.0001) %MON time_secondsf                =   2.1945660000000E+08
(PID.TID 0000.0001) %MON dynstat_eta_max              =   1.0270729149498E+01
(PID.TID 0000.0001) %MON dynstat_eta_min              =  -1.1891702984755E+01
(PID.TID 0000.0001) %MON dynstat_eta_mean             =   1.7983101426319E-01
(PID.TID 0000.0001) %MON dynstat_eta_sd               =   7.7774986957251E-01
(PID.TID 0000.0001) %MON dynstat_eta_del2             =   2.2863003662966E-05
(PID.TID 0000.0001) %MON dynstat_uvel_max             =   4.5541525899834E+00
(PID.TID 0000.0001) %MON dynstat_uvel_min             =  -5.6901449324091E+00
(PID.TID 0000.0001) %MON dynstat_uvel_mean            =   3.5649302890750E-03
(PID.TID 0000.0001) %MON dynstat_uvel_sd              =   5.7506196716385E-02
(PID.TID 0000.0001) %MON dynstat_uvel_del2            =   1.6806677172083E-06
(PID.TID 0000.0001) %MON dynstat_vvel_max             =   1.0103145832060E+01
(PID.TID 0000.0001) %MON dynstat_vvel_min             =  -5.0262109519639E+00
(PID.TID 0000.0001) %MON dynstat_vvel_mean            =   6.7105013909210E-04
(PID.TID 0000.0001) %MON dynstat_vvel_sd              =   5.9927669725054E-02
(PID.TID 0000.0001) %MON dynstat_vvel_del2            =   1.6844215389450E-06
(PID.TID 0000.0001) %MON dynstat_wvel_max             =   2.5592942198595E-01
(PID.TID 0000.0001) %MON dynstat_wvel_min             =  -2.5002850824901E-01
(PID.TID 0000.0001) %MON dynstat_wvel_mean            =  -1.8587403795629E-18
(PID.TID 0000.0001) %MON dynstat_wvel_sd              =   4.0330691635510E-03
(PID.TID 0000.0001) %MON dynstat_wvel_del2            =   4.0370864241571E-07
(PID.TID 0000.0001) %MON dynstat_theta_max            =   6.3154736898639E+01
(PID.TID 0000.0001) %MON dynstat_theta_min            =  -7.2039946514652E+00
(PID.TID 0000.0001) %MON dynstat_theta_mean           =   3.6452225204848E+00
(PID.TID 0000.0001) %MON dynstat_theta_sd             =   4.3099808792406E+00
(PID.TID 0000.0001) %MON dynstat_theta_del2           =   4.6235048460492E-05
(PID.TID 0000.0001) %MON dynstat_salt_max             =   7.7723687283720E+01
(PID.TID 0000.0001) %MON dynstat_salt_min             =   8.4512870231846E+00
(PID.TID 0000.0001) %MON dynstat_salt_mean            =   3.4722535840463E+01
(PID.TID 0000.0001) %MON dynstat_salt_sd              =   4.3214220310483E-01
(PID.TID 0000.0001) %MON dynstat_salt_del2            =   6.3273100164365E-06
(PID.TID 0000.0001) %MON dynstat_sst_max              =   6.3154736898639E+01
(PID.TID 0000.0001) %MON dynstat_sst_min              =  -7.2039946514652E+00
(PID.TID 0000.0001) %MON dynstat_sst_mean             =   1.7127336142603E+01
(PID.TID 0000.0001) %MON dynstat_sst_sd               =   9.7422763739324E+00
(PID.TID 0000.0001) %MON dynstat_sst_del2             =   5.5403510960473E-04
(PID.TID 0000.0001) %MON dynstat_sss_max              =   7.7178089874997E+01
(PID.TID 0000.0001) %MON dynstat_sss_min              =   8.4512870231846E+00
(PID.TID 0000.0001) %MON dynstat_sss_mean             =   3.4586741624469E+01
(PID.TID 0000.0001) %MON dynstat_sss_sd               =   1.5841703297776E+00
(PID.TID 0000.0001) %MON dynstat_sss_del2             =   9.9178119996604E-05
(PID.TID 0000.0001) %MON forcing_qnet_max             =   6.8348706250000E+05
(PID.TID 0000.0001) %MON forcing_qnet_min             =  -2.0521151562500E+05
(PID.TID 0000.0001) %MON forcing_qnet_mean            =  -8.3118525486552E+02
(PID.TID 0000.0001) %MON forcing_qnet_sd              =   7.6088719309171E+03
(PID.TID 0000.0001) %MON forcing_qnet_del2            =   2.3142115138194E+00
(PID.TID 0000.0001) %MON forcing_qsw_max              =   0.0000000000000E+00
(PID.TID 0000.0001) %MON forcing_qsw_min              =   0.0000000000000E+00
(PID.TID 0000.0001) %MON forcing_qsw_mean             =   0.0000000000000E+00
(PID.TID 0000.0001) %MON forcing_qsw_sd               =   0.0000000000000E+00
(PID.TID 0000.0001) %MON forcing_qsw_del2             =   0.0000000000000E+00
(PID.TID 0000.0001) %MON forcing_empmr_max            =   4.1411299705505E+00
(PID.TID 0000.0001) %MON forcing_empmr_min            =  -2.1068694591522E+00
(PID.TID 0000.0001) %MON forcing_empmr_mean           =   4.8846162253899E-04
(PID.TID 0000.0001) %MON forcing_empmr_sd             =   1.8970524653079E-02
(PID.TID 0000.0001) %MON forcing_empmr_del2           =   6.6545088603823E-06
(PID.TID 0000.0001) %MON forcing_fu_max               =   1.5577125549317E+00
(PID.TID 0000.0001) %MON forcing_fu_min               =  -1.1093742847445E+00
(PID.TID 0000.0001) %MON forcing_fu_mean              =   1.6456815207540E-02
(PID.TID 0000.0001) %MON forcing_fu_sd                =   1.5488025860332E-01
(PID.TID 0000.0001) %MON forcing_fu_del2              =   2.2216233199615E-06
(PID.TID 0000.0001) %MON forcing_fv_max               =   1.3131561875343E+00
(PID.TID 0000.0001) %MON forcing_fv_min               =  -1.5739959977196E+00
(PID.TID 0000.0001) %MON forcing_fv_mean              =  -2.8223416397967E-03
(PID.TID 0000.0001) %MON forcing_fv_sd                =   1.5454088074436E-01
(PID.TID 0000.0001) %MON forcing_fv_del2              =   1.8015787969072E-06
(PID.TID 0000.0001) %MON trAdv_CFL_u_max              =   5.9978646320280E-01
(PID.TID 0000.0001) %MON trAdv_CFL_v_max              =   1.0990656454714E+00
(PID.TID 0000.0001) %MON trAdv_CFL_w_max              =   3.0159229266063E+00
(PID.TID 0000.0001) %MON advcfl_uvel_max              =   5.9899793045851E-01
(PID.TID 0000.0001) %MON advcfl_vvel_max              =   1.0987374817978E+00
(PID.TID 0000.0001) %MON advcfl_wvel_max              =   6.0318458532126E+00
(PID.TID 0000.0001) %MON advcfl_W_hf_max              =   2.8879601242245E+00
(PID.TID 0000.0001) %MON pe_b_mean                    =   8.4391960203603E-04
(PID.TID 0000.0001) %MON ke_max                       =   2.8198184449074E+01
(PID.TID 0000.0001) %MON ke_mean                      =   3.4092037501584E-03
(PID.TID 0000.0001) %MON ke_vol                       =   1.3321941752083E+18
(PID.TID 0000.0001) %MON vort_r_min                   =  -3.7694199889526E-03
(PID.TID 0000.0001) %MON vort_r_max                   =   2.9278281017135E-03
(PID.TID 0000.0001) %MON vort_a_mean                  =  -1.9843068478196E-05
(PID.TID 0000.0001) %MON vort_a_sd                    =   7.4709619592263E-05
(PID.TID 0000.0001) %MON vort_p_mean                  =  -2.0738617276151E-05
(PID.TID 0000.0001) %MON vort_p_sd                    =   8.3557988723871E-05
(PID.TID 0000.0001) %MON surfExpan_theta_mean         =   3.8917574382691E-04
(PID.TID 0000.0001) %MON surfExpan_salt_mean          =   1.5801714445153E-06
(PID.TID 0000.0001) // =======================================================
(PID.TID 0000.0001) // End MONITOR dynamic field statistics
(PID.TID 0000.0001) // =======================================================
(PID.TID 0000.0001) // =======================================================
(PID.TID 0000.0001) // Field Current uVel   at iteration     731522
(PID.TID 0000.0001) // CMIN =         -2.214079489126836E-01
(PID.TID 0000.0001) // CMAX =          5.917023133169091E-01
(PID.TID 0000.0001) // CINT =          3.011519489739232E-02
(PID.TID 0000.0001) // SYMBOLS (CMIN->CMAX): -abcdefghijklmnopqrstuvwxyz+
(PID.TID 0000.0001) //                  0.0: .
(PID.TID 0000.0001) // RANGE I (Lo:Hi:Step):(     1:    60:     1)
(PID.TID 0000.0001) // RANGE J (Lo:Hi:Step):(    60:     1:    -1)
(PID.TID 0000.0001) // RANGE K (Lo:Hi:Step):(   1:   1:   1)
(PID.TID 0000.0001) // =======================================================
(PID.TID 0000.0001) K =   1
(PID.TID 0000.0001)                I=10      I=20      I=30      I=40      I=50      I=60
(PID.TID 0000.0001) |--J--|123456789|123456789|123456789|123456789|123456789|123456789|
(PID.TID 0000.0001)     60 bbbabccdeeffffffffffeededddd................................
(PID.TID 0000.0001)     59 baaabcdeffffffffffeeeefeede.................................
(PID.TID 0000.0001)     58 ccbbbccdeefeeeeeedeffffedeh.................................
(PID.TID 0000.0001)     57 dccbabbccdeedddddeeeeeeee+..................................
(PID.TID 0000.0001)     56 ffeedcccb---bccddcdddeee....................................
(PID.TID 0000.0001)     55 ggggghggedbbcbaddccdeeeg....................................
(PID.TID 0000.0001)     54 ........iikx.......effh.....................................
(PID.TID 0000.0001)     53 ............................................................
(PID.TID 0000.0001)     52 ............................................................
(PID.TID 0000.0001)     51 ............................................................
(PID.TID 0000.0001)     50 ............................................................
(PID.TID 0000.0001)     49 ............................................................
(PID.TID 0000.0001)     48 ............................................................
(PID.TID 0000.0001)     47 ............................................................
(PID.TID 0000.0001)     46 ............................................................
(PID.TID 0000.0001)     45 ............................................................
(PID.TID 0000.0001)     44 ............................................................
(PID.TID 0000.0001)     43 ............................................................
(PID.TID 0000.0001)     42 ............................................................
(PID.TID 0000.0001)     41 ............................................................
(PID.TID 0000.0001)     40 ............................................................
(PID.TID 0000.0001)     39 ............................................................
(PID.TID 0000.0001)     38 ............................................................
(PID.TID 0000.0001)     37 ............................................................
(PID.TID 0000.0001)     36 ............................................................
(PID.TID 0000.0001)     35 ............................................................
(PID.TID 0000.0001)     34 ............................................................
(PID.TID 0000.0001)     33 ............................................................
(PID.TID 0000.0001)     32 ............................................................
(PID.TID 0000.0001)     31 ............................................................
(PID.TID 0000.0001)     30 ............................................................
(PID.TID 0000.0001)     29 ............................................................
(PID.TID 0000.0001)     28 ............................................................
(PID.TID 0000.0001)     27 ............................................................
(PID.TID 0000.0001)     26 ............................................................
(PID.TID 0000.0001)     25 ............................................................
(PID.TID 0000.0001)     24 ............................................................
(PID.TID 0000.0001)     23 ............................................................
(PID.TID 0000.0001)     22 ............................................................
(PID.TID 0000.0001)     21 ............................................................
(PID.TID 0000.0001)     20 ............................................................
(PID.TID 0000.0001)     19 ............................................................
(PID.TID 0000.0001)     18 ............................................................
(PID.TID 0000.0001)     17 ............................................................
(PID.TID 0000.0001)     16 ............................................................
(PID.TID 0000.0001)     15 ............................................................
(PID.TID 0000.0001)     14 ............................................................
(PID.TID 0000.0001)     13 ............................................................
(PID.TID 0000.0001)     12 ............................................................
(PID.TID 0000.0001)     11 ............................................................
(PID.TID 0000.0001)     10 ............................................................
(PID.TID 0000.0001)      9 ............................................................
(PID.TID 0000.0001)      8 ............................................................
(PID.TID 0000.0001)      7 ............................................................
(PID.TID 0000.0001)      6 ............................................................
(PID.TID 0000.0001)      5 ............................................................
(PID.TID 0000.0001)      4 ............................................................
(PID.TID 0000.0001)      3 ............................................................
(PID.TID 0000.0001)      2 ............................................................
(PID.TID 0000.0001)      1 ............................................................
(PID.TID 0000.0001) // =======================================================
(PID.TID 0000.0001) // END OF FIELD                                          =
(PID.TID 0000.0001) // =======================================================
(PID.TID 0000.0001) 
(PID.TID 0000.0001) // =======================================================
(PID.TID 0000.0001) // Field Current vVel   at iteration     731522
(PID.TID 0000.0001) // CMIN =         -7.701897876834031E-01
(PID.TID 0000.0001) // CMAX =          1.231657364419111E-01
(PID.TID 0000.0001) // CINT =          3.308724163427090E-02
(PID.TID 0000.0001) // SYMBOLS (CMIN->CMAX): -abcdefghijklmnopqrstuvwxyz+
(PID.TID 0000.0001) //                  0.0: .
(PID.TID 0000.0001) // RANGE I (Lo:Hi:Step):(     1:    60:     1)
(PID.TID 0000.0001) // RANGE J (Lo:Hi:Step):(    60:     1:    -1)
(PID.TID 0000.0001) // RANGE K (Lo:Hi:Step):(   1:   1:   1)
(PID.TID 0000.0001) // =======================================================
(PID.TID 0000.0001) K =   1
(PID.TID 0000.0001)                I=10      I=20      I=30      I=40      I=50      I=60
(PID.TID 0000.0001) |--J--|123456789|123456789|123456789|123456789|123456789|123456789|
(PID.TID 0000.0001)     60 xwwwwwwwvvvvvuuuuuutuuuuuut.................................
(PID.TID 0000.0001)     59 wwwwwxxwwwwwwvvvuuuuuuuuuut.................................
(PID.TID 0000.0001)     58 xxxxxxxxxwwwwwwvvvvvuuttti..................................
(PID.TID 0000.0001)     57 yyyyxxxxxxwwwxxwwvvvuuut....................................
(PID.TID 0000.0001)     56 xxyyyyyz++zyyxxxwwvvvvuu....................................
(PID.TID 0000.0001)     55 ..y....nmlj-....u.wvuus.....................................
(PID.TID 0000.0001)     54 ............................................................
(PID.TID 0000.0001)     53 ............................................................
(PID.TID 0000.0001)     52 ............................................................
(PID.TID 0000.0001)     51 ............................................................
(PID.TID 0000.0001)     50 ............................................................
(PID.TID 0000.0001)     49 ............................................................
(PID.TID 0000.0001)     48 ............................................................
(PID.TID 0000.0001)     47 ............................................................
(PID.TID 0000.0001)     46 ............................................................
(PID.TID 0000.0001)     45 ............................................................
(PID.TID 0000.0001)     44 ............................................................
(PID.TID 0000.0001)     43 ............................................................
(PID.TID 0000.0001)     42 ............................................................
(PID.TID 0000.0001)     41 ............................................................
(PID.TID 0000.0001)     40 ............................................................
(PID.TID 0000.0001)     39 ............................................................
(PID.TID 0000.0001)     38 ............................................................
(PID.TID 0000.0001)     37 ............................................................
(PID.TID 0000.0001)     36 ............................................................
(PID.TID 0000.0001)     35 ............................................................
(PID.TID 0000.0001)     34 ............................................................
(PID.TID 0000.0001)     33 ............................................................
(PID.TID 0000.0001)     32 ............................................................
(PID.TID 0000.0001)     31 ............................................................
(PID.TID 0000.0001)     30 ............................................................
(PID.TID 0000.0001)     29 ............................................................
(PID.TID 0000.0001)     28 ............................................................
(PID.TID 0000.0001)     27 ............................................................
(PID.TID 0000.0001)     26 ............................................................
(PID.TID 0000.0001)     25 ............................................................
(PID.TID 0000.0001)     24 ............................................................
(PID.TID 0000.0001)     23 ............................................................
(PID.TID 0000.0001)     22 ............................................................
(PID.TID 0000.0001)     21 ............................................................
(PID.TID 0000.0001)     20 ............................................................
(PID.TID 0000.0001)     19 ............................................................
(PID.TID 0000.0001)     18 ............................................................
(PID.TID 0000.0001)     17 ............................................................
(PID.TID 0000.0001)     16 ............................................................
(PID.TID 0000.0001)     15 ............................................................
(PID.TID 0000.0001)     14 ............................................................
(PID.TID 0000.0001)     13 ............................................................
(PID.TID 0000.0001)     12 ............................................................
(PID.TID 0000.0001)     11 ............................................................
(PID.TID 0000.0001)     10 ............................................................
(PID.TID 0000.0001)      9 ............................................................
(PID.TID 0000.0001)      8 ............................................................
(PID.TID 0000.0001)      7 ............................................................
(PID.TID 0000.0001)      6 ............................................................
(PID.TID 0000.0001)      5 ............................................................
(PID.TID 0000.0001)      4 ............................................................
(PID.TID 0000.0001)      3 ............................................................
(PID.TID 0000.0001)      2 ............................................................
(PID.TID 0000.0001)      1 ............................................................
(PID.TID 0000.0001) // =======================================================
(PID.TID 0000.0001) // END OF FIELD                                          =
(PID.TID 0000.0001) // =======================================================
(PID.TID 0000.0001) 
(PID.TID 0000.0001) // =======================================================
(PID.TID 0000.0001) // Field Current theta  at iteration     731522
(PID.TID 0000.0001) // CMIN =         -1.825129901312874E+00
(PID.TID 0000.0001) // CMAX =          5.576578077027747E+00
(PID.TID 0000.0001) // CINT =          2.741373325311341E-01
(PID.TID 0000.0001) // SYMBOLS (CMIN->CMAX): -abcdefghijklmnopqrstuvwxyz+
(PID.TID 0000.0001) //                  0.0: .
(PID.TID 0000.0001) // RANGE I (Lo:Hi:Step):(     1:    60:     1)
(PID.TID 0000.0001) // RANGE J (Lo:Hi:Step):(    60:     1:    -1)
(PID.TID 0000.0001) // RANGE K (Lo:Hi:Step):(   1:   1:   1)
(PID.TID 0000.0001) // =======================================================
(PID.TID 0000.0001) K =   1
(PID.TID 0000.0001)                I=10      I=20      I=30      I=40      I=50      I=60
(PID.TID 0000.0001) |--J--|123456789|123456789|123456789|123456789|123456789|123456789|
(PID.TID 0000.0001)     60 ----------------------------................................
(PID.TID 0000.0001)     59 ---------------------------.................................
(PID.TID 0000.0001)     58 ---------------------------.................................
(PID.TID 0000.0001)     57 --------------------------..................................
(PID.TID 0000.0001)     56 -------------a----------....................................
(PID.TID 0000.0001)     55 ------------ac-aaaa--aaa....................................
(PID.TID 0000.0001)     54 ..-...+--aaa...oa.aaaaa.....................................
(PID.TID 0000.0001)     53 ............................................................
(PID.TID 0000.0001)     52 ............................................................
(PID.TID 0000.0001)     51 ............................................................
(PID.TID 0000.0001)     50 ............................................................
(PID.TID 0000.0001)     49 ............................................................
(PID.TID 0000.0001)     48 ............................................................
(PID.TID 0000.0001)     47 ............................................................
(PID.TID 0000.0001)     46 ............................................................
(PID.TID 0000.0001)     45 ............................................................
(PID.TID 0000.0001)     44 ............................................................
(PID.TID 0000.0001)     43 ............................................................
(PID.TID 0000.0001)     42 ............................................................
(PID.TID 0000.0001)     41 ............................................................
(PID.TID 0000.0001)     40 ............................................................
(PID.TID 0000.0001)     39 ............................................................
(PID.TID 0000.0001)     38 ............................................................
(PID.TID 0000.0001)     37 ............................................................
(PID.TID 0000.0001)     36 ............................................................
(PID.TID 0000.0001)     35 ............................................................
(PID.TID 0000.0001)     34 ............................................................
(PID.TID 0000.0001)     33 ............................................................
(PID.TID 0000.0001)     32 ............................................................
(PID.TID 0000.0001)     31 ............................................................
(PID.TID 0000.0001)     30 ............................................................
(PID.TID 0000.0001)     29 ............................................................
(PID.TID 0000.0001)     28 ............................................................
(PID.TID 0000.0001)     27 ............................................................
(PID.TID 0000.0001)     26 ............................................................
(PID.TID 0000.0001)     25 ............................................................
(PID.TID 0000.0001)     24 ............................................................
(PID.TID 0000.0001)     23 ............................................................
(PID.TID 0000.0001)     22 ............................................................
(PID.TID 0000.0001)     21 ............................................................
(PID.TID 0000.0001)     20 ............................................................
(PID.TID 0000.0001)     19 ............................................................
(PID.TID 0000.0001)     18 ............................................................
(PID.TID 0000.0001)     17 ............................................................
(PID.TID 0000.0001)     16 ............................................................
(PID.TID 0000.0001)     15 ............................................................
(PID.TID 0000.0001)     14 ............................................................
(PID.TID 0000.0001)     13 ............................................................
(PID.TID 0000.0001)     12 ............................................................
(PID.TID 0000.0001)     11 ............................................................
(PID.TID 0000.0001)     10 ............................................................
(PID.TID 0000.0001)      9 ............................................................
(PID.TID 0000.0001)      8 ............................................................
(PID.TID 0000.0001)      7 ............................................................
(PID.TID 0000.0001)      6 ............................................................
(PID.TID 0000.0001)      5 ............................................................
(PID.TID 0000.0001)      4 ............................................................
(PID.TID 0000.0001)      3 ............................................................
(PID.TID 0000.0001)      2 ............................................................
(PID.TID 0000.0001)      1 ............................................................
(PID.TID 0000.0001) // =======================================================
(PID.TID 0000.0001) // END OF FIELD                                          =
(PID.TID 0000.0001) // =======================================================
(PID.TID 0000.0001) 
(PID.TID 0000.0001) // =======================================================
(PID.TID 0000.0001) // Field Current etaN   at iteration     731522
(PID.TID 0000.0001) // CMIN =         -1.682674568963540E+00
(PID.TID 0000.0001) // CMAX =         -1.193086208864510E+00
(PID.TID 0000.0001) // CINT =          1.813290222589000E-02
(PID.TID 0000.0001) // SYMBOLS (CMIN->CMAX): -abcdefghijklmnopqrstuvwxyz+
(PID.TID 0000.0001) //                  0.0: .
(PID.TID 0000.0001) // RANGE I (Lo:Hi:Step):(    -7:    68:     1)
(PID.TID 0000.0001) // RANGE J (Lo:Hi:Step):(    68:    -7:    -1)
(PID.TID 0000.0001) // RANGE K (Lo:Hi:Step):(   1:   1:   1)
(PID.TID 0000.0001) // =======================================================
(PID.TID 0000.0001) K =   1
(PID.TID 0000.0001)                I=2       I=12      I=22      I=32      I=42      I=52      I=62
(PID.TID 0000.0001) |--J--|765432101|345678901|345678901|345678901|345678901|345678901|345678901|345678
(PID.TID 0000.0001)     68 rrrrrqqqqqqqppppooonnnnmmmmmmmmmmmmmllkkjjjiihgg............................
(PID.TID 0000.0001)     67 rrrrrqqqqqqpppppooonnnnmmmmmmmmmmmlllkkjjjiiiijl............................
(PID.TID 0000.0001)     66 rrrrqqqqqqqqppppooonnnnmmmmmmmmmmlllkkjjiiiijkl.............................
(PID.TID 0000.0001)     65 rrrrqqqqqqqqqpppooonnnnmmmmmmmmmllllkkjjiiijlmn.............................
(PID.TID 0000.0001)     64 rrrrqqqqqqqqqpppooonnnmmmmmmmmmlllllkkkjihillmj.............................
(PID.TID 0000.0001)     63 rrrrqqqqqqqqppppooonnnmmmmmmmmmlllllllli...-e...............................
(PID.TID 0000.0001)     62 rrrqqqqqqqqpppppooonnnmmmmmmmmmmmlllll......................................
(PID.TID 0000.0001)     61 rrqqqqqqppppppppooonnnmmmmmmmmmmmmmmm.......................................
(PID.TID 0000.0001)     60 qqqqqqqpqppppppooonnnnmmmmmmnnnnnnnn........................................
(PID.TID 0000.0001)     59 qqqqqqqqppppppooonnnnnnnnnnnooooooo.........................................
(PID.TID 0000.0001)     58 ppqqqqqqppppooonnnnnnnnnnooppppqqqt.........................................
(PID.TID 0000.0001)     57 pppppqpppppooonnnnmmnnnoopqqrrsttn..........................................
(PID.TID 0000.0001)     56 oooppppppppoonnnnmmmmnopqrssttuv............................................
(PID.TID 0000.0001)     55 nnnooppppoonmlklllllmnpqstuvvwwx............................................
(PID.TID 0000.0001)     54 ..........m...htutqg...it.+zzzz.............................................
(PID.TID 0000.0001)     53 ............................................................................
(PID.TID 0000.0001)     52 ............................................................................
(PID.TID 0000.0001)     51 ............................................................................
(PID.TID 0000.0001)     50 ............................................................................
(PID.TID 0000.0001)     49 ............................................................................
(PID.TID 0000.0001)     48 ............................................................................
(PID.TID 0000.0001)     47 ............................................................................
(PID.TID 0000.0001)     46 ............................................................................
(PID.TID 0000.0001)     45 ............................................................................
(PID.TID 0000.0001)     44 ............................................................................
(PID.TID 0000.0001)     43 ............................................................................
(PID.TID 0000.0001)     42 ............................................................................
(PID.TID 0000.0001)     41 ............................................................................
(PID.TID 0000.0001)     40 ............................................................................
(PID.TID 0000.0001)     39 ............................................................................
(PID.TID 0000.0001)     38 ............................................................................
(PID.TID 0000.0001)     37 ............................................................................
(PID.TID 0000.0001)     36 ............................................................................
(PID.TID 0000.0001)     35 ............................................................................
(PID.TID 0000.0001)     34 ............................................................................
(PID.TID 0000.0001)     33 ............................................................................
(PID.TID 0000.0001)     32 ............................................................................
(PID.TID 0000.0001)     31 ............................................................................
(PID.TID 0000.0001)     30 ............................................................................
(PID.TID 0000.0001)     29 ............................................................................
(PID.TID 0000.0001)     28 ............................................................................
(PID.TID 0000.0001)     27 ............................................................................
(PID.TID 0000.0001)     26 ............................................................................
(PID.TID 0000.0001)     25 ............................................................................
(PID.TID 0000.0001)     24 ............................................................................
(PID.TID 0000.0001)     23 ............................................................................
(PID.TID 0000.0001)     22 ............................................................................
(PID.TID 0000.0001)     21 ............................................................................
(PID.TID 0000.0001)     20 ............................................................................
(PID.TID 0000.0001)     19 ............................................................................
(PID.TID 0000.0001)     18 ............................................................................
(PID.TID 0000.0001)     17 ............................................................................
(PID.TID 0000.0001)     16 ............................................................................
(PID.TID 0000.0001)     15 ............................................................................
(PID.TID 0000.0001)     14 ............................................................................
(PID.TID 0000.0001)     13 ............................................................................
(PID.TID 0000.0001)     12 ............................................................................
(PID.TID 0000.0001)     11 ............................................................................
(PID.TID 0000.0001)     10 ............................................................................
(PID.TID 0000.0001)      9 ............................................................................
(PID.TID 0000.0001)      8 ............................................................................
(PID.TID 0000.0001)      7 ............................................................................
(PID.TID 0000.0001)      6 ............................................................................
(PID.TID 0000.0001)      5 ............................................................................
(PID.TID 0000.0001)      4 ............................................................................
(PID.TID 0000.0001)      3 ............................................................................
(PID.TID 0000.0001)      2 ............................................................................
(PID.TID 0000.0001)      1 ............................................................................
(PID.TID 0000.0001)      0 ............................................................................
(PID.TID 0000.0001)     -1 ............................................................................
(PID.TID 0000.0001)     -2 ............................................................................
(PID.TID 0000.0001)     -3 ............................................................................
(PID.TID 0000.0001)     -4 ............................................................................
(PID.TID 0000.0001)     -5 ............................................................................
(PID.TID 0000.0001)     -6 ............................................................................
(PID.TID 0000.0001)     -7 ............................................................................
(PID.TID 0000.0001) // =======================================================
(PID.TID 0000.0001) // END OF FIELD                                          =
(PID.TID 0000.0001) // =======================================================
(PID.TID 0000.0001) 
(PID.TID 0000.0001)  MDS_WRITE_FIELD: it,rec,kS,kL,kH=  731522     1  90   1  90 file=U.0000731522
(PID.TID 0000.0001)  MDS_WRITE_FIELD: it,rec,kS,kL,kH=  731522     1  90   1  90 file=V.0000731522
(PID.TID 0000.0001)  MDS_WRITE_FIELD: it,rec,kS,kL,kH=  731522     1  90   1  90 file=T.0000731522
(PID.TID 0000.0001)  MDS_WRITE_FIELD: it,rec,kS,kL,kH=  731522     1  90   1  90 file=S.0000731522
(PID.TID 0000.0001)  MDS_WRITE_FIELD: it,rec,kS,kL,kH=  731522     1   1   1   1 file=Eta.0000731522
(PID.TID 0000.0001)  MDS_WRITE_FIELD: it,rec,kS,kL,kH=  731522     1  90   1  90 file=W.0000731522
(PID.TID 0000.0001)  MDS_WRITE_FIELD: it,rec,kS,kL,kH=  731522     1  90   1  90 file=PH.0000731522
(PID.TID 0000.0001)  MDS_WRITE_FIELD: it,rec,kS,kL,kH=  731522     1   1   1   1 file=PHL.0000731522
 Computing Diagnostic #     80  oceTAUX      Counter:       1   Parms: UU      U1      
           Vector  Mate for  oceTAUX      Diagnostic #     81  oceTAUY  exists 
(PID.TID 0000.0001)  MDS_WRITE_FIELD: it,rec,kS,kL,kH=  731521    -1 450   1   1 file=state_2d_set1.0000731521
 Computing Diagnostic #     81  oceTAUY      Counter:       1   Parms: VV      U1      
           Vector  Mate for  oceTAUY      Diagnostic #     80  oceTAUX  exists 
(PID.TID 0000.0001)  MDS_WRITE_FIELD: it,rec,kS,kL,kH=  731521    -2 450   1   1 file=state_2d_set1.0000731521
 Computing Diagnostic #     84  oceFWflx     Counter:       1   Parms: SM      U1      
(PID.TID 0000.0001)  MDS_WRITE_FIELD: it,rec,kS,kL,kH=  731521    -3 450   1   1 file=state_2d_set1.0000731521
 Computing Diagnostic #     85  oceSflux     Counter:       1   Parms: SM      U1      
(PID.TID 0000.0001)  MDS_WRITE_FIELD: it,rec,kS,kL,kH=  731521    -4 450   1   1 file=state_2d_set1.0000731521
 Computing Diagnostic #     86  oceQnet      Counter:       1   Parms: SM      U1      
(PID.TID 0000.0001)  MDS_WRITE_FIELD: it,rec,kS,kL,kH=  731521    -5 450   1   1 file=state_2d_set1.0000731521
 Computing Diagnostic #     87  oceQsw       Counter:       1   Parms: SM      U1      
(PID.TID 0000.0001)  MDS_WRITE_FIELD: it,rec,kS,kL,kH=  731521    -6 450   1   1 file=state_2d_set1.0000731521
 Computing Diagnostic #     27  SALT         Counter:       1   Parms: SMR     MR      
(PID.TID 0000.0001)  MDS_WRITE_FIELD: it,rec,kS,kL,kH=  731521    -1 450   1   1 file=state_3d_set1.0000731521
 Computing Diagnostic #     26  THETA        Counter:       1   Parms: SMR     MR      
(PID.TID 0000.0001)  MDS_WRITE_FIELD: it,rec,kS,kL,kH=  731521    -2 450   1   1 file=state_3d_set1.0000731521
 Computing Diagnostic #     45  UVELMASS     Counter:       1   Parms: UUr     MR      
           Vector  Mate for  UVELMASS     Diagnostic #     46  VVELMASS exists 
(PID.TID 0000.0001)  MDS_WRITE_FIELD: it,rec,kS,kL,kH=  731521    -3 450   1   1 file=state_3d_set1.0000731521
 Computing Diagnostic #     46  VVELMASS     Counter:       1   Parms: VVr     MR      
           Vector  Mate for  VVELMASS     Diagnostic #     45  UVELMASS exists 
(PID.TID 0000.0001)  MDS_WRITE_FIELD: it,rec,kS,kL,kH=  731521    -4 450   1   1 file=state_3d_set1.0000731521
(PID.TID 0000.0001)  write diagnostics summary to file: diagnostics_status.0000731522.txt
(PID.TID 0000.0001) DEBUG_MSG: LEAVING S/R FORWARD_STEP
 AGCM Date: 2012/02/02  Time: 21:10:00
 Writing:    483 Slices ( 69 Nodes, 68 PartitionRoot) to File:  TEST.geosgcm_prog.20120202_2110z.nc4
 Writing:    148 Slices ( 22 Nodes, 18 PartitionRoot) to File:  TEST.geosgcm_surf.20120202_2110z.nc4
 Writing:    196 Slices ( 28 Nodes, 40 PartitionRoot) to File:  TEST.mit_ocn.20120202_2110z.nc4
 Writing:     60 Slices (  9 Nodes,  9 PartitionRoot) to File:  TEST.mit_ice.20120202_2110z.nc4
 Writing:     40 Slices (  6 Nodes,  3 PartitionRoot) to File:  TEST.mit_ice_all.20120202_2110z.nc4
 Writing:     10 Slices (  2 Nodes,  1 PartitionRoot) to File:  TEST.mit_snow_all.20120202_2110z.nc4
(PID.TID 0000.0001) DEBUG_MSG: ENTERED S/R FORWARD_STEP
(PID.TID 0000.0001) DEBUG_MSG: CALLING S/R LOAD_FIELDS_DRIVER
(PID.TID 0000.0001) DEBUG_MSG: ENTERED S/R LOAD_FIELDS_DRIVER
(PID.TID 0000.0001) DEBUG_MSG: CALLING S/R EXTERNAL_FIELDS_LOAD
(PID.TID 0000.0001) DEBUG_MSG: LEAVING S/R LOAD_FIELDS_DRIVER
(PID.TID 0000.0001) DEBUG_MSG: CALLING S/R DO_ATMOSPHERIC_PHYS
(PID.TID 0000.0001) DEBUG_MSG: ENTERED S/R DO_ATMOSPHERIC_PHYS
(PID.TID 0000.0001) DEBUG_MSG: LEAVING S/R DO_ATMOSPHERIC_PHYS
(PID.TID 0000.0001) DEBUG_MSG: CALLING S/R DO_OCEANIC_PHYS
(PID.TID 0000.0001) DEBUG_MSG: ENTERED S/R DO_OCEANIC_PHYS
(PID.TID 0000.0001) DEBUG_MSG: CALLING S/R EXTERNAL_FORCING_SURF
(PID.TID 0000.0001) DEBUG_MSG: CALLING S/R FIND_RHO_2D (xNr)
(PID.TID 0000.0001) DEBUG_MSG:                  ENTERING UPWARD K LOOP (bi=   1, bj=   1)
(PID.TID 0000.0001) DEBUG_MSG: CALLING S/R KPP_CALC
(PID.TID 0000.0001) DEBUG_MSG: LEAVING S/R DO_OCEANIC_PHYS
(PID.TID 0000.0001) DEBUG_MSG: CALLING S/R DYNAMICS
(PID.TID 0000.0001) DEBUG_MSG: ENTERED S/R DYNAMICS
DEBUG_STATS_RL:                EtaN (DYNAMICS)  min= -1.18917029847553E+01
DEBUG_STATS_RL:                EtaN (DYNAMICS)  max=  1.02707291494982E+01
DEBUG_STATS_RL:                EtaN (DYNAMICS) mean= -2.69660838151084E-01
DEBUG_STATS_RL:                EtaN (DYNAMICS) S.D.=  9.80212077548294E-01
DEBUG_STATS_RL:                Uvel (DYNAMICS)  min= -5.69014493240908E+00
DEBUG_STATS_RL:                Uvel (DYNAMICS)  max=  4.55415258998335E+00
DEBUG_STATS_RL:                Uvel (DYNAMICS) mean=  6.03099366707244E-03
DEBUG_STATS_RL:                Uvel (DYNAMICS) S.D.=  1.03306478167639E-01
DEBUG_STATS_RL:                Vvel (DYNAMICS)  min= -5.02621095196388E+00
DEBUG_STATS_RL:                Vvel (DYNAMICS)  max=  1.01031458320600E+01
DEBUG_STATS_RL:                Vvel (DYNAMICS) mean=  4.89232348218559E-03
DEBUG_STATS_RL:                Vvel (DYNAMICS) S.D.=  1.07042580758097E-01
DEBUG_STATS_RL:                Wvel (DYNAMICS)  min= -2.50028508249007E-01
DEBUG_STATS_RL:                Wvel (DYNAMICS)  max=  2.55929421985951E-01
DEBUG_STATS_RL:                Wvel (DYNAMICS) mean= -1.12079972575435E-07
DEBUG_STATS_RL:                Wvel (DYNAMICS) S.D.=  2.76508089520142E-03
DEBUG_STATS_RL:               Theta (DYNAMICS)  min= -1.69194901630670E+01
DEBUG_STATS_RL:               Theta (DYNAMICS)  max=  6.31547368986394E+01
DEBUG_STATS_RL:               Theta (DYNAMICS) mean=  6.24583670049930E+00
DEBUG_STATS_RL:               Theta (DYNAMICS) S.D.=  7.51214468199989E+00
DEBUG_STATS_RL:                Salt (DYNAMICS)  min=  5.26862743701794E+00
DEBUG_STATS_RL:                Salt (DYNAMICS)  max=  2.95593144064072E+02
DEBUG_STATS_RL:                Salt (DYNAMICS) mean=  3.45715109546291E+01
DEBUG_STATS_RL:                Salt (DYNAMICS) S.D.=  9.57640130049876E-01
DEBUG_STATS_RL:                  Gu (DYNAMICS)  min= -5.70281629940344E+00
DEBUG_STATS_RL:                  Gu (DYNAMICS)  max=  9.09894679833112E+00
DEBUG_STATS_RL:                  Gu (DYNAMICS) mean=  5.88265620063597E-03
DEBUG_STATS_RL:                  Gu (DYNAMICS) S.D.=  1.05114723919137E-01
DEBUG_STATS_RL:                  Gv (DYNAMICS)  min= -2.17302556626185E+01
DEBUG_STATS_RL:                  Gv (DYNAMICS)  max=  5.37607717042737E+00
DEBUG_STATS_RL:                  Gv (DYNAMICS) mean=  5.18589422074801E-03
DEBUG_STATS_RL:                  Gv (DYNAMICS) S.D.=  1.08864518617028E-01
DEBUG_STATS_RL:               GuNm1 (DYNAMICS)  min= -7.82785441320880E-03
DEBUG_STATS_RL:               GuNm1 (DYNAMICS)  max=  8.67570320742660E-03
DEBUG_STATS_RL:               GuNm1 (DYNAMICS) mean= -5.35941653360189E-07
DEBUG_STATS_RL:               GuNm1 (DYNAMICS) S.D.=  1.06543926882815E-05
DEBUG_STATS_RL:               GvNm1 (DYNAMICS)  min= -1.05809061177666E-02
DEBUG_STATS_RL:               GvNm1 (DYNAMICS)  max=  9.30660330837926E-03
DEBUG_STATS_RL:               GvNm1 (DYNAMICS) mean=  5.21127976770773E-07
DEBUG_STATS_RL:               GvNm1 (DYNAMICS) S.D.=  1.05122526204419E-05
DEBUG_STATS_RL:               GtNm1 (DYNAMICS)  min=  0.00000000000000E+00
DEBUG_STATS_RL:               GtNm1 (DYNAMICS)  max=  0.00000000000000E+00
DEBUG_STATS_RL:               GtNm1 (DYNAMICS) mean=  0.00000000000000E+00
DEBUG_STATS_RL:               GtNm1 (DYNAMICS) S.D.=  0.00000000000000E+00
DEBUG_STATS_RL:               GsNm1 (DYNAMICS)  min=  0.00000000000000E+00
DEBUG_STATS_RL:               GsNm1 (DYNAMICS)  max=  0.00000000000000E+00
DEBUG_STATS_RL:               GsNm1 (DYNAMICS) mean=  0.00000000000000E+00
DEBUG_STATS_RL:               GsNm1 (DYNAMICS) S.D.=  0.00000000000000E+00
(PID.TID 0000.0001) DEBUG_MSG: LEAVING S/R DYNAMICS
DEBUG_STATS_RL:    cg2d_b (SOLVE_FOR_PRESSURE)  min= -1.93377368321525E+05
DEBUG_STATS_RL:    cg2d_b (SOLVE_FOR_PRESSURE)  max=  1.69261391050109E+05
DEBUG_STATS_RL:    cg2d_b (SOLVE_FOR_PRESSURE) mean= -8.15172157064844E+01
DEBUG_STATS_RL:    cg2d_b (SOLVE_FOR_PRESSURE) S.D.=  3.53701830355072E+03
 cg2d: Sum(rhs),rhsMax =  -3.71357914427889E+03  2.53924093962112E+01
(PID.TID 0000.0001)  cg2d: iter=     1 ; resid.=  1.53583851908272E+00
(PID.TID 0000.0001)  cg2d: iter=     2 ; resid.=  1.21668684072700E+00
(PID.TID 0000.0001)  cg2d: iter=     3 ; resid.=  1.14314862910658E+00
(PID.TID 0000.0001)  cg2d: iter=     4 ; resid.=  1.05934394290661E+00
(PID.TID 0000.0001)  cg2d: iter=     5 ; resid.=  9.15574355934546E-01
(PID.TID 0000.0001)  cg2d: iter=     6 ; resid.=  7.46446381893232E-01
(PID.TID 0000.0001)  cg2d: iter=     7 ; resid.=  6.04836296407641E-01
(PID.TID 0000.0001)  cg2d: iter=     8 ; resid.=  5.15494727730806E-01
(PID.TID 0000.0001)  cg2d: iter=     9 ; resid.=  4.62349355714790E-01
(PID.TID 0000.0001)  cg2d: iter=    10 ; resid.=  4.17796008028497E-01
(PID.TID 0000.0001)  cg2d: iter=    11 ; resid.=  3.70014064411739E-01
(PID.TID 0000.0001)  cg2d: iter=    12 ; resid.=  3.21866407085409E-01
(PID.TID 0000.0001)  cg2d: iter=    13 ; resid.=  2.79351602585630E-01
(PID.TID 0000.0001)  cg2d: iter=    14 ; resid.=  2.51446198275767E-01
(PID.TID 0000.0001)  cg2d: iter=    15 ; resid.=  2.32995356910775E-01
(PID.TID 0000.0001)  cg2d: iter=    16 ; resid.=  2.20813257432419E-01
(PID.TID 0000.0001)  cg2d: iter=    17 ; resid.=  2.09322328599035E-01
(PID.TID 0000.0001)  cg2d: iter=    18 ; resid.=  1.95627732414033E-01
(PID.TID 0000.0001)  cg2d: iter=    19 ; resid.=  1.81100009892323E-01
(PID.TID 0000.0001)  cg2d: iter=    20 ; resid.=  1.71399633080680E-01
(PID.TID 0000.0001)  cg2d: iter=    21 ; resid.=  1.69873029238647E-01
(PID.TID 0000.0001)  cg2d: iter=    22 ; resid.=  1.70218847959059E-01
(PID.TID 0000.0001)  cg2d: iter=    23 ; resid.=  1.65969400811464E-01
(PID.TID 0000.0001)  cg2d: iter=    24 ; resid.=  1.56260722994410E-01
(PID.TID 0000.0001)  cg2d: iter=    25 ; resid.=  1.48351821789768E-01
(PID.TID 0000.0001)  cg2d: iter=    26 ; resid.=  1.44666904523261E-01
(PID.TID 0000.0001)  cg2d: iter=    27 ; resid.=  1.41594639304373E-01
(PID.TID 0000.0001)  cg2d: iter=    28 ; resid.=  1.35522318331322E-01
(PID.TID 0000.0001)  cg2d: iter=    29 ; resid.=  1.26167389217727E-01
(PID.TID 0000.0001)  cg2d: iter=    30 ; resid.=  1.16084918687153E-01
(PID.TID 0000.0001)  cg2d: iter=    31 ; resid.=  1.06616067325432E-01
(PID.TID 0000.0001)  cg2d: iter=    32 ; resid.=  9.93114108752435E-02
(PID.TID 0000.0001)  cg2d: iter=    33 ; resid.=  9.36491525419057E-02
(PID.TID 0000.0001)  cg2d: iter=    34 ; resid.=  8.74630230264303E-02
(PID.TID 0000.0001)  cg2d: iter=    35 ; resid.=  8.04529272265726E-02
(PID.TID 0000.0001)  cg2d: iter=    36 ; resid.=  7.36266412377262E-02
(PID.TID 0000.0001)  cg2d: iter=    37 ; resid.=  6.75055469122030E-02
(PID.TID 0000.0001)  cg2d: iter=    38 ; resid.=  6.23753256608737E-02
(PID.TID 0000.0001)  cg2d: iter=    39 ; resid.=  5.86161524641010E-02
(PID.TID 0000.0001)  cg2d: iter=    40 ; resid.=  5.49889995257738E-02
(PID.TID 0000.0001)  cg2d: iter=    41 ; resid.=  5.09126933504942E-02
(PID.TID 0000.0001)  cg2d: iter=    42 ; resid.=  4.64370538130575E-02
(PID.TID 0000.0001)  cg2d: iter=    43 ; resid.=  4.29030022018628E-02
(PID.TID 0000.0001)  cg2d: iter=    44 ; resid.=  4.08103526898600E-02
(PID.TID 0000.0001)  cg2d: iter=    45 ; resid.=  3.87578936007249E-02
(PID.TID 0000.0001)  cg2d: iter=    46 ; resid.=  3.63610837160772E-02
(PID.TID 0000.0001)  cg2d: iter=    47 ; resid.=  3.37217342051448E-02
(PID.TID 0000.0001)  cg2d: iter=    48 ; resid.=  3.11944698110370E-02
(PID.TID 0000.0001)  cg2d: iter=    49 ; resid.=  2.89338590274688E-02
(PID.TID 0000.0001)  cg2d: iter=    50 ; resid.=  2.67675457148223E-02
(PID.TID 0000.0001)  cg2d: iter=    51 ; resid.=  2.61285163113959E-02
(PID.TID 0000.0001)  cg2d: iter=    52 ; resid.=  2.39759582713885E-02
(PID.TID 0000.0001)  cg2d: iter=    53 ; resid.=  2.22703835690502E-02
(PID.TID 0000.0001)  cg2d: iter=    54 ; resid.=  2.07761145397719E-02
(PID.TID 0000.0001)  cg2d: iter=    55 ; resid.=  1.94004043631792E-02
(PID.TID 0000.0001)  cg2d: iter=    56 ; resid.=  1.81082194311477E-02
(PID.TID 0000.0001)  cg2d: iter=    57 ; resid.=  1.70513951522641E-02
(PID.TID 0000.0001)  cg2d: iter=    58 ; resid.=  1.60809078894169E-02
(PID.TID 0000.0001)  cg2d: iter=    59 ; resid.=  1.50652398714918E-02
(PID.TID 0000.0001)  cg2d: iter=    60 ; resid.=  1.40163551006510E-02
(PID.TID 0000.0001)  cg2d: iter=    61 ; resid.=  1.30741858491868E-02
(PID.TID 0000.0001)  cg2d: iter=    62 ; resid.=  1.23533481949784E-02
(PID.TID 0000.0001)  cg2d: iter=    63 ; resid.=  1.17424134492372E-02
(PID.TID 0000.0001)  cg2d: iter=    64 ; resid.=  1.11376005070338E-02
(PID.TID 0000.0001)  cg2d: iter=    65 ; resid.=  1.03792531377738E-02
(PID.TID 0000.0001)  cg2d: iter=    66 ; resid.=  9.56953674610775E-03
(PID.TID 0000.0001)  cg2d: iter=    67 ; resid.=  8.88425813548769E-03
(PID.TID 0000.0001)  cg2d: iter=    68 ; resid.=  8.46975113940488E-03
(PID.TID 0000.0001)  cg2d: iter=    69 ; resid.=  8.08940234565643E-03
(PID.TID 0000.0001)  cg2d: iter=    70 ; resid.=  7.59548703727457E-03
(PID.TID 0000.0001)  cg2d: iter=    71 ; resid.=  7.01293921906314E-03
(PID.TID 0000.0001)  cg2d: iter=    72 ; resid.=  6.52821225288859E-03
(PID.TID 0000.0001)  cg2d: iter=    73 ; resid.=  6.12878629778756E-03
(PID.TID 0000.0001)  cg2d: iter=    74 ; resid.=  5.80163193176409E-03
(PID.TID 0000.0001)  cg2d: iter=    75 ; resid.=  5.46933594232696E-03
(PID.TID 0000.0001)  cg2d: iter=    76 ; resid.=  5.07730606334426E-03
(PID.TID 0000.0001)  cg2d: iter=    77 ; resid.=  4.66147904172960E-03
(PID.TID 0000.0001)  cg2d: iter=    78 ; resid.=  4.26844785408088E-03
(PID.TID 0000.0001)  cg2d: iter=    79 ; resid.=  3.98696558526045E-03
(PID.TID 0000.0001)  cg2d: iter=    80 ; resid.=  3.77241255414692E-03
(PID.TID 0000.0001)  cg2d: iter=    81 ; resid.=  3.55964470329135E-03
(PID.TID 0000.0001)  cg2d: iter=    82 ; resid.=  3.32319264914685E-03
(PID.TID 0000.0001)  cg2d: iter=    83 ; resid.=  3.05221710037454E-03
(PID.TID 0000.0001)  cg2d: iter=    84 ; resid.=  2.81528913207368E-03
(PID.TID 0000.0001)  cg2d: iter=    85 ; resid.=  2.65190013908950E-03
(PID.TID 0000.0001)  cg2d: iter=    86 ; resid.=  2.56179440275254E-03
(PID.TID 0000.0001)  cg2d: iter=    87 ; resid.=  2.44472258910144E-03
(PID.TID 0000.0001)  cg2d: iter=    88 ; resid.=  2.26793721606462E-03
(PID.TID 0000.0001)  cg2d: iter=    89 ; resid.=  2.06867246338610E-03
(PID.TID 0000.0001)  cg2d: iter=    90 ; resid.=  1.91158461932018E-03
(PID.TID 0000.0001)  cg2d: iter=    91 ; resid.=  1.82132283461955E-03
(PID.TID 0000.0001)  cg2d: iter=    92 ; resid.=  1.75463889217006E-03
(PID.TID 0000.0001)  cg2d: iter=    93 ; resid.=  1.64460177008241E-03
(PID.TID 0000.0001)  cg2d: iter=    94 ; resid.=  1.48976820813601E-03
(PID.TID 0000.0001)  cg2d: iter=    95 ; resid.=  1.34063257407684E-03
(PID.TID 0000.0001)  cg2d: iter=    96 ; resid.=  1.26286603788557E-03
(PID.TID 0000.0001)  cg2d: iter=    97 ; resid.=  1.24626726264736E-03
(PID.TID 0000.0001)  cg2d: iter=    98 ; resid.=  1.21492947842016E-03
(PID.TID 0000.0001)  cg2d: iter=    99 ; resid.=  1.11217980806560E-03
(PID.TID 0000.0001)  cg2d: iter=   100 ; resid.=  9.58387161238889E-04
DEBUG_STATS_RL:    cg2d_x (SOLVE_FOR_PRESSURE)  min= -1.12273163731799E+02
DEBUG_STATS_RL:    cg2d_x (SOLVE_FOR_PRESSURE)  max=  1.00755851790839E+02
DEBUG_STATS_RL:    cg2d_x (SOLVE_FOR_PRESSURE) mean= -2.64485357745691E+00
DEBUG_STATS_RL:    cg2d_x (SOLVE_FOR_PRESSURE) S.D.=  9.56494823139390E+00
(PID.TID 0000.0001)      cg2d_init_res =   2.20186531309408E+00
(PID.TID 0000.0001)      cg2d_iters(min,last) =      -1     100
(PID.TID 0000.0001)      cg2d_last_res =   9.58387161238889E-04
(PID.TID 0000.0001) DEBUG_MSG: CALLING S/R UPDATE_ETAH
(PID.TID 0000.0001) DEBUG_MSG: CALLING S/R DO_STAGGER_FIELDS_EXCH.
(PID.TID 0000.0001) DEBUG_MSG: CALLING S/R THERMODYNAMICS
(PID.TID 0000.0001) DEBUG_MSG: ENTERED S/R THERMODYNAMICS
(PID.TID 0000.0001) DEBUG_MSG: CALLING S/R TEMP_INTEGRATE
(PID.TID 0000.0001) DEBUG_MSG: CALLING S/R GAD_ADVECTION
(PID.TID 0000.0001) DEBUG_MSG: CALLING S/R SALT_INTEGRATE
(PID.TID 0000.0001) DEBUG_MSG: CALLING S/R GAD_ADVECTION
DEBUG_STATS_RL:          Uvel (THERMODYNAMICS)  min= -5.63855822004905E+00
DEBUG_STATS_RL:          Uvel (THERMODYNAMICS)  max=  7.83389684184561E+00
DEBUG_STATS_RL:          Uvel (THERMODYNAMICS) mean=  6.24245845508676E-03
DEBUG_STATS_RL:          Uvel (THERMODYNAMICS) S.D.=  1.04694257007502E-01
DEBUG_STATS_RL:          Vvel (THERMODYNAMICS)  min= -1.92978589340358E+01
DEBUG_STATS_RL:          Vvel (THERMODYNAMICS)  max=  5.34753589615188E+00
DEBUG_STATS_RL:          Vvel (THERMODYNAMICS) mean=  4.90102244173758E-03
DEBUG_STATS_RL:          Vvel (THERMODYNAMICS) S.D.=  1.08482712611591E-01
DEBUG_STATS_RL:          Wvel (THERMODYNAMICS)  min= -4.73760829391794E-01
DEBUG_STATS_RL:          Wvel (THERMODYNAMICS)  max=  4.82054257305262E-01
DEBUG_STATS_RL:          Wvel (THERMODYNAMICS) mean=  1.94295144870325E-07
DEBUG_STATS_RL:          Wvel (THERMODYNAMICS) S.D.=  5.03564909075080E-03
DEBUG_STATS_RL:         Theta (THERMODYNAMICS)  min= -1.69194901630670E+01
DEBUG_STATS_RL:         Theta (THERMODYNAMICS)  max=  6.38346094952567E+01
DEBUG_STATS_RL:         Theta (THERMODYNAMICS) mean=  6.24716129828367E+00
DEBUG_STATS_RL:         Theta (THERMODYNAMICS) S.D.=  7.51280686622590E+00
DEBUG_STATS_RL:          Salt (THERMODYNAMICS)  min=  5.26862743701794E+00
DEBUG_STATS_RL:          Salt (THERMODYNAMICS)  max=  2.95593144064072E+02
DEBUG_STATS_RL:          Salt (THERMODYNAMICS) mean=  3.45712903805622E+01
DEBUG_STATS_RL:          Salt (THERMODYNAMICS) S.D.=  9.57973329042408E-01
DEBUG_STATS_RL:         GtNm1 (THERMODYNAMICS)  min=  0.00000000000000E+00
DEBUG_STATS_RL:         GtNm1 (THERMODYNAMICS)  max=  0.00000000000000E+00
DEBUG_STATS_RL:         GtNm1 (THERMODYNAMICS) mean=  0.00000000000000E+00
DEBUG_STATS_RL:         GtNm1 (THERMODYNAMICS) S.D.=  0.00000000000000E+00
DEBUG_STATS_RL:         GsNm1 (THERMODYNAMICS)  min=  0.00000000000000E+00
DEBUG_STATS_RL:         GsNm1 (THERMODYNAMICS)  max=  0.00000000000000E+00
DEBUG_STATS_RL:         GsNm1 (THERMODYNAMICS) mean=  0.00000000000000E+00
DEBUG_STATS_RL:         GsNm1 (THERMODYNAMICS) S.D.=  0.00000000000000E+00
(PID.TID 0000.0001) DEBUG_MSG: LEAVING S/R THERMODYNAMICS
(PID.TID 0000.0001) // =======================================================
(PID.TID 0000.0001) // Begin MONITOR dynamic field statistics
(PID.TID 0000.0001) // =======================================================
(PID.TID 0000.0001) %MON time_tsnumber                =                731523
(PID.TID 0000.0001) %MON time_secondsf                =   2.1945690000000E+08
(PID.TID 0000.0001) %MON dynstat_eta_max              =   1.0270729030695E+01
(PID.TID 0000.0001) %MON dynstat_eta_min              =  -1.1444833066427E+01
(PID.TID 0000.0001) %MON dynstat_eta_mean             =   1.7981091509955E-01
(PID.TID 0000.0001) %MON dynstat_eta_sd               =   7.7840487177815E-01
(PID.TID 0000.0001) %MON dynstat_eta_del2             =   2.3181719475795E-05
(PID.TID 0000.0001) %MON dynstat_uvel_max             =   7.8338968418456E+00
(PID.TID 0000.0001) %MON dynstat_uvel_min             =  -5.6385582200491E+00
(PID.TID 0000.0001) %MON dynstat_uvel_mean            =   3.4993682497796E-03
(PID.TID 0000.0001) %MON dynstat_uvel_sd              =   5.9420552046737E-02
(PID.TID 0000.0001) %MON dynstat_uvel_del2            =   2.4922668474848E-06
(PID.TID 0000.0001) %MON dynstat_vvel_max             =   5.3475358961519E+00
(PID.TID 0000.0001) %MON dynstat_vvel_min             =  -1.9297858934036E+01
(PID.TID 0000.0001) %MON dynstat_vvel_mean            =   6.8879120860459E-04
(PID.TID 0000.0001) %MON dynstat_vvel_sd              =   6.1839341925759E-02
(PID.TID 0000.0001) %MON dynstat_vvel_del2            =   2.5155938510603E-06
(PID.TID 0000.0001) %MON dynstat_wvel_max             =   4.8205425730526E-01
(PID.TID 0000.0001) %MON dynstat_wvel_min             =  -4.7376082939179E-01
(PID.TID 0000.0001) %MON dynstat_wvel_mean            =  -1.5325019134607E-17
(PID.TID 0000.0001) %MON dynstat_wvel_sd              =   7.4959579427332E-03
(PID.TID 0000.0001) %MON dynstat_wvel_del2            =   7.6965029810153E-07
(PID.TID 0000.0001) %MON dynstat_theta_max            =   6.3834609495257E+01
(PID.TID 0000.0001) %MON dynstat_theta_min            =  -5.6719224818357E+00
(PID.TID 0000.0001) %MON dynstat_theta_mean           =   3.6452286553123E+00
(PID.TID 0000.0001) %MON dynstat_theta_sd             =   4.3099140369116E+00
(PID.TID 0000.0001) %MON dynstat_theta_del2           =   4.5466748084142E-05
(PID.TID 0000.0001) %MON dynstat_salt_max             =   7.7723683837264E+01
(PID.TID 0000.0001) %MON dynstat_salt_min             =   8.4286756862961E+00
(PID.TID 0000.0001) %MON dynstat_salt_mean            =   3.4722535361525E+01
(PID.TID 0000.0001) %MON dynstat_salt_sd              =   4.3214357793381E-01
(PID.TID 0000.0001) %MON dynstat_salt_del2            =   6.1982443494035E-06
(PID.TID 0000.0001) %MON dynstat_sst_max              =   6.3834609495257E+01
(PID.TID 0000.0001) %MON dynstat_sst_min              =  -5.6719224818357E+00
(PID.TID 0000.0001) %MON dynstat_sst_mean             =   1.7162937337618E+01
(PID.TID 0000.0001) %MON dynstat_sst_sd               =   9.7410851715734E+00
(PID.TID 0000.0001) %MON dynstat_sst_del2             =   5.4080152818790E-04
(PID.TID 0000.0001) %MON dynstat_sss_max              =   7.6910893476504E+01
(PID.TID 0000.0001) %MON dynstat_sss_min              =   8.4286756862961E+00
(PID.TID 0000.0001) %MON dynstat_sss_mean             =   3.4581887973983E+01
(PID.TID 0000.0001) %MON dynstat_sss_sd               =   1.5894249344842E+00
(PID.TID 0000.0001) %MON dynstat_sss_del2             =   9.6713555459476E-05
(PID.TID 0000.0001) %MON forcing_qnet_max             =   6.2915050000000E+05
(PID.TID 0000.0001) %MON forcing_qnet_min             =  -1.5143264062500E+05
(PID.TID 0000.0001) %MON forcing_qnet_mean            =  -1.3528592036857E+03
(PID.TID 0000.0001) %MON forcing_qnet_sd              =   3.3332852531984E+03
(PID.TID 0000.0001) %MON forcing_qnet_del2            =   1.3706482748021E+00
(PID.TID 0000.0001) %MON forcing_qsw_max              =   0.0000000000000E+00
(PID.TID 0000.0001) %MON forcing_qsw_min              =   0.0000000000000E+00
(PID.TID 0000.0001) %MON forcing_qsw_mean             =   0.0000000000000E+00
(PID.TID 0000.0001) %MON forcing_qsw_sd               =   0.0000000000000E+00
(PID.TID 0000.0001) %MON forcing_qsw_del2             =   0.0000000000000E+00
(PID.TID 0000.0001) %MON forcing_empmr_max            =   4.1378889083862E+00
(PID.TID 0000.0001) %MON forcing_empmr_min            =  -2.0860371589661E+00
(PID.TID 0000.0001) %MON forcing_empmr_mean           =   6.8839624889634E-05
(PID.TID 0000.0001) %MON forcing_empmr_sd             =   9.1347530587903E-03
(PID.TID 0000.0001) %MON forcing_empmr_del2           =   5.1015622636189E-06
(PID.TID 0000.0001) %MON forcing_fu_max               =   1.5809398293495E+00
(PID.TID 0000.0001) %MON forcing_fu_min               =  -1.0917307138445E+00
(PID.TID 0000.0001) %MON forcing_fu_mean              =   1.6354546961551E-02
(PID.TID 0000.0001) %MON forcing_fu_sd                =   1.5517849487541E-01
(PID.TID 0000.0001) %MON forcing_fu_del2              =   2.3162953091111E-06
(PID.TID 0000.0001) %MON forcing_fv_max               =   1.3201248049736E+00
(PID.TID 0000.0001) %MON forcing_fv_min               =  -1.5603756604989E+00
(PID.TID 0000.0001) %MON forcing_fv_mean              =  -2.6101745706127E-03
(PID.TID 0000.0001) %MON forcing_fv_sd                =   1.5530304429529E-01
(PID.TID 0000.0001) %MON forcing_fv_del2              =   1.8615522978132E-06
(PID.TID 0000.0001) %MON trAdv_CFL_u_max              =   5.7279865645519E-01
(PID.TID 0000.0001) %MON trAdv_CFL_v_max              =   1.4450994687497E+00
(PID.TID 0000.0001) %MON trAdv_CFL_w_max              =   3.1913381992653E+00
(PID.TID 0000.0001) %MON advcfl_uvel_max              =   9.8083208155924E-01
(PID.TID 0000.0001) %MON advcfl_vvel_max              =   2.0986810723832E+00
(PID.TID 0000.0001) %MON advcfl_wvel_max              =   6.3826763985306E+00
(PID.TID 0000.0001) %MON advcfl_W_hf_max              =   3.2643774731035E+00
(PID.TID 0000.0001) %MON pe_b_mean                    =   8.4525991668746E-04
(PID.TID 0000.0001) %MON ke_max                       =   9.8661712138185E+01
(PID.TID 0000.0001) %MON ke_mean                      =   3.6342228649509E-03
(PID.TID 0000.0001) %MON ke_vol                       =   1.3321941752083E+18
(PID.TID 0000.0001) %MON vort_r_min                   =  -5.0781915558998E-03
(PID.TID 0000.0001) %MON vort_r_max                   =   6.0375231278127E-03
(PID.TID 0000.0001) %MON vort_a_mean                  =  -1.9843068484775E-05
(PID.TID 0000.0001) %MON vort_a_sd                    =   7.4711746855461E-05
(PID.TID 0000.0001) %MON vort_p_mean                  =  -2.0738617283027E-05
(PID.TID 0000.0001) %MON vort_p_sd                    =   8.3569829265465E-05
(PID.TID 0000.0001) %MON surfExpan_theta_mean         =   2.5322972920842E-04
(PID.TID 0000.0001) %MON surfExpan_salt_mean          =  -2.7553666740281E-07
(PID.TID 0000.0001) // =======================================================
(PID.TID 0000.0001) // End MONITOR dynamic field statistics
(PID.TID 0000.0001) // =======================================================
(PID.TID 0000.0001) // =======================================================
(PID.TID 0000.0001) // Field Current uVel   at iteration     731523
(PID.TID 0000.0001) // CMIN =         -2.311968006155805E-01
(PID.TID 0000.0001) // CMAX =          4.263507185172200E-01
(PID.TID 0000.0001) // CINT =          2.435361181973335E-02
(PID.TID 0000.0001) // SYMBOLS (CMIN->CMAX): -abcdefghijklmnopqrstuvwxyz+
(PID.TID 0000.0001) //                  0.0: .
(PID.TID 0000.0001) // RANGE I (Lo:Hi:Step):(     1:    60:     1)
(PID.TID 0000.0001) // RANGE J (Lo:Hi:Step):(    60:     1:    -1)
(PID.TID 0000.0001) // RANGE K (Lo:Hi:Step):(   1:   1:   1)
(PID.TID 0000.0001) // =======================================================
(PID.TID 0000.0001) K =   1
(PID.TID 0000.0001)                I=10      I=20      I=30      I=40      I=50      I=60
(PID.TID 0000.0001) |--J--|123456789|123456789|123456789|123456789|123456789|123456789|
(PID.TID 0000.0001)     60 ccbbccdefgghhhhhhhhhgffffeee................................
(PID.TID 0000.0001)     59 bbaacdeghhhhhhhhhhgffgggffg.................................
(PID.TID 0000.0001)     58 ddcccddefgggffggfegggggfefg.................................
(PID.TID 0000.0001)     57 edcbbbccdeffeeeeeffffggfgv..................................
(PID.TID 0000.0001)     56 hggfeddcba--cdceeddeefff....................................
(PID.TID 0000.0001)     55 iiiiiiihfeccdbaeddcdeffg....................................
(PID.TID 0000.0001)     54 ........jjm+.......hggh.....................................
(PID.TID 0000.0001)     53 ............................................................
(PID.TID 0000.0001)     52 ............................................................
(PID.TID 0000.0001)     51 ............................................................
(PID.TID 0000.0001)     50 ............................................................
(PID.TID 0000.0001)     49 ............................................................
(PID.TID 0000.0001)     48 ............................................................
(PID.TID 0000.0001)     47 ............................................................
(PID.TID 0000.0001)     46 ............................................................
(PID.TID 0000.0001)     45 ............................................................
(PID.TID 0000.0001)     44 ............................................................
(PID.TID 0000.0001)     43 ............................................................
(PID.TID 0000.0001)     42 ............................................................
(PID.TID 0000.0001)     41 ............................................................
(PID.TID 0000.0001)     40 ............................................................
(PID.TID 0000.0001)     39 ............................................................
(PID.TID 0000.0001)     38 ............................................................
(PID.TID 0000.0001)     37 ............................................................
(PID.TID 0000.0001)     36 ............................................................
(PID.TID 0000.0001)     35 ............................................................
(PID.TID 0000.0001)     34 ............................................................
(PID.TID 0000.0001)     33 ............................................................
(PID.TID 0000.0001)     32 ............................................................
(PID.TID 0000.0001)     31 ............................................................
(PID.TID 0000.0001)     30 ............................................................
(PID.TID 0000.0001)     29 ............................................................
(PID.TID 0000.0001)     28 ............................................................
(PID.TID 0000.0001)     27 ............................................................
(PID.TID 0000.0001)     26 ............................................................
(PID.TID 0000.0001)     25 ............................................................
(PID.TID 0000.0001)     24 ............................................................
(PID.TID 0000.0001)     23 ............................................................
(PID.TID 0000.0001)     22 ............................................................
(PID.TID 0000.0001)     21 ............................................................
(PID.TID 0000.0001)     20 ............................................................
(PID.TID 0000.0001)     19 ............................................................
(PID.TID 0000.0001)     18 ............................................................
(PID.TID 0000.0001)     17 ............................................................
(PID.TID 0000.0001)     16 ............................................................
(PID.TID 0000.0001)     15 ............................................................
(PID.TID 0000.0001)     14 ............................................................
(PID.TID 0000.0001)     13 ............................................................
(PID.TID 0000.0001)     12 ............................................................
(PID.TID 0000.0001)     11 ............................................................
(PID.TID 0000.0001)     10 ............................................................
(PID.TID 0000.0001)      9 ............................................................
(PID.TID 0000.0001)      8 ............................................................
(PID.TID 0000.0001)      7 ............................................................
(PID.TID 0000.0001)      6 ............................................................
(PID.TID 0000.0001)      5 ............................................................
(PID.TID 0000.0001)      4 ............................................................
(PID.TID 0000.0001)      3 ............................................................
(PID.TID 0000.0001)      2 ............................................................
(PID.TID 0000.0001)      1 ............................................................
(PID.TID 0000.0001) // =======================================================
(PID.TID 0000.0001) // END OF FIELD                                          =
(PID.TID 0000.0001) // =======================================================
(PID.TID 0000.0001) 
(PID.TID 0000.0001) // =======================================================
(PID.TID 0000.0001) // Field Current vVel   at iteration     731523
(PID.TID 0000.0001) // CMIN =         -4.899746319563653E-01
(PID.TID 0000.0001) // CMAX =          1.293066395225590E-01
(PID.TID 0000.0001) // CINT =          2.293634338810830E-02
(PID.TID 0000.0001) // SYMBOLS (CMIN->CMAX): -abcdefghijklmnopqrstuvwxyz+
(PID.TID 0000.0001) //                  0.0: .
(PID.TID 0000.0001) // RANGE I (Lo:Hi:Step):(     1:    60:     1)
(PID.TID 0000.0001) // RANGE J (Lo:Hi:Step):(    60:     1:    -1)
(PID.TID 0000.0001) // RANGE K (Lo:Hi:Step):(   1:   1:   1)
(PID.TID 0000.0001) // =======================================================
(PID.TID 0000.0001) K =   1
(PID.TID 0000.0001)                I=10      I=20      I=30      I=40      I=50      I=60
(PID.TID 0000.0001) |--J--|123456789|123456789|123456789|123456789|123456789|123456789|
(PID.TID 0000.0001)     60 vuuttuvuttttssssrrrrrrrrsrq.................................
(PID.TID 0000.0001)     59 uutuuvvuuuuuutttsrssssrrrrs.................................
(PID.TID 0000.0001)     58 wvvvvvvvvuuuuuutsttssrrrqi..................................
(PID.TID 0000.0001)     57 wxxwwvvwwvttvwvuuttsssrq....................................
(PID.TID 0000.0001)     56 vwwxxxxy++zxxwwvvuutttss....................................
(PID.TID 0000.0001)     55 ..v....qqpm-....v.ywuts.....................................
(PID.TID 0000.0001)     54 ............................................................
(PID.TID 0000.0001)     53 ............................................................
(PID.TID 0000.0001)     52 ............................................................
(PID.TID 0000.0001)     51 ............................................................
(PID.TID 0000.0001)     50 ............................................................
(PID.TID 0000.0001)     49 ............................................................
(PID.TID 0000.0001)     48 ............................................................
(PID.TID 0000.0001)     47 ............................................................
(PID.TID 0000.0001)     46 ............................................................
(PID.TID 0000.0001)     45 ............................................................
(PID.TID 0000.0001)     44 ............................................................
(PID.TID 0000.0001)     43 ............................................................
(PID.TID 0000.0001)     42 ............................................................
(PID.TID 0000.0001)     41 ............................................................
(PID.TID 0000.0001)     40 ............................................................
(PID.TID 0000.0001)     39 ............................................................
(PID.TID 0000.0001)     38 ............................................................
(PID.TID 0000.0001)     37 ............................................................
(PID.TID 0000.0001)     36 ............................................................
(PID.TID 0000.0001)     35 ............................................................
(PID.TID 0000.0001)     34 ............................................................
(PID.TID 0000.0001)     33 ............................................................
(PID.TID 0000.0001)     32 ............................................................
(PID.TID 0000.0001)     31 ............................................................
(PID.TID 0000.0001)     30 ............................................................
(PID.TID 0000.0001)     29 ............................................................
(PID.TID 0000.0001)     28 ............................................................
(PID.TID 0000.0001)     27 ............................................................
(PID.TID 0000.0001)     26 ............................................................
(PID.TID 0000.0001)     25 ............................................................
(PID.TID 0000.0001)     24 ............................................................
(PID.TID 0000.0001)     23 ............................................................
(PID.TID 0000.0001)     22 ............................................................
(PID.TID 0000.0001)     21 ............................................................
(PID.TID 0000.0001)     20 ............................................................
(PID.TID 0000.0001)     19 ............................................................
(PID.TID 0000.0001)     18 ............................................................
(PID.TID 0000.0001)     17 ............................................................
(PID.TID 0000.0001)     16 ............................................................
(PID.TID 0000.0001)     15 ............................................................
(PID.TID 0000.0001)     14 ............................................................
(PID.TID 0000.0001)     13 ............................................................
(PID.TID 0000.0001)     12 ............................................................
(PID.TID 0000.0001)     11 ............................................................
(PID.TID 0000.0001)     10 ............................................................
(PID.TID 0000.0001)      9 ............................................................
(PID.TID 0000.0001)      8 ............................................................
(PID.TID 0000.0001)      7 ............................................................
(PID.TID 0000.0001)      6 ............................................................
(PID.TID 0000.0001)      5 ............................................................
(PID.TID 0000.0001)      4 ............................................................
(PID.TID 0000.0001)      3 ............................................................
(PID.TID 0000.0001)      2 ............................................................
(PID.TID 0000.0001)      1 ............................................................
(PID.TID 0000.0001) // =======================================================
(PID.TID 0000.0001) // END OF FIELD                                          =
(PID.TID 0000.0001) // =======================================================
(PID.TID 0000.0001) 
(PID.TID 0000.0001) // =======================================================
(PID.TID 0000.0001) // Field Current theta  at iteration     731523
(PID.TID 0000.0001) // CMIN =         -1.824275335702526E+00
(PID.TID 0000.0001) // CMAX =          5.576578077027747E+00
(PID.TID 0000.0001) // CINT =          2.741056819529731E-01
(PID.TID 0000.0001) // SYMBOLS (CMIN->CMAX): -abcdefghijklmnopqrstuvwxyz+
(PID.TID 0000.0001) //                  0.0: .
(PID.TID 0000.0001) // RANGE I (Lo:Hi:Step):(     1:    60:     1)
(PID.TID 0000.0001) // RANGE J (Lo:Hi:Step):(    60:     1:    -1)
(PID.TID 0000.0001) // RANGE K (Lo:Hi:Step):(   1:   1:   1)
(PID.TID 0000.0001) // =======================================================
(PID.TID 0000.0001) K =   1
(PID.TID 0000.0001)                I=10      I=20      I=30      I=40      I=50      I=60
(PID.TID 0000.0001) |--J--|123456789|123456789|123456789|123456789|123456789|123456789|
(PID.TID 0000.0001)     60 ----------------------------................................
(PID.TID 0000.0001)     59 ---------------------------.................................
(PID.TID 0000.0001)     58 ---------------------------.................................
(PID.TID 0000.0001)     57 ------------------------a-..................................
(PID.TID 0000.0001)     56 -------------a----------....................................
(PID.TID 0000.0001)     55 ------------ac-aaaa--aaa....................................
(PID.TID 0000.0001)     54 ..-...+--aaa...oa.aaaaa.....................................
(PID.TID 0000.0001)     53 ............................................................
(PID.TID 0000.0001)     52 ............................................................
(PID.TID 0000.0001)     51 ............................................................
(PID.TID 0000.0001)     50 ............................................................
(PID.TID 0000.0001)     49 ............................................................
(PID.TID 0000.0001)     48 ............................................................
(PID.TID 0000.0001)     47 ............................................................
(PID.TID 0000.0001)     46 ............................................................
(PID.TID 0000.0001)     45 ............................................................
(PID.TID 0000.0001)     44 ............................................................
(PID.TID 0000.0001)     43 ............................................................
(PID.TID 0000.0001)     42 ............................................................
(PID.TID 0000.0001)     41 ............................................................
(PID.TID 0000.0001)     40 ............................................................
(PID.TID 0000.0001)     39 ............................................................
(PID.TID 0000.0001)     38 ............................................................
(PID.TID 0000.0001)     37 ............................................................
(PID.TID 0000.0001)     36 ............................................................
(PID.TID 0000.0001)     35 ............................................................
(PID.TID 0000.0001)     34 ............................................................
(PID.TID 0000.0001)     33 ............................................................
(PID.TID 0000.0001)     32 ............................................................
(PID.TID 0000.0001)     31 ............................................................
(PID.TID 0000.0001)     30 ............................................................
(PID.TID 0000.0001)     29 ............................................................
(PID.TID 0000.0001)     28 ............................................................
(PID.TID 0000.0001)     27 ............................................................
(PID.TID 0000.0001)     26 ............................................................
(PID.TID 0000.0001)     25 ............................................................
(PID.TID 0000.0001)     24 ............................................................
(PID.TID 0000.0001)     23 ............................................................
(PID.TID 0000.0001)     22 ............................................................
(PID.TID 0000.0001)     21 ............................................................
(PID.TID 0000.0001)     20 ............................................................
(PID.TID 0000.0001)     19 ............................................................
(PID.TID 0000.0001)     18 ............................................................
(PID.TID 0000.0001)     17 ............................................................
(PID.TID 0000.0001)     16 ............................................................
(PID.TID 0000.0001)     15 ............................................................
(PID.TID 0000.0001)     14 ............................................................
(PID.TID 0000.0001)     13 ............................................................
(PID.TID 0000.0001)     12 ............................................................
(PID.TID 0000.0001)     11 ............................................................
(PID.TID 0000.0001)     10 ............................................................
(PID.TID 0000.0001)      9 ............................................................
(PID.TID 0000.0001)      8 ............................................................
(PID.TID 0000.0001)      7 ............................................................
(PID.TID 0000.0001)      6 ............................................................
(PID.TID 0000.0001)      5 ............................................................
(PID.TID 0000.0001)      4 ............................................................
(PID.TID 0000.0001)      3 ............................................................
(PID.TID 0000.0001)      2 ............................................................
(PID.TID 0000.0001)      1 ............................................................
(PID.TID 0000.0001) // =======================================================
(PID.TID 0000.0001) // END OF FIELD                                          =
(PID.TID 0000.0001) // =======================================================
(PID.TID 0000.0001) 
(PID.TID 0000.0001) // =======================================================
(PID.TID 0000.0001) // Field Current etaN   at iteration     731523
(PID.TID 0000.0001) // CMIN =         -1.531278187575201E+00
(PID.TID 0000.0001) // CMAX =         -1.001533437520502E+00
(PID.TID 0000.0001) // CINT =          1.962017592795181E-02
(PID.TID 0000.0001) // SYMBOLS (CMIN->CMAX): -abcdefghijklmnopqrstuvwxyz+
(PID.TID 0000.0001) //                  0.0: .
(PID.TID 0000.0001) // RANGE I (Lo:Hi:Step):(    -7:    68:     1)
(PID.TID 0000.0001) // RANGE J (Lo:Hi:Step):(    68:    -7:    -1)
(PID.TID 0000.0001) // RANGE K (Lo:Hi:Step):(   1:   1:   1)
(PID.TID 0000.0001) // =======================================================
(PID.TID 0000.0001) K =   1
(PID.TID 0000.0001)                I=2       I=12      I=22      I=32      I=42      I=52      I=62
(PID.TID 0000.0001) |--J--|765432101|345678901|345678901|345678901|345678901|345678901|345678901|345678
(PID.TID 0000.0001)     68 ffffffffffffggggggghhhhhhiiiiiiiiijjjjjjjjjjjjjj............................
(PID.TID 0000.0001)     67 gfffffffffggggggghhhhhhiiiiiiijjjjjjjjjjjjkkkkkk............................
(PID.TID 0000.0001)     66 ggfffffffggggggghhhhhiiiiiijjjjjjjjjjjjkkkkklll.............................
(PID.TID 0000.0001)     65 ggffffffffggggghhhhiiiiiijjjjjjjjjjjkkkkkkllmnp.............................
(PID.TID 0000.0001)     64 gggfffffffgggghhhhiiiiijjjjjjkkkkkkkkkkkkklmoqb.............................
(PID.TID 0000.0001)     63 ggggffffffgggghhhiiiijjjjjjkkkkkkkkkkllk...uu...............................
(PID.TID 0000.0001)     62 gggfffffggggghhhiiiijjjjjkkkkkllllllll......................................
(PID.TID 0000.0001)     61 gggfgggggggghhhiiiijjjjkkkkllllllllmm.......................................
(PID.TID 0000.0001)     60 gggggggggghhhhiiijjjjkkkllllmlmmmmmm........................................
(PID.TID 0000.0001)     59 fggggggghhhhiiiijjjjkkklllmmmmnnmnn.........................................
(PID.TID 0000.0001)     58 ffgggghhhhhiiiijjjjkkklllmnmmoqmmpq.........................................
(PID.TID 0000.0001)     57 ffggghhhhiiiiijjjkkklllmmnnnoqojtv..........................................
(PID.TID 0000.0001)     56 ffffghhhhiiiijjjkkkllmmnnnoooprp............................................
(PID.TID 0000.0001)     55 eeeffghhhiiiiijkllllmmnnoopqqqrt............................................
(PID.TID 0000.0001)     54 ..........g...-xyz++...-t.wvuvx.............................................
(PID.TID 0000.0001)     53 ............................................................................
(PID.TID 0000.0001)     52 ............................................................................
(PID.TID 0000.0001)     51 ............................................................................
(PID.TID 0000.0001)     50 ............................................................................
(PID.TID 0000.0001)     49 ............................................................................
(PID.TID 0000.0001)     48 ............................................................................
(PID.TID 0000.0001)     47 ............................................................................
(PID.TID 0000.0001)     46 ............................................................................
(PID.TID 0000.0001)     45 ............................................................................
(PID.TID 0000.0001)     44 ............................................................................
(PID.TID 0000.0001)     43 ............................................................................
(PID.TID 0000.0001)     42 ............................................................................
(PID.TID 0000.0001)     41 ............................................................................
(PID.TID 0000.0001)     40 ............................................................................
(PID.TID 0000.0001)     39 ............................................................................
(PID.TID 0000.0001)     38 ............................................................................
(PID.TID 0000.0001)     37 ............................................................................
(PID.TID 0000.0001)     36 ............................................................................
(PID.TID 0000.0001)     35 ............................................................................
(PID.TID 0000.0001)     34 ............................................................................
(PID.TID 0000.0001)     33 ............................................................................
(PID.TID 0000.0001)     32 ............................................................................
(PID.TID 0000.0001)     31 ............................................................................
(PID.TID 0000.0001)     30 ............................................................................
(PID.TID 0000.0001)     29 ............................................................................
(PID.TID 0000.0001)     28 ............................................................................
(PID.TID 0000.0001)     27 ............................................................................
(PID.TID 0000.0001)     26 ............................................................................
(PID.TID 0000.0001)     25 ............................................................................
(PID.TID 0000.0001)     24 ............................................................................
(PID.TID 0000.0001)     23 ............................................................................
(PID.TID 0000.0001)     22 ............................................................................
(PID.TID 0000.0001)     21 ............................................................................
(PID.TID 0000.0001)     20 ............................................................................
(PID.TID 0000.0001)     19 ............................................................................
(PID.TID 0000.0001)     18 ............................................................................
(PID.TID 0000.0001)     17 ............................................................................
(PID.TID 0000.0001)     16 ............................................................................
(PID.TID 0000.0001)     15 ............................................................................
(PID.TID 0000.0001)     14 ............................................................................
(PID.TID 0000.0001)     13 ............................................................................
(PID.TID 0000.0001)     12 ............................................................................
(PID.TID 0000.0001)     11 ............................................................................
(PID.TID 0000.0001)     10 ............................................................................
(PID.TID 0000.0001)      9 ............................................................................
(PID.TID 0000.0001)      8 ............................................................................
(PID.TID 0000.0001)      7 ............................................................................
(PID.TID 0000.0001)      6 ............................................................................
(PID.TID 0000.0001)      5 ............................................................................
(PID.TID 0000.0001)      4 ............................................................................
(PID.TID 0000.0001)      3 ............................................................................
(PID.TID 0000.0001)      2 ............................................................................
(PID.TID 0000.0001)      1 ............................................................................
(PID.TID 0000.0001)      0 ............................................................................
(PID.TID 0000.0001)     -1 ............................................................................
(PID.TID 0000.0001)     -2 ............................................................................
(PID.TID 0000.0001)     -3 ............................................................................
(PID.TID 0000.0001)     -4 ............................................................................
(PID.TID 0000.0001)     -5 ............................................................................
(PID.TID 0000.0001)     -6 ............................................................................
(PID.TID 0000.0001)     -7 ............................................................................
(PID.TID 0000.0001) // =======================================================
(PID.TID 0000.0001) // END OF FIELD                                          =
(PID.TID 0000.0001) // =======================================================
(PID.TID 0000.0001) 
(PID.TID 0000.0001)  MDS_WRITE_FIELD: it,rec,kS,kL,kH=  731523     1  90   1  90 file=U.0000731523
(PID.TID 0000.0001)  MDS_WRITE_FIELD: it,rec,kS,kL,kH=  731523     1  90   1  90 file=V.0000731523
(PID.TID 0000.0001)  MDS_WRITE_FIELD: it,rec,kS,kL,kH=  731523     1  90   1  90 file=T.0000731523
(PID.TID 0000.0001)  MDS_WRITE_FIELD: it,rec,kS,kL,kH=  731523     1  90   1  90 file=S.0000731523
(PID.TID 0000.0001)  MDS_WRITE_FIELD: it,rec,kS,kL,kH=  731523     1   1   1   1 file=Eta.0000731523
(PID.TID 0000.0001)  MDS_WRITE_FIELD: it,rec,kS,kL,kH=  731523     1  90   1  90 file=W.0000731523
(PID.TID 0000.0001)  MDS_WRITE_FIELD: it,rec,kS,kL,kH=  731523     1  90   1  90 file=PH.0000731523
(PID.TID 0000.0001)  MDS_WRITE_FIELD: it,rec,kS,kL,kH=  731523     1   1   1   1 file=PHL.0000731523
 Computing Diagnostic #     80  oceTAUX      Counter:       1   Parms: UU      U1      
           Vector  Mate for  oceTAUX      Diagnostic #     81  oceTAUY  exists 
(PID.TID 0000.0001)  MDS_WRITE_FIELD: it,rec,kS,kL,kH=  731522    -1 450   1   1 file=state_2d_set1.0000731522
 Computing Diagnostic #     81  oceTAUY      Counter:       1   Parms: VV      U1      
           Vector  Mate for  oceTAUY      Diagnostic #     80  oceTAUX  exists 
(PID.TID 0000.0001)  MDS_WRITE_FIELD: it,rec,kS,kL,kH=  731522    -2 450   1   1 file=state_2d_set1.0000731522
 Computing Diagnostic #     84  oceFWflx     Counter:       1   Parms: SM      U1      
(PID.TID 0000.0001)  MDS_WRITE_FIELD: it,rec,kS,kL,kH=  731522    -3 450   1   1 file=state_2d_set1.0000731522
 Computing Diagnostic #     85  oceSflux     Counter:       1   Parms: SM      U1      
(PID.TID 0000.0001)  MDS_WRITE_FIELD: it,rec,kS,kL,kH=  731522    -4 450   1   1 file=state_2d_set1.0000731522
 Computing Diagnostic #     86  oceQnet      Counter:       1   Parms: SM      U1      
(PID.TID 0000.0001)  MDS_WRITE_FIELD: it,rec,kS,kL,kH=  731522    -5 450   1   1 file=state_2d_set1.0000731522
 Computing Diagnostic #     87  oceQsw       Counter:       1   Parms: SM      U1      
(PID.TID 0000.0001)  MDS_WRITE_FIELD: it,rec,kS,kL,kH=  731522    -6 450   1   1 file=state_2d_set1.0000731522
 Computing Diagnostic #     27  SALT         Counter:       1   Parms: SMR     MR      
(PID.TID 0000.0001)  MDS_WRITE_FIELD: it,rec,kS,kL,kH=  731522    -1 450   1   1 file=state_3d_set1.0000731522
 Computing Diagnostic #     26  THETA        Counter:       1   Parms: SMR     MR      
(PID.TID 0000.0001)  MDS_WRITE_FIELD: it,rec,kS,kL,kH=  731522    -2 450   1   1 file=state_3d_set1.0000731522
 Computing Diagnostic #     45  UVELMASS     Counter:       1   Parms: UUr     MR      
           Vector  Mate for  UVELMASS     Diagnostic #     46  VVELMASS exists 
(PID.TID 0000.0001)  MDS_WRITE_FIELD: it,rec,kS,kL,kH=  731522    -3 450   1   1 file=state_3d_set1.0000731522
 Computing Diagnostic #     46  VVELMASS     Counter:       1   Parms: VVr     MR      
           Vector  Mate for  VVELMASS     Diagnostic #     45  UVELMASS exists 
(PID.TID 0000.0001)  MDS_WRITE_FIELD: it,rec,kS,kL,kH=  731522    -4 450   1   1 file=state_3d_set1.0000731522
(PID.TID 0000.0001)  write diagnostics summary to file: diagnostics_status.0000731523.txt
(PID.TID 0000.0001) DEBUG_MSG: LEAVING S/R FORWARD_STEP
 AGCM Date: 2012/02/02  Time: 21:15:00
 Writing:    483 Slices ( 69 Nodes, 68 PartitionRoot) to File:  TEST.geosgcm_prog.20120202_2115z.nc4
 Writing:    148 Slices ( 22 Nodes, 18 PartitionRoot) to File:  TEST.geosgcm_surf.20120202_2115z.nc4
 Writing:    196 Slices ( 28 Nodes, 40 PartitionRoot) to File:  TEST.mit_ocn.20120202_2115z.nc4
 Writing:     60 Slices (  9 Nodes,  9 PartitionRoot) to File:  TEST.mit_ice.20120202_2115z.nc4
 Writing:     40 Slices (  6 Nodes,  3 PartitionRoot) to File:  TEST.mit_ice_all.20120202_2115z.nc4
 Writing:     10 Slices (  2 Nodes,  1 PartitionRoot) to File:  TEST.mit_snow_all.20120202_2115z.nc4
(PID.TID 0000.0001) DEBUG_MSG: ENTERED S/R FORWARD_STEP
(PID.TID 0000.0001) DEBUG_MSG: CALLING S/R LOAD_FIELDS_DRIVER
(PID.TID 0000.0001) DEBUG_MSG: ENTERED S/R LOAD_FIELDS_DRIVER
(PID.TID 0000.0001) DEBUG_MSG: CALLING S/R EXTERNAL_FIELDS_LOAD
(PID.TID 0000.0001) DEBUG_MSG: LEAVING S/R LOAD_FIELDS_DRIVER
(PID.TID 0000.0001) DEBUG_MSG: CALLING S/R DO_ATMOSPHERIC_PHYS
(PID.TID 0000.0001) DEBUG_MSG: ENTERED S/R DO_ATMOSPHERIC_PHYS
(PID.TID 0000.0001) DEBUG_MSG: LEAVING S/R DO_ATMOSPHERIC_PHYS
(PID.TID 0000.0001) DEBUG_MSG: CALLING S/R DO_OCEANIC_PHYS
(PID.TID 0000.0001) DEBUG_MSG: ENTERED S/R DO_OCEANIC_PHYS
(PID.TID 0000.0001) DEBUG_MSG: CALLING S/R EXTERNAL_FORCING_SURF
(PID.TID 0000.0001) DEBUG_MSG: CALLING S/R FIND_RHO_2D (xNr)
(PID.TID 0000.0001) DEBUG_MSG:                  ENTERING UPWARD K LOOP (bi=   1, bj=   1)
(PID.TID 0000.0001) DEBUG_MSG: CALLING S/R KPP_CALC
(PID.TID 0000.0001) DEBUG_MSG: LEAVING S/R DO_OCEANIC_PHYS
(PID.TID 0000.0001) DEBUG_MSG: CALLING S/R DYNAMICS
(PID.TID 0000.0001) DEBUG_MSG: ENTERED S/R DYNAMICS
DEBUG_STATS_RL:                EtaN (DYNAMICS)  min= -1.14448330664267E+01
DEBUG_STATS_RL:                EtaN (DYNAMICS)  max=  1.02707290306950E+01
DEBUG_STATS_RL:                EtaN (DYNAMICS) mean= -2.69603365494908E-01
DEBUG_STATS_RL:                EtaN (DYNAMICS) S.D.=  9.75014136905037E-01
DEBUG_STATS_RL:                Uvel (DYNAMICS)  min= -5.63855822004905E+00
DEBUG_STATS_RL:                Uvel (DYNAMICS)  max=  7.83389684184561E+00
DEBUG_STATS_RL:                Uvel (DYNAMICS) mean=  6.24245845508676E-03
DEBUG_STATS_RL:                Uvel (DYNAMICS) S.D.=  1.04694257007502E-01
DEBUG_STATS_RL:                Vvel (DYNAMICS)  min= -1.92978589340358E+01
DEBUG_STATS_RL:                Vvel (DYNAMICS)  max=  5.34753589615188E+00
DEBUG_STATS_RL:                Vvel (DYNAMICS) mean=  4.90102244173758E-03
DEBUG_STATS_RL:                Vvel (DYNAMICS) S.D.=  1.08482712611591E-01
DEBUG_STATS_RL:                Wvel (DYNAMICS)  min= -4.73760829391794E-01
DEBUG_STATS_RL:                Wvel (DYNAMICS)  max=  4.82054257305262E-01
DEBUG_STATS_RL:                Wvel (DYNAMICS) mean=  1.94295144870325E-07
DEBUG_STATS_RL:                Wvel (DYNAMICS) S.D.=  5.03564909075080E-03
DEBUG_STATS_RL:               Theta (DYNAMICS)  min= -1.69194901630670E+01
DEBUG_STATS_RL:               Theta (DYNAMICS)  max=  6.38346094952567E+01
DEBUG_STATS_RL:               Theta (DYNAMICS) mean=  6.24716129828367E+00
DEBUG_STATS_RL:               Theta (DYNAMICS) S.D.=  7.51280686622590E+00
DEBUG_STATS_RL:                Salt (DYNAMICS)  min=  5.26862743701794E+00
DEBUG_STATS_RL:                Salt (DYNAMICS)  max=  2.95593144064072E+02
DEBUG_STATS_RL:                Salt (DYNAMICS) mean=  3.45712903805622E+01
DEBUG_STATS_RL:                Salt (DYNAMICS) S.D.=  9.57973329042408E-01
DEBUG_STATS_RL:                  Gu (DYNAMICS)  min= -1.42497529254927E+01
DEBUG_STATS_RL:                  Gu (DYNAMICS)  max=  5.56129995696517E+00
DEBUG_STATS_RL:                  Gu (DYNAMICS) mean=  6.10223353709238E-03
DEBUG_STATS_RL:                  Gu (DYNAMICS) S.D.=  1.06851142416486E-01
DEBUG_STATS_RL:                  Gv (DYNAMICS)  min= -8.91361533455826E+00
DEBUG_STATS_RL:                  Gv (DYNAMICS)  max=  7.60662276387114E+01
DEBUG_STATS_RL:                  Gv (DYNAMICS) mean=  5.18790249348254E-03
DEBUG_STATS_RL:                  Gv (DYNAMICS) S.D.=  1.10737218664953E-01
DEBUG_STATS_RL:               GuNm1 (DYNAMICS)  min= -2.73582411522701E-02
DEBUG_STATS_RL:               GuNm1 (DYNAMICS)  max=  3.35770491020623E-02
DEBUG_STATS_RL:               GuNm1 (DYNAMICS) mean= -5.02612949008271E-07
DEBUG_STATS_RL:               GuNm1 (DYNAMICS) S.D.=  1.08947834308574E-05
DEBUG_STATS_RL:               GvNm1 (DYNAMICS)  min= -3.51628523454287E-02
DEBUG_STATS_RL:               GvNm1 (DYNAMICS)  max=  1.30686441817957E-01
DEBUG_STATS_RL:               GvNm1 (DYNAMICS) mean=  5.23170082761235E-07
DEBUG_STATS_RL:               GvNm1 (DYNAMICS) S.D.=  1.20958511747736E-05
DEBUG_STATS_RL:               GtNm1 (DYNAMICS)  min=  0.00000000000000E+00
DEBUG_STATS_RL:               GtNm1 (DYNAMICS)  max=  0.00000000000000E+00
DEBUG_STATS_RL:               GtNm1 (DYNAMICS) mean=  0.00000000000000E+00
DEBUG_STATS_RL:               GtNm1 (DYNAMICS) S.D.=  0.00000000000000E+00
DEBUG_STATS_RL:               GsNm1 (DYNAMICS)  min=  0.00000000000000E+00
DEBUG_STATS_RL:               GsNm1 (DYNAMICS)  max=  0.00000000000000E+00
DEBUG_STATS_RL:               GsNm1 (DYNAMICS) mean=  0.00000000000000E+00
DEBUG_STATS_RL:               GsNm1 (DYNAMICS) S.D.=  0.00000000000000E+00
(PID.TID 0000.0001) DEBUG_MSG: LEAVING S/R DYNAMICS
DEBUG_STATS_RL:    cg2d_b (SOLVE_FOR_PRESSURE)  min= -1.89397016424197E+05
DEBUG_STATS_RL:    cg2d_b (SOLVE_FOR_PRESSURE)  max=  1.67600153613337E+05
DEBUG_STATS_RL:    cg2d_b (SOLVE_FOR_PRESSURE) mean= -8.15098240972260E+01
DEBUG_STATS_RL:    cg2d_b (SOLVE_FOR_PRESSURE) S.D.=  3.56839320463708E+03
 cg2d: Sum(rhs),rhsMax =  -3.79127960666684E+03  2.48697488294903E+01
(PID.TID 0000.0001)  cg2d: iter=     1 ; resid.=  1.28875362107284E+00
(PID.TID 0000.0001)  cg2d: iter=     2 ; resid.=  9.78209005961083E-01
(PID.TID 0000.0001)  cg2d: iter=     3 ; resid.=  9.52061008315358E-01
(PID.TID 0000.0001)  cg2d: iter=     4 ; resid.=  9.94024889449294E-01
(PID.TID 0000.0001)  cg2d: iter=     5 ; resid.=  9.58462068695938E-01
(PID.TID 0000.0001)  cg2d: iter=     6 ; resid.=  8.31318356346733E-01
(PID.TID 0000.0001)  cg2d: iter=     7 ; resid.=  6.68237757160989E-01
(PID.TID 0000.0001)  cg2d: iter=     8 ; resid.=  5.40751540294121E-01
(PID.TID 0000.0001)  cg2d: iter=     9 ; resid.=  4.64933995301073E-01
(PID.TID 0000.0001)  cg2d: iter=    10 ; resid.=  4.28275974459628E-01
(PID.TID 0000.0001)  cg2d: iter=    11 ; resid.=  3.96254033494343E-01
(PID.TID 0000.0001)  cg2d: iter=    12 ; resid.=  3.56881805054778E-01
(PID.TID 0000.0001)  cg2d: iter=    13 ; resid.=  3.11555854663100E-01
(PID.TID 0000.0001)  cg2d: iter=    14 ; resid.=  2.77545759805375E-01
(PID.TID 0000.0001)  cg2d: iter=    15 ; resid.=  2.58543331463089E-01
(PID.TID 0000.0001)  cg2d: iter=    16 ; resid.=  2.49024339859649E-01
(PID.TID 0000.0001)  cg2d: iter=    17 ; resid.=  2.42691796114623E-01
(PID.TID 0000.0001)  cg2d: iter=    18 ; resid.=  2.32503974096268E-01
(PID.TID 0000.0001)  cg2d: iter=    19 ; resid.=  2.16878233109688E-01
(PID.TID 0000.0001)  cg2d: iter=    20 ; resid.=  2.03115360693140E-01
(PID.TID 0000.0001)  cg2d: iter=    21 ; resid.=  1.99509434540661E-01
(PID.TID 0000.0001)  cg2d: iter=    22 ; resid.=  2.04607437949543E-01
(PID.TID 0000.0001)  cg2d: iter=    23 ; resid.=  2.05133457473751E-01
(PID.TID 0000.0001)  cg2d: iter=    24 ; resid.=  1.93705712284570E-01
(PID.TID 0000.0001)  cg2d: iter=    25 ; resid.=  1.78539595178911E-01
(PID.TID 0000.0001)  cg2d: iter=    26 ; resid.=  1.67461847844690E-01
(PID.TID 0000.0001)  cg2d: iter=    27 ; resid.=  1.60738841590770E-01
(PID.TID 0000.0001)  cg2d: iter=    28 ; resid.=  1.54535976246773E-01
(PID.TID 0000.0001)  cg2d: iter=    29 ; resid.=  1.47079954619997E-01
(PID.TID 0000.0001)  cg2d: iter=    30 ; resid.=  1.36852993307392E-01
(PID.TID 0000.0001)  cg2d: iter=    31 ; resid.=  1.24316465799775E-01
(PID.TID 0000.0001)  cg2d: iter=    32 ; resid.=  1.13283184947355E-01
(PID.TID 0000.0001)  cg2d: iter=    33 ; resid.=  1.05883772144118E-01
(PID.TID 0000.0001)  cg2d: iter=    34 ; resid.=  9.89458988210885E-02
(PID.TID 0000.0001)  cg2d: iter=    35 ; resid.=  9.19062048826245E-02
(PID.TID 0000.0001)  cg2d: iter=    36 ; resid.=  8.56857342287878E-02
(PID.TID 0000.0001)  cg2d: iter=    37 ; resid.=  7.91880674606069E-02
(PID.TID 0000.0001)  cg2d: iter=    38 ; resid.=  7.23375883360590E-02
(PID.TID 0000.0001)  cg2d: iter=    39 ; resid.=  6.70398676075196E-02
(PID.TID 0000.0001)  cg2d: iter=    40 ; resid.=  6.34951663460844E-02
(PID.TID 0000.0001)  cg2d: iter=    41 ; resid.=  6.01776952269719E-02
(PID.TID 0000.0001)  cg2d: iter=    42 ; resid.=  5.57842093350491E-02
(PID.TID 0000.0001)  cg2d: iter=    43 ; resid.=  5.09921349359487E-02
(PID.TID 0000.0001)  cg2d: iter=    44 ; resid.=  4.75541764323446E-02
(PID.TID 0000.0001)  cg2d: iter=    45 ; resid.=  4.50281445498921E-02
(PID.TID 0000.0001)  cg2d: iter=    46 ; resid.=  4.25031455748252E-02
(PID.TID 0000.0001)  cg2d: iter=    47 ; resid.=  3.92193513262921E-02
(PID.TID 0000.0001)  cg2d: iter=    48 ; resid.=  3.57359573706944E-02
(PID.TID 0000.0001)  cg2d: iter=    49 ; resid.=  3.37863034296884E-02
(PID.TID 0000.0001)  cg2d: iter=    50 ; resid.=  3.04133775476200E-02
(PID.TID 0000.0001)  cg2d: iter=    51 ; resid.=  2.97670559152953E-02
(PID.TID 0000.0001)  cg2d: iter=    52 ; resid.=  2.80410260411715E-02
(PID.TID 0000.0001)  cg2d: iter=    53 ; resid.=  2.58010525691645E-02
(PID.TID 0000.0001)  cg2d: iter=    54 ; resid.=  2.37874885262619E-02
(PID.TID 0000.0001)  cg2d: iter=    55 ; resid.=  2.21765693554714E-02
(PID.TID 0000.0001)  cg2d: iter=    56 ; resid.=  2.04920763441938E-02
(PID.TID 0000.0001)  cg2d: iter=    57 ; resid.=  1.91444435697457E-02
(PID.TID 0000.0001)  cg2d: iter=    58 ; resid.=  1.83159574865002E-02
(PID.TID 0000.0001)  cg2d: iter=    59 ; resid.=  1.75174011793542E-02
(PID.TID 0000.0001)  cg2d: iter=    60 ; resid.=  1.63589740424873E-02
(PID.TID 0000.0001)  cg2d: iter=    61 ; resid.=  1.50324676976078E-02
(PID.TID 0000.0001)  cg2d: iter=    62 ; resid.=  1.39531505267137E-02
(PID.TID 0000.0001)  cg2d: iter=    63 ; resid.=  1.32067130868137E-02
(PID.TID 0000.0001)  cg2d: iter=    64 ; resid.=  1.27424888591871E-02
(PID.TID 0000.0001)  cg2d: iter=    65 ; resid.=  1.21620932898306E-02
(PID.TID 0000.0001)  cg2d: iter=    66 ; resid.=  1.12917165627981E-02
(PID.TID 0000.0001)  cg2d: iter=    67 ; resid.=  1.02915938689911E-02
(PID.TID 0000.0001)  cg2d: iter=    68 ; resid.=  9.67874498129467E-03
(PID.TID 0000.0001)  cg2d: iter=    69 ; resid.=  9.34799674403125E-03
(PID.TID 0000.0001)  cg2d: iter=    70 ; resid.=  8.95529079581636E-03
(PID.TID 0000.0001)  cg2d: iter=    71 ; resid.=  8.36427105136924E-03
(PID.TID 0000.0001)  cg2d: iter=    72 ; resid.=  7.76437164235217E-03
(PID.TID 0000.0001)  cg2d: iter=    73 ; resid.=  7.16501395581794E-03
(PID.TID 0000.0001)  cg2d: iter=    74 ; resid.=  6.64738327895694E-03
(PID.TID 0000.0001)  cg2d: iter=    75 ; resid.=  6.23467717633309E-03
(PID.TID 0000.0001)  cg2d: iter=    76 ; resid.=  5.85609058102479E-03
(PID.TID 0000.0001)  cg2d: iter=    77 ; resid.=  5.45102189820289E-03
(PID.TID 0000.0001)  cg2d: iter=    78 ; resid.=  5.02077075241947E-03
(PID.TID 0000.0001)  cg2d: iter=    79 ; resid.=  4.68802323977153E-03
(PID.TID 0000.0001)  cg2d: iter=    80 ; resid.=  4.45164040554773E-03
(PID.TID 0000.0001)  cg2d: iter=    81 ; resid.=  4.23587427340963E-03
(PID.TID 0000.0001)  cg2d: iter=    82 ; resid.=  3.99322042083815E-03
(PID.TID 0000.0001)  cg2d: iter=    83 ; resid.=  3.69050987920910E-03
(PID.TID 0000.0001)  cg2d: iter=    84 ; resid.=  3.38024729120283E-03
(PID.TID 0000.0001)  cg2d: iter=    85 ; resid.=  3.11878601200481E-03
(PID.TID 0000.0001)  cg2d: iter=    86 ; resid.=  2.96049255969587E-03
(PID.TID 0000.0001)  cg2d: iter=    87 ; resid.=  2.83900299481496E-03
(PID.TID 0000.0001)  cg2d: iter=    88 ; resid.=  2.67252651119432E-03
(PID.TID 0000.0001)  cg2d: iter=    89 ; resid.=  2.46805844325436E-03
(PID.TID 0000.0001)  cg2d: iter=    90 ; resid.=  2.26859335580492E-03
(PID.TID 0000.0001)  cg2d: iter=    91 ; resid.=  2.10573928605517E-03
(PID.TID 0000.0001)  cg2d: iter=    92 ; resid.=  1.99707953802415E-03
(PID.TID 0000.0001)  cg2d: iter=    93 ; resid.=  1.90339761888006E-03
(PID.TID 0000.0001)  cg2d: iter=    94 ; resid.=  1.79439254787035E-03
(PID.TID 0000.0001)  cg2d: iter=    95 ; resid.=  1.65925864750391E-03
(PID.TID 0000.0001)  cg2d: iter=    96 ; resid.=  1.53519567462341E-03
(PID.TID 0000.0001)  cg2d: iter=    97 ; resid.=  1.43858783690218E-03
(PID.TID 0000.0001)  cg2d: iter=    98 ; resid.=  1.36773003055663E-03
(PID.TID 0000.0001)  cg2d: iter=    99 ; resid.=  1.34508266182231E-03
(PID.TID 0000.0001)  cg2d: iter=   100 ; resid.=  1.27794087800134E-03
DEBUG_STATS_RL:    cg2d_x (SOLVE_FOR_PRESSURE)  min= -1.12302555402044E+02
DEBUG_STATS_RL:    cg2d_x (SOLVE_FOR_PRESSURE)  max=  1.00755849459859E+02
DEBUG_STATS_RL:    cg2d_x (SOLVE_FOR_PRESSURE) mean= -2.64344003573660E+00
DEBUG_STATS_RL:    cg2d_x (SOLVE_FOR_PRESSURE) S.D.=  9.51951401687336E+00
(PID.TID 0000.0001)      cg2d_init_res =   2.41938094745936E+00
(PID.TID 0000.0001)      cg2d_iters(min,last) =      -1     100
(PID.TID 0000.0001)      cg2d_last_res =   1.27794087800134E-03
(PID.TID 0000.0001) DEBUG_MSG: CALLING S/R UPDATE_ETAH
(PID.TID 0000.0001) DEBUG_MSG: CALLING S/R DO_STAGGER_FIELDS_EXCH.
(PID.TID 0000.0001) DEBUG_MSG: CALLING S/R THERMODYNAMICS
(PID.TID 0000.0001) DEBUG_MSG: ENTERED S/R THERMODYNAMICS
(PID.TID 0000.0001) DEBUG_MSG: CALLING S/R TEMP_INTEGRATE
(PID.TID 0000.0001) DEBUG_MSG: CALLING S/R GAD_ADVECTION
(PID.TID 0000.0001) DEBUG_MSG: CALLING S/R SALT_INTEGRATE
(PID.TID 0000.0001) DEBUG_MSG: CALLING S/R GAD_ADVECTION
DEBUG_STATS_RL:          Uvel (THERMODYNAMICS)  min= -1.23256683903943E+01
DEBUG_STATS_RL:          Uvel (THERMODYNAMICS)  max=  7.98862483634469E+00
DEBUG_STATS_RL:          Uvel (THERMODYNAMICS) mean=  6.43622475856697E-03
DEBUG_STATS_RL:          Uvel (THERMODYNAMICS) S.D.=  1.06546892540676E-01
DEBUG_STATS_RL:          Vvel (THERMODYNAMICS)  min= -6.61355283948712E+00
DEBUG_STATS_RL:          Vvel (THERMODYNAMICS)  max=  6.71295989303436E+01
DEBUG_STATS_RL:          Vvel (THERMODYNAMICS) mean=  4.91605563593574E-03
DEBUG_STATS_RL:          Vvel (THERMODYNAMICS) S.D.=  1.10479373048110E-01
DEBUG_STATS_RL:          Wvel (THERMODYNAMICS)  min= -6.36633318226162E-01
DEBUG_STATS_RL:          Wvel (THERMODYNAMICS)  max=  6.39243746701487E-01
DEBUG_STATS_RL:          Wvel (THERMODYNAMICS) mean=  4.06851803078115E-07
DEBUG_STATS_RL:          Wvel (THERMODYNAMICS) S.D.=  7.00911354533504E-03
DEBUG_STATS_RL:         Theta (THERMODYNAMICS)  min= -1.69194901630670E+01
DEBUG_STATS_RL:         Theta (THERMODYNAMICS)  max=  6.46857283127775E+01
DEBUG_STATS_RL:         Theta (THERMODYNAMICS) mean=  6.24805823681588E+00
DEBUG_STATS_RL:         Theta (THERMODYNAMICS) S.D.=  7.51341412315345E+00
DEBUG_STATS_RL:          Salt (THERMODYNAMICS)  min=  5.26862743701794E+00
DEBUG_STATS_RL:          Salt (THERMODYNAMICS)  max=  2.95593144064072E+02
DEBUG_STATS_RL:          Salt (THERMODYNAMICS) mean=  3.45710359970193E+01
DEBUG_STATS_RL:          Salt (THERMODYNAMICS) S.D.=  9.58273038713619E-01
DEBUG_STATS_RL:         GtNm1 (THERMODYNAMICS)  min=  0.00000000000000E+00
DEBUG_STATS_RL:         GtNm1 (THERMODYNAMICS)  max=  0.00000000000000E+00
DEBUG_STATS_RL:         GtNm1 (THERMODYNAMICS) mean=  0.00000000000000E+00
DEBUG_STATS_RL:         GtNm1 (THERMODYNAMICS) S.D.=  0.00000000000000E+00
DEBUG_STATS_RL:         GsNm1 (THERMODYNAMICS)  min=  0.00000000000000E+00
DEBUG_STATS_RL:         GsNm1 (THERMODYNAMICS)  max=  0.00000000000000E+00
DEBUG_STATS_RL:         GsNm1 (THERMODYNAMICS) mean=  0.00000000000000E+00
DEBUG_STATS_RL:         GsNm1 (THERMODYNAMICS) S.D.=  0.00000000000000E+00
(PID.TID 0000.0001) DEBUG_MSG: LEAVING S/R THERMODYNAMICS
(PID.TID 0000.0001) // =======================================================
(PID.TID 0000.0001) // Begin MONITOR dynamic field statistics
(PID.TID 0000.0001) // =======================================================
(PID.TID 0000.0001) %MON time_tsnumber                =                731524
(PID.TID 0000.0001) %MON time_secondsf                =   2.1945720000000E+08
(PID.TID 0000.0001) %MON dynstat_eta_max              =   1.0270728793089E+01
(PID.TID 0000.0001) %MON dynstat_eta_min              =  -1.1447757907187E+01
(PID.TID 0000.0001) %MON dynstat_eta_mean             =   1.7979462214353E-01
(PID.TID 0000.0001) %MON dynstat_eta_sd               =   7.7890900893612E-01
(PID.TID 0000.0001) %MON dynstat_eta_del2             =   2.3281919679809E-05
(PID.TID 0000.0001) %MON dynstat_uvel_max             =   7.9886248363447E+00
(PID.TID 0000.0001) %MON dynstat_uvel_min             =  -1.2325668390394E+01
(PID.TID 0000.0001) %MON dynstat_uvel_mean            =   3.4334861826479E-03
(PID.TID 0000.0001) %MON dynstat_uvel_sd              =   6.2203840444074E-02
(PID.TID 0000.0001) %MON dynstat_uvel_del2            =   3.3307749788210E-06
(PID.TID 0000.0001) %MON dynstat_vvel_max             =   6.7129598930344E+01
(PID.TID 0000.0001) %MON dynstat_vvel_min             =  -6.6135528394871E+00
(PID.TID 0000.0001) %MON dynstat_vvel_mean            =   7.0650488723993E-04
(PID.TID 0000.0001) %MON dynstat_vvel_sd              =   6.4631995457699E-02
(PID.TID 0000.0001) %MON dynstat_vvel_del2            =   3.3885482761231E-06
(PID.TID 0000.0001) %MON dynstat_wvel_max             =   6.3924374670149E-01
(PID.TID 0000.0001) %MON dynstat_wvel_min             =  -6.3663331822616E-01
(PID.TID 0000.0001) %MON dynstat_wvel_mean            =   8.5067109808051E-19
(PID.TID 0000.0001) %MON dynstat_wvel_sd              =   1.0573283872310E-02
(PID.TID 0000.0001) %MON dynstat_wvel_del2            =   1.0636304513297E-06
(PID.TID 0000.0001) %MON dynstat_theta_max            =   6.4685728312777E+01
(PID.TID 0000.0001) %MON dynstat_theta_min            =  -6.3839035849233E+00
(PID.TID 0000.0001) %MON dynstat_theta_mean           =   3.6452289294002E+00
(PID.TID 0000.0001) %MON dynstat_theta_sd             =   4.3098050308348E+00
(PID.TID 0000.0001) %MON dynstat_theta_del2           =   4.4364645668996E-05
(PID.TID 0000.0001) %MON dynstat_salt_max             =   7.7723681980632E+01
(PID.TID 0000.0001) %MON dynstat_salt_min             =   8.4062978102482E+00
(PID.TID 0000.0001) %MON dynstat_salt_mean            =   3.4722532433928E+01
(PID.TID 0000.0001) %MON dynstat_salt_sd              =   4.3214222886474E-01
(PID.TID 0000.0001) %MON dynstat_salt_del2            =   6.0250212427728E-06
(PID.TID 0000.0001) %MON dynstat_sst_max              =   6.4685728312777E+01
(PID.TID 0000.0001) %MON dynstat_sst_min              =  -6.3839035849233E+00
(PID.TID 0000.0001) %MON dynstat_sst_mean             =   1.7174803877614E+01
(PID.TID 0000.0001) %MON dynstat_sst_sd               =   9.7469197062155E+00
(PID.TID 0000.0001) %MON dynstat_sst_del2             =   5.2269701021766E-04
(PID.TID 0000.0001) %MON dynstat_sss_max              =   7.6646466853450E+01
(PID.TID 0000.0001) %MON dynstat_sss_min              =   8.4062978102482E+00
(PID.TID 0000.0001) %MON dynstat_sss_mean             =   3.4574273605508E+01
(PID.TID 0000.0001) %MON dynstat_sss_sd               =   1.5925709034285E+00
(PID.TID 0000.0001) %MON dynstat_sss_del2             =   9.3759231153286E-05
(PID.TID 0000.0001) %MON forcing_qnet_max             =   6.4728743750000E+05
(PID.TID 0000.0001) %MON forcing_qnet_min             =  -2.6544353125000E+05
(PID.TID 0000.0001) %MON forcing_qnet_mean            =  -7.5573796950735E+02
(PID.TID 0000.0001) %MON forcing_qnet_sd              =   2.5403083158219E+03
(PID.TID 0000.0001) %MON forcing_qnet_del2            =   1.2207639948302E+00
(PID.TID 0000.0001) %MON forcing_qsw_max              =   0.0000000000000E+00
(PID.TID 0000.0001) %MON forcing_qsw_min              =   0.0000000000000E+00
(PID.TID 0000.0001) %MON forcing_qsw_mean             =   0.0000000000000E+00
(PID.TID 0000.0001) %MON forcing_qsw_sd               =   0.0000000000000E+00
(PID.TID 0000.0001) %MON forcing_qsw_del2             =   0.0000000000000E+00
(PID.TID 0000.0001) %MON forcing_empmr_max            =   4.0849657058716E+00
(PID.TID 0000.0001) %MON forcing_empmr_min            =  -2.1430048942566E+00
(PID.TID 0000.0001) %MON forcing_empmr_mean           =   5.5803374664822E-05
(PID.TID 0000.0001) %MON forcing_empmr_sd             =   7.6615923074871E-03
(PID.TID 0000.0001) %MON forcing_empmr_del2           =   4.1093482949223E-06
(PID.TID 0000.0001) %MON forcing_fu_max               =   1.5759303569794E+00
(PID.TID 0000.0001) %MON forcing_fu_min               =  -1.0914772748947E+00
(PID.TID 0000.0001) %MON forcing_fu_mean              =   1.6232843402132E-02
(PID.TID 0000.0001) %MON forcing_fu_sd                =   1.5468549171377E-01
(PID.TID 0000.0001) %MON forcing_fu_del2              =   2.4037937135073E-06
(PID.TID 0000.0001) %MON forcing_fv_max               =   1.3113777637482E+00
(PID.TID 0000.0001) %MON forcing_fv_min               =  -1.5397227242230E+00
(PID.TID 0000.0001) %MON forcing_fv_mean              =  -2.7196045016569E-03
(PID.TID 0000.0001) %MON forcing_fv_sd                =   1.5469889963480E-01
(PID.TID 0000.0001) %MON forcing_fv_del2              =   1.9130633872189E-06
(PID.TID 0000.0001) %MON trAdv_CFL_u_max              =   1.5452495697235E+00
(PID.TID 0000.0001) %MON trAdv_CFL_v_max              =   7.3026597066916E+00
(PID.TID 0000.0001) %MON trAdv_CFL_w_max              =   1.2438776605957E+01
(PID.TID 0000.0001) %MON advcfl_uvel_max              =   1.5432180469090E+00
(PID.TID 0000.0001) %MON advcfl_vvel_max              =   7.3004792476388E+00
(PID.TID 0000.0001) %MON advcfl_wvel_max              =   2.0442580848505E+01
(PID.TID 0000.0001) %MON advcfl_W_hf_max              =   1.2438776605957E+01
(PID.TID 0000.0001) %MON pe_b_mean                    =   8.4629190257372E-04
(PID.TID 0000.0001) %MON ke_max                       =   1.1352223946466E+03
(PID.TID 0000.0001) %MON ke_mean                      =   3.9752073503839E-03
(PID.TID 0000.0001) %MON ke_vol                       =   1.3321941752083E+18
(PID.TID 0000.0001) %MON vort_r_min                   =  -2.4783496338120E-02
(PID.TID 0000.0001) %MON vort_r_max                   =   2.5038493085207E-02
(PID.TID 0000.0001) %MON vort_a_mean                  =  -1.9843068486698E-05
(PID.TID 0000.0001) %MON vort_a_sd                    =   7.4715195484094E-05
(PID.TID 0000.0001) %MON vort_p_mean                  =  -2.0738617285037E-05
(PID.TID 0000.0001) %MON vort_p_sd                    =   8.3588455045358E-05
(PID.TID 0000.0001) %MON surfExpan_theta_mean         =   1.8063592261408E-04
(PID.TID 0000.0001) %MON surfExpan_salt_mean          =  -6.3519052380729E-07
(PID.TID 0000.0001) // =======================================================
(PID.TID 0000.0001) // End MONITOR dynamic field statistics
(PID.TID 0000.0001) // =======================================================
(PID.TID 0000.0001) // =======================================================
(PID.TID 0000.0001) // Field Current uVel   at iteration     731524
(PID.TID 0000.0001) // CMIN =         -2.398914810728605E-01
(PID.TID 0000.0001) // CMAX =          1.872874256176564E-01
(PID.TID 0000.0001) // CINT =          1.582144098853766E-02
(PID.TID 0000.0001) // SYMBOLS (CMIN->CMAX): -abcdefghijklmnopqrstuvwxyz+
(PID.TID 0000.0001) //                  0.0: .
(PID.TID 0000.0001) // RANGE I (Lo:Hi:Step):(     1:    60:     1)
(PID.TID 0000.0001) // RANGE J (Lo:Hi:Step):(    60:     1:    -1)
(PID.TID 0000.0001) // RANGE K (Lo:Hi:Step):(   1:   1:   1)
(PID.TID 0000.0001) // =======================================================
(PID.TID 0000.0001) K =   1
(PID.TID 0000.0001)                I=10      I=20      I=30      I=40      I=50      I=60
(PID.TID 0000.0001) |--J--|123456789|123456789|123456789|123456789|123456789|123456789|
(PID.TID 0000.0001)     60 edccdefhjkkllmmmmmmlkjijihgg................................
(PID.TID 0000.0001)     59 ccbbdfhjlmmmmmmmllkjjjkkjij.................................
(PID.TID 0000.0001)     58 ffeeefghikkkjjjjiijkkkkjhjj.................................
(PID.TID 0000.0001)     57 gfedccdefgiihghghjijjkjilr..................................
(PID.TID 0000.0001)     56 lkkigffeca-adeeghgghhijj....................................
(PID.TID 0000.0001)     55 ommnnnmkjgeeedbhgfefiijj....................................
(PID.TID 0000.0001)     54 ........noq+.......mlll.....................................
(PID.TID 0000.0001)     53 ............................................................
(PID.TID 0000.0001)     52 ............................................................
(PID.TID 0000.0001)     51 ............................................................
(PID.TID 0000.0001)     50 ............................................................
(PID.TID 0000.0001)     49 ............................................................
(PID.TID 0000.0001)     48 ............................................................
(PID.TID 0000.0001)     47 ............................................................
(PID.TID 0000.0001)     46 ............................................................
(PID.TID 0000.0001)     45 ............................................................
(PID.TID 0000.0001)     44 ............................................................
(PID.TID 0000.0001)     43 ............................................................
(PID.TID 0000.0001)     42 ............................................................
(PID.TID 0000.0001)     41 ............................................................
(PID.TID 0000.0001)     40 ............................................................
(PID.TID 0000.0001)     39 ............................................................
(PID.TID 0000.0001)     38 ............................................................
(PID.TID 0000.0001)     37 ............................................................
(PID.TID 0000.0001)     36 ............................................................
(PID.TID 0000.0001)     35 ............................................................
(PID.TID 0000.0001)     34 ............................................................
(PID.TID 0000.0001)     33 ............................................................
(PID.TID 0000.0001)     32 ............................................................
(PID.TID 0000.0001)     31 ............................................................
(PID.TID 0000.0001)     30 ............................................................
(PID.TID 0000.0001)     29 ............................................................
(PID.TID 0000.0001)     28 ............................................................
(PID.TID 0000.0001)     27 ............................................................
(PID.TID 0000.0001)     26 ............................................................
(PID.TID 0000.0001)     25 ............................................................
(PID.TID 0000.0001)     24 ............................................................
(PID.TID 0000.0001)     23 ............................................................
(PID.TID 0000.0001)     22 ............................................................
(PID.TID 0000.0001)     21 ............................................................
(PID.TID 0000.0001)     20 ............................................................
(PID.TID 0000.0001)     19 ............................................................
(PID.TID 0000.0001)     18 ............................................................
(PID.TID 0000.0001)     17 ............................................................
(PID.TID 0000.0001)     16 ............................................................
(PID.TID 0000.0001)     15 ............................................................
(PID.TID 0000.0001)     14 ............................................................
(PID.TID 0000.0001)     13 ............................................................
(PID.TID 0000.0001)     12 ............................................................
(PID.TID 0000.0001)     11 ............................................................
(PID.TID 0000.0001)     10 ............................................................
(PID.TID 0000.0001)      9 ............................................................
(PID.TID 0000.0001)      8 ............................................................
(PID.TID 0000.0001)      7 ............................................................
(PID.TID 0000.0001)      6 ............................................................
(PID.TID 0000.0001)      5 ............................................................
(PID.TID 0000.0001)      4 ............................................................
(PID.TID 0000.0001)      3 ............................................................
(PID.TID 0000.0001)      2 ............................................................
(PID.TID 0000.0001)      1 ............................................................
(PID.TID 0000.0001) // =======================================================
(PID.TID 0000.0001) // END OF FIELD                                          =
(PID.TID 0000.0001) // =======================================================
(PID.TID 0000.0001) 
(PID.TID 0000.0001) // =======================================================
(PID.TID 0000.0001) // Field Current vVel   at iteration     731524
(PID.TID 0000.0001) // CMIN =         -1.482862693998431E-01
(PID.TID 0000.0001) // CMAX =          1.414004062649903E-01
(PID.TID 0000.0001) // CINT =          1.072913613573457E-02
(PID.TID 0000.0001) // SYMBOLS (CMIN->CMAX): -abcdefghijklmnopqrstuvwxyz+
(PID.TID 0000.0001) //                  0.0: .
(PID.TID 0000.0001) // RANGE I (Lo:Hi:Step):(     1:    60:     1)
(PID.TID 0000.0001) // RANGE J (Lo:Hi:Step):(    60:     1:    -1)
(PID.TID 0000.0001) // RANGE K (Lo:Hi:Step):(   1:   1:   1)
(PID.TID 0000.0001) // =======================================================
(PID.TID 0000.0001) K =   1
(PID.TID 0000.0001)                I=10      I=20      I=30      I=40      I=50      I=60
(PID.TID 0000.0001) |--J--|123456789|123456789|123456789|123456789|123456789|123456789|
(PID.TID 0000.0001)     60 onmllmomllkjjiihhhgffghghge.................................
(PID.TID 0000.0001)     59 mlllnoonnnmmmlljihhiiihgghj.................................
(PID.TID 0000.0001)     58 qpoooooppnnnnnmljlkjigefe-..................................
(PID.TID 0000.0001)     57 rssrqpoqrolloqpnmlkiihfe....................................
(PID.TID 0000.0001)     56 ppqsstux++wttrqpommlkkjj....................................
(PID.TID 0000.0001)     55 ..o....rrroa....s.xroml.....................................
(PID.TID 0000.0001)     54 ............................................................
(PID.TID 0000.0001)     53 ............................................................
(PID.TID 0000.0001)     52 ............................................................
(PID.TID 0000.0001)     51 ............................................................
(PID.TID 0000.0001)     50 ............................................................
(PID.TID 0000.0001)     49 ............................................................
(PID.TID 0000.0001)     48 ............................................................
(PID.TID 0000.0001)     47 ............................................................
(PID.TID 0000.0001)     46 ............................................................
(PID.TID 0000.0001)     45 ............................................................
(PID.TID 0000.0001)     44 ............................................................
(PID.TID 0000.0001)     43 ............................................................
(PID.TID 0000.0001)     42 ............................................................
(PID.TID 0000.0001)     41 ............................................................
(PID.TID 0000.0001)     40 ............................................................
(PID.TID 0000.0001)     39 ............................................................
(PID.TID 0000.0001)     38 ............................................................
(PID.TID 0000.0001)     37 ............................................................
(PID.TID 0000.0001)     36 ............................................................
(PID.TID 0000.0001)     35 ............................................................
(PID.TID 0000.0001)     34 ............................................................
(PID.TID 0000.0001)     33 ............................................................
(PID.TID 0000.0001)     32 ............................................................
(PID.TID 0000.0001)     31 ............................................................
(PID.TID 0000.0001)     30 ............................................................
(PID.TID 0000.0001)     29 ............................................................
(PID.TID 0000.0001)     28 ............................................................
(PID.TID 0000.0001)     27 ............................................................
(PID.TID 0000.0001)     26 ............................................................
(PID.TID 0000.0001)     25 ............................................................
(PID.TID 0000.0001)     24 ............................................................
(PID.TID 0000.0001)     23 ............................................................
(PID.TID 0000.0001)     22 ............................................................
(PID.TID 0000.0001)     21 ............................................................
(PID.TID 0000.0001)     20 ............................................................
(PID.TID 0000.0001)     19 ............................................................
(PID.TID 0000.0001)     18 ............................................................
(PID.TID 0000.0001)     17 ............................................................
(PID.TID 0000.0001)     16 ............................................................
(PID.TID 0000.0001)     15 ............................................................
(PID.TID 0000.0001)     14 ............................................................
(PID.TID 0000.0001)     13 ............................................................
(PID.TID 0000.0001)     12 ............................................................
(PID.TID 0000.0001)     11 ............................................................
(PID.TID 0000.0001)     10 ............................................................
(PID.TID 0000.0001)      9 ............................................................
(PID.TID 0000.0001)      8 ............................................................
(PID.TID 0000.0001)      7 ............................................................
(PID.TID 0000.0001)      6 ............................................................
(PID.TID 0000.0001)      5 ............................................................
(PID.TID 0000.0001)      4 ............................................................
(PID.TID 0000.0001)      3 ............................................................
(PID.TID 0000.0001)      2 ............................................................
(PID.TID 0000.0001)      1 ............................................................
(PID.TID 0000.0001) // =======================================================
(PID.TID 0000.0001) // END OF FIELD                                          =
(PID.TID 0000.0001) // =======================================================
(PID.TID 0000.0001) 
(PID.TID 0000.0001) // =======================================================
(PID.TID 0000.0001) // Field Current theta  at iteration     731524
(PID.TID 0000.0001) // CMIN =         -1.824010553949954E+00
(PID.TID 0000.0001) // CMAX =          5.576578077027747E+00
(PID.TID 0000.0001) // CINT =          2.740958752213963E-01
(PID.TID 0000.0001) // SYMBOLS (CMIN->CMAX): -abcdefghijklmnopqrstuvwxyz+
(PID.TID 0000.0001) //                  0.0: .
(PID.TID 0000.0001) // RANGE I (Lo:Hi:Step):(     1:    60:     1)
(PID.TID 0000.0001) // RANGE J (Lo:Hi:Step):(    60:     1:    -1)
(PID.TID 0000.0001) // RANGE K (Lo:Hi:Step):(   1:   1:   1)
(PID.TID 0000.0001) // =======================================================
(PID.TID 0000.0001) K =   1
(PID.TID 0000.0001)                I=10      I=20      I=30      I=40      I=50      I=60
(PID.TID 0000.0001) |--J--|123456789|123456789|123456789|123456789|123456789|123456789|
(PID.TID 0000.0001)     60 ----------------------------................................
(PID.TID 0000.0001)     59 ---------------------------.................................
(PID.TID 0000.0001)     58 ---------------------------.................................
(PID.TID 0000.0001)     57 ------------------------a-..................................
(PID.TID 0000.0001)     56 -------------a----------....................................
(PID.TID 0000.0001)     55 ------------ac-aaaa--aaa....................................
(PID.TID 0000.0001)     54 ..-...+--aaa...oa.aaaaa.....................................
(PID.TID 0000.0001)     53 ............................................................
(PID.TID 0000.0001)     52 ............................................................
(PID.TID 0000.0001)     51 ............................................................
(PID.TID 0000.0001)     50 ............................................................
(PID.TID 0000.0001)     49 ............................................................
(PID.TID 0000.0001)     48 ............................................................
(PID.TID 0000.0001)     47 ............................................................
(PID.TID 0000.0001)     46 ............................................................
(PID.TID 0000.0001)     45 ............................................................
(PID.TID 0000.0001)     44 ............................................................
(PID.TID 0000.0001)     43 ............................................................
(PID.TID 0000.0001)     42 ............................................................
(PID.TID 0000.0001)     41 ............................................................
(PID.TID 0000.0001)     40 ............................................................
(PID.TID 0000.0001)     39 ............................................................
(PID.TID 0000.0001)     38 ............................................................
(PID.TID 0000.0001)     37 ............................................................
(PID.TID 0000.0001)     36 ............................................................
(PID.TID 0000.0001)     35 ............................................................
(PID.TID 0000.0001)     34 ............................................................
(PID.TID 0000.0001)     33 ............................................................
(PID.TID 0000.0001)     32 ............................................................
(PID.TID 0000.0001)     31 ............................................................
(PID.TID 0000.0001)     30 ............................................................
(PID.TID 0000.0001)     29 ............................................................
(PID.TID 0000.0001)     28 ............................................................
(PID.TID 0000.0001)     27 ............................................................
(PID.TID 0000.0001)     26 ............................................................
(PID.TID 0000.0001)     25 ............................................................
(PID.TID 0000.0001)     24 ............................................................
(PID.TID 0000.0001)     23 ............................................................
(PID.TID 0000.0001)     22 ............................................................
(PID.TID 0000.0001)     21 ............................................................
(PID.TID 0000.0001)     20 ............................................................
(PID.TID 0000.0001)     19 ............................................................
(PID.TID 0000.0001)     18 ............................................................
(PID.TID 0000.0001)     17 ............................................................
(PID.TID 0000.0001)     16 ............................................................
(PID.TID 0000.0001)     15 ............................................................
(PID.TID 0000.0001)     14 ............................................................
(PID.TID 0000.0001)     13 ............................................................
(PID.TID 0000.0001)     12 ............................................................
(PID.TID 0000.0001)     11 ............................................................
(PID.TID 0000.0001)     10 ............................................................
(PID.TID 0000.0001)      9 ............................................................
(PID.TID 0000.0001)      8 ............................................................
(PID.TID 0000.0001)      7 ............................................................
(PID.TID 0000.0001)      6 ............................................................
(PID.TID 0000.0001)      5 ............................................................
(PID.TID 0000.0001)      4 ............................................................
(PID.TID 0000.0001)      3 ............................................................
(PID.TID 0000.0001)      2 ............................................................
(PID.TID 0000.0001)      1 ............................................................
(PID.TID 0000.0001) // =======================================================
(PID.TID 0000.0001) // END OF FIELD                                          =
(PID.TID 0000.0001) // =======================================================
(PID.TID 0000.0001) 
(PID.TID 0000.0001) // =======================================================
(PID.TID 0000.0001) // Field Current etaN   at iteration     731524
(PID.TID 0000.0001) // CMIN =         -1.531278187575201E+00
(PID.TID 0000.0001) // CMAX =         -8.722119000020224E-01
(PID.TID 0000.0001) // CINT =          2.440986250271030E-02
(PID.TID 0000.0001) // SYMBOLS (CMIN->CMAX): -abcdefghijklmnopqrstuvwxyz+
(PID.TID 0000.0001) //                  0.0: .
(PID.TID 0000.0001) // RANGE I (Lo:Hi:Step):(    -7:    68:     1)
(PID.TID 0000.0001) // RANGE J (Lo:Hi:Step):(    68:    -7:    -1)
(PID.TID 0000.0001) // RANGE K (Lo:Hi:Step):(   1:   1:   1)
(PID.TID 0000.0001) // =======================================================
(PID.TID 0000.0001) K =   1
(PID.TID 0000.0001)                I=2       I=12      I=22      I=32      I=42      I=52      I=62
(PID.TID 0000.0001) |--J--|765432101|345678901|345678901|345678901|345678901|345678901|345678901|345678
(PID.TID 0000.0001)     68 ddddddddddddeeeeefffffgggghhhhhhhiiiijjjkkkklllm............................
(PID.TID 0000.0001)     67 ddddddddddeeeeeeffffgggghhhhhhiiiiijjjjkkklllmmm............................
(PID.TID 0000.0001)     66 dddddddddeeeeefffffgggghhhhiiiiiijjjjkkkkllmmmm.............................
(PID.TID 0000.0001)     65 eeedddeddeeeeefffgggghhhhhiiiiiijjjjkkklllmmnno.............................
(PID.TID 0000.0001)     64 eeeeeddeeeeeefffgggghhhhiiiiijjjjjjkkkkllmnoopa.............................
(PID.TID 0000.0001)     63 eeeeeeeeeeeeefffggghhhhiiiiijjjjjjkkkkll...+x...............................
(PID.TID 0000.0001)     62 eeeeeeeeeeeefffggghhhhiiiijjjjjjkkkkll......................................
(PID.TID 0000.0001)     61 eeeeeeeeeeffffggghhhhiiiijjjjjkkkkkll.......................................
(PID.TID 0000.0001)     60 eeeeeeefffffggghhhhhiiiijjjjjkkkkkll........................................
(PID.TID 0000.0001)     59 eeefffffffgggghhhhiiiiijjjjkkkkkkll.........................................
(PID.TID 0000.0001)     58 effffffgggggghhhiiiiijjjjjkkkkklllm.........................................
(PID.TID 0000.0001)     57 effffgggggghhhhiiiijjjjjkkkkkkllls..........................................
(PID.TID 0000.0001)     56 effffgggghhhhhiiijjjjjkkkkkkllll............................................
(PID.TID 0000.0001)     55 effffggghhhhhijjjkkkkkkkkklllllm............................................
(PID.TID 0000.0001)     54 ..........h...-qrsuz...-n.mmmmn.............................................
(PID.TID 0000.0001)     53 ............................................................................
(PID.TID 0000.0001)     52 ............................................................................
(PID.TID 0000.0001)     51 ............................................................................
(PID.TID 0000.0001)     50 ............................................................................
(PID.TID 0000.0001)     49 ............................................................................
(PID.TID 0000.0001)     48 ............................................................................
(PID.TID 0000.0001)     47 ............................................................................
(PID.TID 0000.0001)     46 ............................................................................
(PID.TID 0000.0001)     45 ............................................................................
(PID.TID 0000.0001)     44 ............................................................................
(PID.TID 0000.0001)     43 ............................................................................
(PID.TID 0000.0001)     42 ............................................................................
(PID.TID 0000.0001)     41 ............................................................................
(PID.TID 0000.0001)     40 ............................................................................
(PID.TID 0000.0001)     39 ............................................................................
(PID.TID 0000.0001)     38 ............................................................................
(PID.TID 0000.0001)     37 ............................................................................
(PID.TID 0000.0001)     36 ............................................................................
(PID.TID 0000.0001)     35 ............................................................................
(PID.TID 0000.0001)     34 ............................................................................
(PID.TID 0000.0001)     33 ............................................................................
(PID.TID 0000.0001)     32 ............................................................................
(PID.TID 0000.0001)     31 ............................................................................
(PID.TID 0000.0001)     30 ............................................................................
(PID.TID 0000.0001)     29 ............................................................................
(PID.TID 0000.0001)     28 ............................................................................
(PID.TID 0000.0001)     27 ............................................................................
(PID.TID 0000.0001)     26 ............................................................................
(PID.TID 0000.0001)     25 ............................................................................
(PID.TID 0000.0001)     24 ............................................................................
(PID.TID 0000.0001)     23 ............................................................................
(PID.TID 0000.0001)     22 ............................................................................
(PID.TID 0000.0001)     21 ............................................................................
(PID.TID 0000.0001)     20 ............................................................................
(PID.TID 0000.0001)     19 ............................................................................
(PID.TID 0000.0001)     18 ............................................................................
(PID.TID 0000.0001)     17 ............................................................................
(PID.TID 0000.0001)     16 ............................................................................
(PID.TID 0000.0001)     15 ............................................................................
(PID.TID 0000.0001)     14 ............................................................................
(PID.TID 0000.0001)     13 ............................................................................
(PID.TID 0000.0001)     12 ............................................................................
(PID.TID 0000.0001)     11 ............................................................................
(PID.TID 0000.0001)     10 ............................................................................
(PID.TID 0000.0001)      9 ............................................................................
(PID.TID 0000.0001)      8 ............................................................................
(PID.TID 0000.0001)      7 ............................................................................
(PID.TID 0000.0001)      6 ............................................................................
(PID.TID 0000.0001)      5 ............................................................................
(PID.TID 0000.0001)      4 ............................................................................
(PID.TID 0000.0001)      3 ............................................................................
(PID.TID 0000.0001)      2 ............................................................................
(PID.TID 0000.0001)      1 ............................................................................
(PID.TID 0000.0001)      0 ............................................................................
(PID.TID 0000.0001)     -1 ............................................................................
(PID.TID 0000.0001)     -2 ............................................................................
(PID.TID 0000.0001)     -3 ............................................................................
(PID.TID 0000.0001)     -4 ............................................................................
(PID.TID 0000.0001)     -5 ............................................................................
(PID.TID 0000.0001)     -6 ............................................................................
(PID.TID 0000.0001)     -7 ............................................................................
(PID.TID 0000.0001) // =======================================================
(PID.TID 0000.0001) // END OF FIELD                                          =
(PID.TID 0000.0001) // =======================================================
(PID.TID 0000.0001) 
(PID.TID 0000.0001)  MDS_WRITE_FIELD: it,rec,kS,kL,kH=  731524     1  90   1  90 file=U.0000731524
(PID.TID 0000.0001)  MDS_WRITE_FIELD: it,rec,kS,kL,kH=  731524     1  90   1  90 file=V.0000731524
(PID.TID 0000.0001)  MDS_WRITE_FIELD: it,rec,kS,kL,kH=  731524     1  90   1  90 file=T.0000731524
(PID.TID 0000.0001)  MDS_WRITE_FIELD: it,rec,kS,kL,kH=  731524     1  90   1  90 file=S.0000731524
(PID.TID 0000.0001)  MDS_WRITE_FIELD: it,rec,kS,kL,kH=  731524     1   1   1   1 file=Eta.0000731524
(PID.TID 0000.0001)  MDS_WRITE_FIELD: it,rec,kS,kL,kH=  731524     1  90   1  90 file=W.0000731524
(PID.TID 0000.0001)  MDS_WRITE_FIELD: it,rec,kS,kL,kH=  731524     1  90   1  90 file=PH.0000731524
(PID.TID 0000.0001)  MDS_WRITE_FIELD: it,rec,kS,kL,kH=  731524     1   1   1   1 file=PHL.0000731524
 Computing Diagnostic #     80  oceTAUX      Counter:       1   Parms: UU      U1      
           Vector  Mate for  oceTAUX      Diagnostic #     81  oceTAUY  exists 
(PID.TID 0000.0001)  MDS_WRITE_FIELD: it,rec,kS,kL,kH=  731523    -1 450   1   1 file=state_2d_set1.0000731523
 Computing Diagnostic #     81  oceTAUY      Counter:       1   Parms: VV      U1      
           Vector  Mate for  oceTAUY      Diagnostic #     80  oceTAUX  exists 
(PID.TID 0000.0001)  MDS_WRITE_FIELD: it,rec,kS,kL,kH=  731523    -2 450   1   1 file=state_2d_set1.0000731523
 Computing Diagnostic #     84  oceFWflx     Counter:       1   Parms: SM      U1      
(PID.TID 0000.0001)  MDS_WRITE_FIELD: it,rec,kS,kL,kH=  731523    -3 450   1   1 file=state_2d_set1.0000731523
 Computing Diagnostic #     85  oceSflux     Counter:       1   Parms: SM      U1      
(PID.TID 0000.0001)  MDS_WRITE_FIELD: it,rec,kS,kL,kH=  731523    -4 450   1   1 file=state_2d_set1.0000731523
 Computing Diagnostic #     86  oceQnet      Counter:       1   Parms: SM      U1      
(PID.TID 0000.0001)  MDS_WRITE_FIELD: it,rec,kS,kL,kH=  731523    -5 450   1   1 file=state_2d_set1.0000731523
 Computing Diagnostic #     87  oceQsw       Counter:       1   Parms: SM      U1      
(PID.TID 0000.0001)  MDS_WRITE_FIELD: it,rec,kS,kL,kH=  731523    -6 450   1   1 file=state_2d_set1.0000731523
 Computing Diagnostic #     27  SALT         Counter:       1   Parms: SMR     MR      
(PID.TID 0000.0001)  MDS_WRITE_FIELD: it,rec,kS,kL,kH=  731523    -1 450   1   1 file=state_3d_set1.0000731523
 Computing Diagnostic #     26  THETA        Counter:       1   Parms: SMR     MR      
(PID.TID 0000.0001)  MDS_WRITE_FIELD: it,rec,kS,kL,kH=  731523    -2 450   1   1 file=state_3d_set1.0000731523
 Computing Diagnostic #     45  UVELMASS     Counter:       1   Parms: UUr     MR      
           Vector  Mate for  UVELMASS     Diagnostic #     46  VVELMASS exists 
(PID.TID 0000.0001)  MDS_WRITE_FIELD: it,rec,kS,kL,kH=  731523    -3 450   1   1 file=state_3d_set1.0000731523
 Computing Diagnostic #     46  VVELMASS     Counter:       1   Parms: VVr     MR      
           Vector  Mate for  VVELMASS     Diagnostic #     45  UVELMASS exists 
(PID.TID 0000.0001)  MDS_WRITE_FIELD: it,rec,kS,kL,kH=  731523    -4 450   1   1 file=state_3d_set1.0000731523
(PID.TID 0000.0001)  write diagnostics summary to file: diagnostics_status.0000731524.txt
(PID.TID 0000.0001) DEBUG_MSG: LEAVING S/R FORWARD_STEP
 AGCM Date: 2012/02/02  Time: 21:20:00
 Writing:    483 Slices ( 69 Nodes, 68 PartitionRoot) to File:  TEST.geosgcm_prog.20120202_2120z.nc4
 Writing:    148 Slices ( 22 Nodes, 18 PartitionRoot) to File:  TEST.geosgcm_surf.20120202_2120z.nc4
 Writing:    196 Slices ( 28 Nodes, 40 PartitionRoot) to File:  TEST.mit_ocn.20120202_2120z.nc4
 Writing:     60 Slices (  9 Nodes,  9 PartitionRoot) to File:  TEST.mit_ice.20120202_2120z.nc4
 Writing:     40 Slices (  6 Nodes,  3 PartitionRoot) to File:  TEST.mit_ice_all.20120202_2120z.nc4
 Writing:     10 Slices (  2 Nodes,  1 PartitionRoot) to File:  TEST.mit_snow_all.20120202_2120z.nc4
(PID.TID 0000.0001) DEBUG_MSG: ENTERED S/R FORWARD_STEP
(PID.TID 0000.0001) DEBUG_MSG: CALLING S/R LOAD_FIELDS_DRIVER
(PID.TID 0000.0001) DEBUG_MSG: ENTERED S/R LOAD_FIELDS_DRIVER
(PID.TID 0000.0001) DEBUG_MSG: CALLING S/R EXTERNAL_FIELDS_LOAD
(PID.TID 0000.0001) DEBUG_MSG: LEAVING S/R LOAD_FIELDS_DRIVER
(PID.TID 0000.0001) DEBUG_MSG: CALLING S/R DO_ATMOSPHERIC_PHYS
(PID.TID 0000.0001) DEBUG_MSG: ENTERED S/R DO_ATMOSPHERIC_PHYS
(PID.TID 0000.0001) DEBUG_MSG: LEAVING S/R DO_ATMOSPHERIC_PHYS
(PID.TID 0000.0001) DEBUG_MSG: CALLING S/R DO_OCEANIC_PHYS
(PID.TID 0000.0001) DEBUG_MSG: ENTERED S/R DO_OCEANIC_PHYS
(PID.TID 0000.0001) DEBUG_MSG: CALLING S/R EXTERNAL_FORCING_SURF
(PID.TID 0000.0001) DEBUG_MSG: CALLING S/R FIND_RHO_2D (xNr)
(PID.TID 0000.0001) DEBUG_MSG:                  ENTERING UPWARD K LOOP (bi=   1, bj=   1)
(PID.TID 0000.0001) DEBUG_MSG: CALLING S/R KPP_CALC
(PID.TID 0000.0001) DEBUG_MSG: LEAVING S/R DO_OCEANIC_PHYS
(PID.TID 0000.0001) DEBUG_MSG: CALLING S/R DYNAMICS
(PID.TID 0000.0001) DEBUG_MSG: ENTERED S/R DYNAMICS
DEBUG_STATS_RL:                EtaN (DYNAMICS)  min= -1.14477579071868E+01
DEBUG_STATS_RL:                EtaN (DYNAMICS)  max=  1.02707287930885E+01
DEBUG_STATS_RL:                EtaN (DYNAMICS) mean= -2.69458871915213E-01
DEBUG_STATS_RL:                EtaN (DYNAMICS) S.D.=  9.70382659291211E-01
DEBUG_STATS_RL:                Uvel (DYNAMICS)  min= -1.23256683903943E+01
DEBUG_STATS_RL:                Uvel (DYNAMICS)  max=  7.98862483634469E+00
DEBUG_STATS_RL:                Uvel (DYNAMICS) mean=  6.43622475856697E-03
DEBUG_STATS_RL:                Uvel (DYNAMICS) S.D.=  1.06546892540676E-01
DEBUG_STATS_RL:                Vvel (DYNAMICS)  min= -6.61355283948712E+00
DEBUG_STATS_RL:                Vvel (DYNAMICS)  max=  6.71295989303436E+01
DEBUG_STATS_RL:                Vvel (DYNAMICS) mean=  4.91605563593574E-03
DEBUG_STATS_RL:                Vvel (DYNAMICS) S.D.=  1.10479373048110E-01
DEBUG_STATS_RL:                Wvel (DYNAMICS)  min= -6.36633318226162E-01
DEBUG_STATS_RL:                Wvel (DYNAMICS)  max=  6.39243746701487E-01
DEBUG_STATS_RL:                Wvel (DYNAMICS) mean=  4.06851803078115E-07
DEBUG_STATS_RL:                Wvel (DYNAMICS) S.D.=  7.00911354533504E-03
DEBUG_STATS_RL:               Theta (DYNAMICS)  min= -1.69194901630670E+01
DEBUG_STATS_RL:               Theta (DYNAMICS)  max=  6.46857283127775E+01
DEBUG_STATS_RL:               Theta (DYNAMICS) mean=  6.24805823681588E+00
DEBUG_STATS_RL:               Theta (DYNAMICS) S.D.=  7.51341412315345E+00
DEBUG_STATS_RL:                Salt (DYNAMICS)  min=  5.26862743701794E+00
DEBUG_STATS_RL:                Salt (DYNAMICS)  max=  2.95593144064072E+02
DEBUG_STATS_RL:                Salt (DYNAMICS) mean=  3.45710359970193E+01
DEBUG_STATS_RL:                Salt (DYNAMICS) S.D.=  9.58273038713619E-01
DEBUG_STATS_RL:                  Gu (DYNAMICS)  min= -6.05029885682056E+01
DEBUG_STATS_RL:                  Gu (DYNAMICS)  max=  1.26482695448121E+02
DEBUG_STATS_RL:                  Gu (DYNAMICS) mean=  6.29816164400825E-03
DEBUG_STATS_RL:                  Gu (DYNAMICS) S.D.=  1.09572260758353E-01
DEBUG_STATS_RL:                  Gv (DYNAMICS)  min= -7.50447500695464E+02
DEBUG_STATS_RL:                  Gv (DYNAMICS)  max=  1.65624450892660E+02
DEBUG_STATS_RL:                  Gv (DYNAMICS) mean=  5.20229938263816E-03
DEBUG_STATS_RL:                  Gv (DYNAMICS) S.D.=  1.26489087390301E-01
DEBUG_STATS_RL:               GuNm1 (DYNAMICS)  min= -2.30544704366557E-01
DEBUG_STATS_RL:               GuNm1 (DYNAMICS)  max=  4.11126901824355E-01
DEBUG_STATS_RL:               GuNm1 (DYNAMICS) mean= -4.73386398071108E-07
DEBUG_STATS_RL:               GuNm1 (DYNAMICS) S.D.=  2.77651894077928E-05
DEBUG_STATS_RL:               GvNm1 (DYNAMICS)  min= -5.25769768395246E-01
DEBUG_STATS_RL:               GvNm1 (DYNAMICS)  max=  1.16469530527743E+00
DEBUG_STATS_RL:               GvNm1 (DYNAMICS) mean=  5.23169976081751E-07
DEBUG_STATS_RL:               GvNm1 (DYNAMICS) S.D.=  6.25457533273012E-05
DEBUG_STATS_RL:               GtNm1 (DYNAMICS)  min=  0.00000000000000E+00
DEBUG_STATS_RL:               GtNm1 (DYNAMICS)  max=  0.00000000000000E+00
DEBUG_STATS_RL:               GtNm1 (DYNAMICS) mean=  0.00000000000000E+00
DEBUG_STATS_RL:               GtNm1 (DYNAMICS) S.D.=  0.00000000000000E+00
DEBUG_STATS_RL:               GsNm1 (DYNAMICS)  min=  0.00000000000000E+00
DEBUG_STATS_RL:               GsNm1 (DYNAMICS)  max=  0.00000000000000E+00
DEBUG_STATS_RL:               GsNm1 (DYNAMICS) mean=  0.00000000000000E+00
DEBUG_STATS_RL:               GsNm1 (DYNAMICS) S.D.=  0.00000000000000E+00
(PID.TID 0000.0001) DEBUG_MSG: LEAVING S/R DYNAMICS
DEBUG_STATS_RL:    cg2d_b (SOLVE_FOR_PRESSURE)  min= -1.90283930516021E+05
DEBUG_STATS_RL:    cg2d_b (SOLVE_FOR_PRESSURE)  max=  1.65236892343180E+05
DEBUG_STATS_RL:    cg2d_b (SOLVE_FOR_PRESSURE) mean= -8.15035245484756E+01
DEBUG_STATS_RL:    cg2d_b (SOLVE_FOR_PRESSURE) S.D.=  3.62737942298228E+03
 cg2d: Sum(rhs),rhsMax =  -3.77331679244040E+03  2.49862096434642E+01
(PID.TID 0000.0001)  cg2d: iter=     1 ; resid.=  2.39232527365971E+00
(PID.TID 0000.0001)  cg2d: iter=     2 ; resid.=  1.43997323118812E+00
(PID.TID 0000.0001)  cg2d: iter=     3 ; resid.=  9.42915905115310E-01
(PID.TID 0000.0001)  cg2d: iter=     4 ; resid.=  9.04461832313765E-01
(PID.TID 0000.0001)  cg2d: iter=     5 ; resid.=  9.85754229181035E-01
(PID.TID 0000.0001)  cg2d: iter=     6 ; resid.=  1.01559752601859E+00
(PID.TID 0000.0001)  cg2d: iter=     7 ; resid.=  9.17754100964269E-01
(PID.TID 0000.0001)  cg2d: iter=     8 ; resid.=  7.35596650645866E-01
(PID.TID 0000.0001)  cg2d: iter=     9 ; resid.=  5.71451366783027E-01
(PID.TID 0000.0001)  cg2d: iter=    10 ; resid.=  4.90232524079218E-01
(PID.TID 0000.0001)  cg2d: iter=    11 ; resid.=  4.69083078962279E-01
(PID.TID 0000.0001)  cg2d: iter=    12 ; resid.=  4.58171485778781E-01
(PID.TID 0000.0001)  cg2d: iter=    13 ; resid.=  4.26609377286255E-01
(PID.TID 0000.0001)  cg2d: iter=    14 ; resid.=  3.74688679388188E-01
(PID.TID 0000.0001)  cg2d: iter=    15 ; resid.=  3.22303921447959E-01
(PID.TID 0000.0001)  cg2d: iter=    16 ; resid.=  2.88686753953911E-01
(PID.TID 0000.0001)  cg2d: iter=    17 ; resid.=  2.82243384104794E-01
(PID.TID 0000.0001)  cg2d: iter=    18 ; resid.=  2.87831082055071E-01
(PID.TID 0000.0001)  cg2d: iter=    19 ; resid.=  2.83692727119099E-01
(PID.TID 0000.0001)  cg2d: iter=    20 ; resid.=  2.61791553677803E-01
(PID.TID 0000.0001)  cg2d: iter=    21 ; resid.=  2.38741914134518E-01
(PID.TID 0000.0001)  cg2d: iter=    22 ; resid.=  2.31945479856570E-01
(PID.TID 0000.0001)  cg2d: iter=    23 ; resid.=  2.38815267643815E-01
(PID.TID 0000.0001)  cg2d: iter=    24 ; resid.=  2.43019419396959E-01
(PID.TID 0000.0001)  cg2d: iter=    25 ; resid.=  2.34495946571867E-01
(PID.TID 0000.0001)  cg2d: iter=    26 ; resid.=  2.14878981296158E-01
(PID.TID 0000.0001)  cg2d: iter=    27 ; resid.=  1.91413840900221E-01
(PID.TID 0000.0001)  cg2d: iter=    28 ; resid.=  1.72843272621340E-01
(PID.TID 0000.0001)  cg2d: iter=    29 ; resid.=  1.67019766595428E-01
(PID.TID 0000.0001)  cg2d: iter=    30 ; resid.=  1.68169383224079E-01
(PID.TID 0000.0001)  cg2d: iter=    31 ; resid.=  1.61898975724855E-01
(PID.TID 0000.0001)  cg2d: iter=    32 ; resid.=  1.43408220652625E-01
(PID.TID 0000.0001)  cg2d: iter=    33 ; resid.=  1.23861481466753E-01
(PID.TID 0000.0001)  cg2d: iter=    34 ; resid.=  1.11360552649348E-01
(PID.TID 0000.0001)  cg2d: iter=    35 ; resid.=  1.05130523548063E-01
(PID.TID 0000.0001)  cg2d: iter=    36 ; resid.=  1.02464013322800E-01
(PID.TID 0000.0001)  cg2d: iter=    37 ; resid.=  9.88861722710423E-02
(PID.TID 0000.0001)  cg2d: iter=    38 ; resid.=  9.02851511429419E-02
(PID.TID 0000.0001)  cg2d: iter=    39 ; resid.=  8.01872664864687E-02
(PID.TID 0000.0001)  cg2d: iter=    40 ; resid.=  7.39771038709058E-02
(PID.TID 0000.0001)  cg2d: iter=    41 ; resid.=  7.12074068283154E-02
(PID.TID 0000.0001)  cg2d: iter=    42 ; resid.=  6.89828234104113E-02
(PID.TID 0000.0001)  cg2d: iter=    43 ; resid.=  6.57147926469872E-02
(PID.TID 0000.0001)  cg2d: iter=    44 ; resid.=  6.10847844076843E-02
(PID.TID 0000.0001)  cg2d: iter=    45 ; resid.=  5.54042773003399E-02
(PID.TID 0000.0001)  cg2d: iter=    46 ; resid.=  4.99424260075847E-02
(PID.TID 0000.0001)  cg2d: iter=    47 ; resid.=  4.66041340232042E-02
(PID.TID 0000.0001)  cg2d: iter=    48 ; resid.=  4.45900946810909E-02
(PID.TID 0000.0001)  cg2d: iter=    49 ; resid.=  4.29266146842443E-02
(PID.TID 0000.0001)  cg2d: iter=    50 ; resid.=  3.78796788308564E-02
(PID.TID 0000.0001)  cg2d: iter=    51 ; resid.=  3.57056337378778E-02
(PID.TID 0000.0001)  cg2d: iter=    52 ; resid.=  3.27147989800988E-02
(PID.TID 0000.0001)  cg2d: iter=    53 ; resid.=  3.10482787919322E-02
(PID.TID 0000.0001)  cg2d: iter=    54 ; resid.=  2.99913689066846E-02
(PID.TID 0000.0001)  cg2d: iter=    55 ; resid.=  2.85370949951080E-02
(PID.TID 0000.0001)  cg2d: iter=    56 ; resid.=  2.61790974149962E-02
(PID.TID 0000.0001)  cg2d: iter=    57 ; resid.=  2.32767695843557E-02
(PID.TID 0000.0001)  cg2d: iter=    58 ; resid.=  2.14928607528781E-02
(PID.TID 0000.0001)  cg2d: iter=    59 ; resid.=  2.09036895977927E-02
(PID.TID 0000.0001)  cg2d: iter=    60 ; resid.=  2.05900066594739E-02
(PID.TID 0000.0001)  cg2d: iter=    61 ; resid.=  1.97088496305709E-02
(PID.TID 0000.0001)  cg2d: iter=    62 ; resid.=  1.81325685329154E-02
(PID.TID 0000.0001)  cg2d: iter=    63 ; resid.=  1.62293479837846E-02
(PID.TID 0000.0001)  cg2d: iter=    64 ; resid.=  1.48793542038848E-02
(PID.TID 0000.0001)  cg2d: iter=    65 ; resid.=  1.45812970666458E-02
(PID.TID 0000.0001)  cg2d: iter=    66 ; resid.=  1.44865350181061E-02
(PID.TID 0000.0001)  cg2d: iter=    67 ; resid.=  1.36697669374384E-02
(PID.TID 0000.0001)  cg2d: iter=    68 ; resid.=  1.23110088909135E-02
(PID.TID 0000.0001)  cg2d: iter=    69 ; resid.=  1.11245970268444E-02
(PID.TID 0000.0001)  cg2d: iter=    70 ; resid.=  1.04151322183330E-02
(PID.TID 0000.0001)  cg2d: iter=    71 ; resid.=  1.01279658075228E-02
(PID.TID 0000.0001)  cg2d: iter=    72 ; resid.=  9.95558188366420E-03
(PID.TID 0000.0001)  cg2d: iter=    73 ; resid.=  9.40667909904463E-03
(PID.TID 0000.0001)  cg2d: iter=    74 ; resid.=  8.41543318719355E-03
(PID.TID 0000.0001)  cg2d: iter=    75 ; resid.=  7.46903892700053E-03
(PID.TID 0000.0001)  cg2d: iter=    76 ; resid.=  6.96819038729160E-03
(PID.TID 0000.0001)  cg2d: iter=    77 ; resid.=  6.78588679845157E-03
(PID.TID 0000.0001)  cg2d: iter=    78 ; resid.=  6.52344376680552E-03
(PID.TID 0000.0001)  cg2d: iter=    79 ; resid.=  6.11791610668029E-03
(PID.TID 0000.0001)  cg2d: iter=    80 ; resid.=  5.64556057354007E-03
(PID.TID 0000.0001)  cg2d: iter=    81 ; resid.=  5.16613504897390E-03
(PID.TID 0000.0001)  cg2d: iter=    82 ; resid.=  4.84339788049270E-03
(PID.TID 0000.0001)  cg2d: iter=    83 ; resid.=  4.70106910486091E-03
(PID.TID 0000.0001)  cg2d: iter=    84 ; resid.=  4.55199594366897E-03
(PID.TID 0000.0001)  cg2d: iter=    85 ; resid.=  4.20278173778075E-03
(PID.TID 0000.0001)  cg2d: iter=    86 ; resid.=  3.74075578439979E-03
(PID.TID 0000.0001)  cg2d: iter=    87 ; resid.=  3.39456392566586E-03
(PID.TID 0000.0001)  cg2d: iter=    88 ; resid.=  3.22761070866393E-03
(PID.TID 0000.0001)  cg2d: iter=    89 ; resid.=  3.17832335054507E-03
(PID.TID 0000.0001)  cg2d: iter=    90 ; resid.=  3.09521346023030E-03
(PID.TID 0000.0001)  cg2d: iter=    91 ; resid.=  2.83038786343339E-03
(PID.TID 0000.0001)  cg2d: iter=    92 ; resid.=  2.47942479444334E-03
(PID.TID 0000.0001)  cg2d: iter=    93 ; resid.=  2.24866766319217E-03
(PID.TID 0000.0001)  cg2d: iter=    94 ; resid.=  2.23199024050656E-03
(PID.TID 0000.0001)  cg2d: iter=    95 ; resid.=  2.25421836213032E-03
(PID.TID 0000.0001)  cg2d: iter=    96 ; resid.=  2.14099502000437E-03
(PID.TID 0000.0001)  cg2d: iter=    97 ; resid.=  1.86182379148759E-03
(PID.TID 0000.0001)  cg2d: iter=    98 ; resid.=  1.58064051599061E-03
(PID.TID 0000.0001)  cg2d: iter=    99 ; resid.=  1.58339631947147E-03
(PID.TID 0000.0001)  cg2d: iter=   100 ; resid.=  1.66297938588480E-03
DEBUG_STATS_RL:    cg2d_x (SOLVE_FOR_PRESSURE)  min= -1.27788011679029E+02
DEBUG_STATS_RL:    cg2d_x (SOLVE_FOR_PRESSURE)  max=  1.28625521094191E+03
DEBUG_STATS_RL:    cg2d_x (SOLVE_FOR_PRESSURE) mean= -2.64146222148836E+00
DEBUG_STATS_RL:    cg2d_x (SOLVE_FOR_PRESSURE) S.D.=  9.49041761099728E+00
(PID.TID 0000.0001)      cg2d_init_res =   3.76220256266293E+00
(PID.TID 0000.0001)      cg2d_iters(min,last) =      -1     100
(PID.TID 0000.0001)      cg2d_last_res =   1.66297938588480E-03
(PID.TID 0000.0001) DEBUG_MSG: CALLING S/R UPDATE_ETAH
(PID.TID 0000.0001) DEBUG_MSG: CALLING S/R DO_STAGGER_FIELDS_EXCH.
(PID.TID 0000.0001) DEBUG_MSG: CALLING S/R THERMODYNAMICS
(PID.TID 0000.0001) DEBUG_MSG: ENTERED S/R THERMODYNAMICS
(PID.TID 0000.0001) DEBUG_MSG: CALLING S/R TEMP_INTEGRATE
(PID.TID 0000.0001) DEBUG_MSG: CALLING S/R GAD_ADVECTION
(PID.TID 0000.0001) DEBUG_MSG: CALLING S/R SALT_INTEGRATE
(PID.TID 0000.0001) DEBUG_MSG: CALLING S/R GAD_ADVECTION
DEBUG_STATS_RL:          Uvel (THERMODYNAMICS)  min= -1.26827424305198E+02
DEBUG_STATS_RL:          Uvel (THERMODYNAMICS)  max=  1.14144077277564E+02
DEBUG_STATS_RL:          Uvel (THERMODYNAMICS) mean=  6.60393793504394E-03
DEBUG_STATS_RL:          Uvel (THERMODYNAMICS) S.D.=  1.09819683816879E-01
DEBUG_STATS_RL:          Vvel (THERMODYNAMICS)  min= -5.96667448877780E+02
DEBUG_STATS_RL:          Vvel (THERMODYNAMICS)  max=  1.66326986919811E+02
DEBUG_STATS_RL:          Vvel (THERMODYNAMICS) mean=  4.94179447692253E-03
DEBUG_STATS_RL:          Vvel (THERMODYNAMICS) S.D.=  1.21227492884150E-01
DEBUG_STATS_RL:          Wvel (THERMODYNAMICS)  min= -7.29590876477945E-01
DEBUG_STATS_RL:          Wvel (THERMODYNAMICS)  max=  1.57574837610236E+00
DEBUG_STATS_RL:          Wvel (THERMODYNAMICS) mean=  5.43589488752727E-07
DEBUG_STATS_RL:          Wvel (THERMODYNAMICS) S.D.=  8.57295161342259E-03
DEBUG_STATS_RL:         Theta (THERMODYNAMICS)  min= -9.50360954133460E+03
DEBUG_STATS_RL:         Theta (THERMODYNAMICS)  max=  8.84821188823301E+03
DEBUG_STATS_RL:         Theta (THERMODYNAMICS) mean=  6.24925252004947E+00
DEBUG_STATS_RL:         Theta (THERMODYNAMICS) S.D.=  7.54321922379700E+00
DEBUG_STATS_RL:          Salt (THERMODYNAMICS)  min= -9.73080532805077E+02
DEBUG_STATS_RL:          Salt (THERMODYNAMICS)  max=  6.82308314847550E+02
DEBUG_STATS_RL:          Salt (THERMODYNAMICS) mean=  3.45708492032103E+01
DEBUG_STATS_RL:          Salt (THERMODYNAMICS) S.D.=  9.64493282214261E-01
DEBUG_STATS_RL:         GtNm1 (THERMODYNAMICS)  min=  0.00000000000000E+00
DEBUG_STATS_RL:         GtNm1 (THERMODYNAMICS)  max=  0.00000000000000E+00
DEBUG_STATS_RL:         GtNm1 (THERMODYNAMICS) mean=  0.00000000000000E+00
DEBUG_STATS_RL:         GtNm1 (THERMODYNAMICS) S.D.=  0.00000000000000E+00
DEBUG_STATS_RL:         GsNm1 (THERMODYNAMICS)  min=  0.00000000000000E+00
DEBUG_STATS_RL:         GsNm1 (THERMODYNAMICS)  max=  0.00000000000000E+00
DEBUG_STATS_RL:         GsNm1 (THERMODYNAMICS) mean=  0.00000000000000E+00
DEBUG_STATS_RL:         GsNm1 (THERMODYNAMICS) S.D.=  0.00000000000000E+00
(PID.TID 0000.0001) DEBUG_MSG: LEAVING S/R THERMODYNAMICS
(PID.TID 0000.0001) // =======================================================
(PID.TID 0000.0001) // Begin MONITOR dynamic field statistics
(PID.TID 0000.0001) // =======================================================
(PID.TID 0000.0001) %MON time_tsnumber                =                731525
(PID.TID 0000.0001) %MON time_secondsf                =   2.1945750000000E+08
(PID.TID 0000.0001) %MON dynstat_eta_max              =   1.3111711026430E+02
(PID.TID 0000.0001) %MON dynstat_eta_min              =  -1.3046096895231E+01
(PID.TID 0000.0001) %MON dynstat_eta_mean             =   1.7978073636208E-01
(PID.TID 0000.0001) %MON dynstat_eta_sd               =   7.7952562922269E-01
(PID.TID 0000.0001) %MON dynstat_eta_del2             =   4.3507864262715E-05
(PID.TID 0000.0001) %MON dynstat_uvel_max             =   1.1414407727756E+02
(PID.TID 0000.0001) %MON dynstat_uvel_min             =  -1.2682742430520E+02
(PID.TID 0000.0001) %MON dynstat_uvel_mean            =   3.3668040073412E-03
(PID.TID 0000.0001) %MON dynstat_uvel_sd              =   6.5478186182474E-02
(PID.TID 0000.0001) %MON dynstat_uvel_del2            =   4.3332156728992E-06
(PID.TID 0000.0001) %MON dynstat_vvel_max             =   1.6632698691981E+02
(PID.TID 0000.0001) %MON dynstat_vvel_min             =  -5.9666744887778E+02
(PID.TID 0000.0001) %MON dynstat_vvel_mean            =   7.2311900290142E-04
(PID.TID 0000.0001) %MON dynstat_vvel_sd              =   6.7970173265396E-02
(PID.TID 0000.0001) %MON dynstat_vvel_del2            =   6.5464956800959E-06
(PID.TID 0000.0001) %MON dynstat_wvel_max             =   1.5757483761024E+00
(PID.TID 0000.0001) %MON dynstat_wvel_min             =  -7.2959087647795E-01
(PID.TID 0000.0001) %MON dynstat_wvel_mean            =  -5.5880514190619E-18
(PID.TID 0000.0001) %MON dynstat_wvel_sd              =   1.3094221157274E-02
(PID.TID 0000.0001) %MON dynstat_wvel_del2            =   1.2737486138368E-06
(PID.TID 0000.0001) %MON dynstat_theta_max            =   8.8482118882330E+03
(PID.TID 0000.0001) %MON dynstat_theta_min            =  -9.5036095413346E+03
(PID.TID 0000.0001) %MON dynstat_theta_mean           =   3.6452362692640E+00
(PID.TID 0000.0001) %MON dynstat_theta_sd             =   4.3099001063230E+00
(PID.TID 0000.0001) %MON dynstat_theta_del2           =   8.9784614789498E-05
(PID.TID 0000.0001) %MON dynstat_salt_max             =   6.8230831484755E+02
(PID.TID 0000.0001) %MON dynstat_salt_min             =  -9.7308053280508E+02
(PID.TID 0000.0001) %MON dynstat_salt_mean            =   3.4722531018262E+01
(PID.TID 0000.0001) %MON dynstat_salt_sd              =   4.3220094624075E-01
(PID.TID 0000.0001) %MON dynstat_salt_del2            =   1.2560938270935E-05
(PID.TID 0000.0001) %MON dynstat_sst_max              =   1.6701325111089E+03
(PID.TID 0000.0001) %MON dynstat_sst_min              =  -9.5036095413346E+03
(PID.TID 0000.0001) %MON dynstat_sst_mean             =   1.7194530070152E+01
(PID.TID 0000.0001) %MON dynstat_sst_sd               =   9.8486808579672E+00
(PID.TID 0000.0001) %MON dynstat_sst_del2             =   3.7436840254759E-03
(PID.TID 0000.0001) %MON dynstat_sss_max              =   6.0318075138828E+02
(PID.TID 0000.0001) %MON dynstat_sss_min              =  -9.3909190842977E+02
(PID.TID 0000.0001) %MON dynstat_sss_mean             =   3.4571541380599E+01
(PID.TID 0000.0001) %MON dynstat_sss_sd               =   1.6048949430032E+00
(PID.TID 0000.0001) %MON dynstat_sss_del2             =   4.1495436792090E-04
(PID.TID 0000.0001) %MON forcing_qnet_max             =   6.4950062500000E+05
(PID.TID 0000.0001) %MON forcing_qnet_min             =  -3.2842143750000E+05
(PID.TID 0000.0001) %MON forcing_qnet_mean            =  -9.2588148274766E+02
(PID.TID 0000.0001) %MON forcing_qnet_sd              =   2.2973420438193E+03
(PID.TID 0000.0001) %MON forcing_qnet_del2            =   1.1328944352106E+00
(PID.TID 0000.0001) %MON forcing_qsw_max              =   0.0000000000000E+00
(PID.TID 0000.0001) %MON forcing_qsw_min              =   0.0000000000000E+00
(PID.TID 0000.0001) %MON forcing_qsw_mean             =   0.0000000000000E+00
(PID.TID 0000.0001) %MON forcing_qsw_sd               =   0.0000000000000E+00
(PID.TID 0000.0001) %MON forcing_qsw_del2             =   0.0000000000000E+00
(PID.TID 0000.0001) %MON forcing_empmr_max            =   3.8148674964905E+00
(PID.TID 0000.0001) %MON forcing_empmr_min            =  -2.2156417369843E+00
(PID.TID 0000.0001) %MON forcing_empmr_mean           =   4.7558799269838E-05
(PID.TID 0000.0001) %MON forcing_empmr_sd             =   6.4689302304252E-03
(PID.TID 0000.0001) %MON forcing_empmr_del2           =   3.1311431164903E-06
(PID.TID 0000.0001) %MON forcing_fu_max               =   1.5766578316689E+00
(PID.TID 0000.0001) %MON forcing_fu_min               =  -1.1076604127884E+00
(PID.TID 0000.0001) %MON forcing_fu_mean              =   1.6144924714678E-02
(PID.TID 0000.0001) %MON forcing_fu_sd                =   1.5532958895070E-01
(PID.TID 0000.0001) %MON forcing_fu_del2              =   2.4766644163305E-06
(PID.TID 0000.0001) %MON forcing_fv_max               =   1.3013923168182E+00
(PID.TID 0000.0001) %MON forcing_fv_min               =  -1.5451383965562E+00
(PID.TID 0000.0001) %MON forcing_fv_mean              =  -2.7504838044022E-03
(PID.TID 0000.0001) %MON forcing_fv_sd                =   1.5467355497174E-01
(PID.TID 0000.0001) %MON forcing_fv_del2              =   1.9690544720830E-06
(PID.TID 0000.0001) %MON trAdv_CFL_u_max              =   1.7778130237841E+01
(PID.TID 0000.0001) %MON trAdv_CFL_v_max              =   7.2375162667013E+01
(PID.TID 0000.0001) %MON trAdv_CFL_w_max              =   2.1657590581851E+02
(PID.TID 0000.0001) %MON advcfl_uvel_max              =   1.3836878465592E+01
(PID.TID 0000.0001) %MON advcfl_vvel_max              =   6.4888788219840E+01
(PID.TID 0000.0001) %MON advcfl_wvel_max              =   2.8115541651943E+02
(PID.TID 0000.0001) %MON advcfl_W_hf_max              =   2.4587735189983E+02
(PID.TID 0000.0001) %MON pe_b_mean                    =   8.4755793871122E-04
(PID.TID 0000.0001) %MON ke_max                       =   9.3887597889090E+04
(PID.TID 0000.0001) %MON ke_mean                      =   4.3995644751097E-03
(PID.TID 0000.0001) %MON ke_vol                       =   1.3321941752083E+18
(PID.TID 0000.0001) %MON vort_r_min                   =  -2.7505810869840E-01
(PID.TID 0000.0001) %MON vort_r_max                   =   1.7682870101469E-01
(PID.TID 0000.0001) %MON vort_a_mean                  =  -1.9843068483441E-05
(PID.TID 0000.0001) %MON vort_a_sd                    =   7.4739123250780E-05
(PID.TID 0000.0001) %MON vort_p_mean                  =  -2.0738617281633E-05
(PID.TID 0000.0001) %MON vort_p_sd                    =   8.3640938871919E-05
(PID.TID 0000.0001) %MON surfExpan_theta_mean         =   1.4385237068907E-04
(PID.TID 0000.0001) %MON surfExpan_salt_mean          =  -3.5130191962715E-06
