(PID.TID 0000.0001) 
(PID.TID 0000.0001) // ======================================================
(PID.TID 0000.0001) //                      MITgcm UV
(PID.TID 0000.0001) //                      =========
(PID.TID 0000.0001) // ======================================================
(PID.TID 0000.0001) // execution environment starting up...
(PID.TID 0000.0001) 
(PID.TID 0000.0001) // MITgcmUV version:  checkpoint67b
(PID.TID 0000.0001) // Build user:        estrobac
(PID.TID 0000.0001) // Build host:        borgo041
(PID.TID 0000.0001) // Build date:        Tue Jun 19 12:18:46 EDT 2018
(PID.TID 0000.0001) 
(PID.TID 0000.0001) // =======================================================
(PID.TID 0000.0001) // Execution Environment parameter file "eedata"
(PID.TID 0000.0001) // =======================================================
(PID.TID 0000.0001) ># Example "eedata" file
(PID.TID 0000.0001) ># Lines beginning "#" are comments
(PID.TID 0000.0001) ># nTx - No. threads per process in X
(PID.TID 0000.0001) ># nTy - No. threads per process in Y
(PID.TID 0000.0001) > &EEPARMS
(PID.TID 0000.0001) > useCubedSphereExchange=.TRUE.,
(PID.TID 0000.0001) > nTx=1,
(PID.TID 0000.0001) > nTy=1,
(PID.TID 0000.0001) > &end
(PID.TID 0000.0001) ># Note: Some systems use & as the
(PID.TID 0000.0001) ># namelist terminator. Other systems
(PID.TID 0000.0001) ># use a / character (as shown here).
(PID.TID 0000.0001) 
(PID.TID 0000.0001) // =======================================================
(PID.TID 0000.0001) // Computational Grid Specification ( see files "SIZE.h" )
(PID.TID 0000.0001) //                                  ( and "eedata"       )
(PID.TID 0000.0001) // =======================================================
(PID.TID 0000.0001)      nPx =    6 ; /* No. processes in X */
(PID.TID 0000.0001)      nPy =    1 ; /* No. processes in Y */
(PID.TID 0000.0001)      nSx =    1 ; /* No. tiles in X per process */
(PID.TID 0000.0001)      nSy =    1 ; /* No. tiles in Y per process */
(PID.TID 0000.0001)      sNx =   32 ; /* Tile size in X */
(PID.TID 0000.0001)      sNy =   32 ; /* Tile size in Y */
(PID.TID 0000.0001)      OLx =    4 ; /* Tile overlap distance in X */
(PID.TID 0000.0001)      OLy =    4 ; /* Tile overlap distance in Y */
(PID.TID 0000.0001)      nTx =    1 ; /* No. threads in X per process */
(PID.TID 0000.0001)      nTy =    1 ; /* No. threads in Y per process */
(PID.TID 0000.0001)       Nr =   15 ; /* No. levels in the vertical   */
(PID.TID 0000.0001)       Nx =  192 ; /* Total domain size in X ( = nPx*nSx*sNx ) */
(PID.TID 0000.0001)       Ny =   32 ; /* Total domain size in Y ( = nPy*nSy*sNy ) */
(PID.TID 0000.0001)   nTiles =    1 ; /* Total no. tiles per process ( = nSx*nSy ) */
(PID.TID 0000.0001)   nProcs =    6 ; /* Total no. processes ( = nPx*nPy ) */
(PID.TID 0000.0001) nThreads =    1 ; /* Total no. threads per process ( = nTx*nTy ) */
(PID.TID 0000.0001) usingMPI =    T ; /* Flag used to control whether MPI is in use */
(PID.TID 0000.0001)                   /*  note: To execute a program with MPI calls */
(PID.TID 0000.0001)                   /*  it must be launched appropriately e.g     */
(PID.TID 0000.0001)                   /*  "mpirun -np 64 ......"                    */
(PID.TID 0000.0001) useCoupler=    F ;/* Flag used to control communications with   */
(PID.TID 0000.0001)                   /*  other model components, through a coupler */
(PID.TID 0000.0001) debugMode =    F ; /* print debug msg. (sequence of S/R calls)  */
(PID.TID 0000.0001) printMapIncludesZeros=    F ; /* print zeros in Std.Output maps */
(PID.TID 0000.0001) maxLengthPrt1D=   65 /* maxLength of 1D array printed to StdOut */
(PID.TID 0000.0001) 
(PID.TID 0000.0001) ======= Starting MPI parallel Run =========
(PID.TID 0000.0001)  My Processor Name (len: 10 ) = discover33
(PID.TID 0000.0001)  Located at (  0,  0) on processor grid (0:  5,0:  0)
(PID.TID 0000.0001)  Origin at  (     1,     1) on global grid (1:   192,1:    32)
(PID.TID 0000.0001)  North neighbor = processor 0000
(PID.TID 0000.0001)  South neighbor = processor 0000
(PID.TID 0000.0001)   East neighbor = processor 0001
(PID.TID 0000.0001)   West neighbor = processor 0005
(PID.TID 0000.0001) // ======================================================
(PID.TID 0000.0001) // Mapping of tiles to threads
(PID.TID 0000.0001) // ======================================================
(PID.TID 0000.0001) // -o- Thread   1, tiles (   1:   1,   1:   1)
(PID.TID 0000.0001) 
(PID.TID 0000.0001) W2_READPARMS: file data.exch2 not found
(PID.TID 0000.0001) => use W2_EXCH2 default: regular 6-facets Cube
(PID.TID 0000.0001) W2_useE2ioLayOut=    T ;/* T: use Exch2 glob IO map; F: use model default */
(PID.TID 0000.0001) W2_mapIO        =  -1 ; /* select option for Exch2 global-IO map */
(PID.TID 0000.0001) W2_printMsg     =  -1 ; /* select option for printing information */
(PID.TID 0000.0001) ===== Start setting W2 TOPOLOGY:
(PID.TID 0000.0001)  write to log-file: w2_tile_topology.0000.log
(PID.TID 0000.0001) =====       setting W2 TOPOLOGY: Done
(PID.TID 0000.0001) 
(PID.TID 0000.0001)  INI_PARMS: opening model parameter file "data"
(PID.TID 0000.0001)  OPEN_COPY_DATA_FILE: opening file data
(PID.TID 0000.0001) // =======================================================
(PID.TID 0000.0001) // Parameter file "data"
(PID.TID 0000.0001) // =======================================================
(PID.TID 0000.0001) ># ====================
(PID.TID 0000.0001) ># | Model parameters |
(PID.TID 0000.0001) ># ====================
(PID.TID 0000.0001) >#
(PID.TID 0000.0001) ># Continuous equation parameters
(PID.TID 0000.0001) > &PARM01
(PID.TID 0000.0001) > tRef=15*20.,
(PID.TID 0000.0001) > sRef=15*35.,
(PID.TID 0000.0001) > viscAh =3.E5,
(PID.TID 0000.0001) > viscAr =1.E-3,
(PID.TID 0000.0001) > diffKrT=3.E-5,
(PID.TID 0000.0001) > diffKrS=3.E-5,
(PID.TID 0000.0001) > ivdc_kappa=10.,
(PID.TID 0000.0001) > implicitDiffusion=.TRUE.,
(PID.TID 0000.0001) > rhonil=1035.,
(PID.TID 0000.0001) > rhoConstFresh=1000.,
(PID.TID 0000.0001) > eosType='JMD95Z',
(PID.TID 0000.0001) > staggerTimeStep=.TRUE.,
(PID.TID 0000.0001) > vectorInvariantMomentum=.TRUE.,
(PID.TID 0000.0001) > implicitFreeSurface=.TRUE.,
(PID.TID 0000.0001) > exactConserv=.TRUE.,
(PID.TID 0000.0001) > select_rStar=2,
(PID.TID 0000.0001) > nonlinFreeSurf=4,
(PID.TID 0000.0001) > useRealFreshWaterFlux=.TRUE.,
(PID.TID 0000.0001) > allowFreezing=.TRUE.,
(PID.TID 0000.0001) > hFacMin=.1,
(PID.TID 0000.0001) > hFacMinDr=20.,
(PID.TID 0000.0001) > readBinaryPrec=64,
(PID.TID 0000.0001) > useSingleCpuIo=.TRUE.,
(PID.TID 0000.0001) > &end
(PID.TID 0000.0001) >
(PID.TID 0000.0001) ># Elliptic solver parameters
(PID.TID 0000.0001) > &PARM02
(PID.TID 0000.0001) > &end
(PID.TID 0000.0001) >
(PID.TID 0000.0001) ># Time stepping parameters
(PID.TID 0000.0001) > &PARM03
(PID.TID 0000.0001) > nIter0           = 72000,
(PID.TID 0000.0001) >  nTimeSteps       = 96,
(PID.TID 0000.0001) > deltaT           = 900.,
(PID.TID 0000.0001) > monitorFreq      = 1.,
(PID.TID 0000.0001) > abEps            = 0.1,
(PID.TID 0000.0001) > tracForcingOutAB = 1,
(PID.TID 0000.0001) > &end
(PID.TID 0000.0001) >
(PID.TID 0000.0001) ># Gridding parameters
(PID.TID 0000.0001) > &PARM04
(PID.TID 0000.0001) > usingCurvilinearGrid=.TRUE.,
(PID.TID 0000.0001) > horizGridFile='grid_cs32',
(PID.TID 0000.0001) > delR= 50., 70., 100., 140., 190.,
(PID.TID 0000.0001) >       240., 290., 340., 390., 440.,
(PID.TID 0000.0001) >       490., 540., 590., 640., 690.,
(PID.TID 0000.0001) > &end
(PID.TID 0000.0001) >
(PID.TID 0000.0001) ># Input datasets
(PID.TID 0000.0001) > &PARM05
(PID.TID 0000.0001) > bathyFile      ='bathy_Hmin50.bin',
(PID.TID 0000.0001) > &end
(PID.TID 0000.0001) 
(PID.TID 0000.0001)  INI_PARMS ; starts to read PARM01
(PID.TID 0000.0001)  INI_PARMS ; read PARM01 : OK
(PID.TID 0000.0001)  INI_PARMS ; starts to read PARM02
(PID.TID 0000.0001)  INI_PARMS ; read PARM02 : OK
(PID.TID 0000.0001)  INI_PARMS ; starts to read PARM03
(PID.TID 0000.0001)  INI_PARMS ; read PARM03 : OK
(PID.TID 0000.0001)  INI_PARMS ; starts to read PARM04
(PID.TID 0000.0001)  INI_PARMS ; read PARM04 : OK
(PID.TID 0000.0001)  INI_PARMS ; starts to read PARM05
(PID.TID 0000.0001)  INI_PARMS ; read PARM05 : OK
(PID.TID 0000.0001)  INI_PARMS: finished reading file "data"
(PID.TID 0000.0001)  PACKAGES_BOOT: opening data.pkg
(PID.TID 0000.0001)  OPEN_COPY_DATA_FILE: opening file data.pkg
(PID.TID 0000.0001) // =======================================================
(PID.TID 0000.0001) // Parameter file "data.pkg"
(PID.TID 0000.0001) // =======================================================
(PID.TID 0000.0001) ># Packages
(PID.TID 0000.0001) > &PACKAGES
(PID.TID 0000.0001) > useGMRedi=.TRUE.,
(PID.TID 0000.0001) > useDiagnostics=.TRUE.,
(PID.TID 0000.0001) > &end
(PID.TID 0000.0001) 
(PID.TID 0000.0001)  PACKAGES_BOOT: finished reading data.pkg
(PID.TID 0000.0001)  PACKAGES_BOOT: On/Off package Summary
 --------  pkgs with a standard "usePKG" On/Off switch in "data.pkg":  --------
 pkg/gmredi               compiled   and   used ( useGMRedi                = T )
 pkg/bulk_force           compiled but not used ( useBulkForce             = F )
 pkg/diagnostics          compiled   and   used ( useDiagnostics           = T )
 -------- pkgs without standard "usePKG" On/Off switch in "data.pkg":  --------
 pkg/generic_advdiff      compiled   and   used ( useGAD                   = T )
 pkg/mom_common           compiled   and   used ( momStepping              = T )
 pkg/mom_vecinv           compiled   and   used ( +vectorInvariantMomentum = T )
 pkg/mom_fluxform         compiled but not used ( & not vectorInvariantMom = F )
 pkg/monitor              compiled   and   used ( monitorFreq > 0.         = T )
 pkg/timeave              compiled but not used ( taveFreq > 0.            = F )
 pkg/debug                compiled but not used ( debugMode                = F )
 pkg/exch2                compiled   and   used
 pkg/rw                   compiled   and   used
 pkg/mdsio                compiled   and   used
(PID.TID 0000.0001)  PACKAGES_BOOT: End of package Summary
(PID.TID 0000.0001) 
(PID.TID 0000.0001)  GM_READPARMS: opening data.gmredi
(PID.TID 0000.0001)  OPEN_COPY_DATA_FILE: opening file data.gmredi
(PID.TID 0000.0001) // =======================================================
(PID.TID 0000.0001) // Parameter file "data.gmredi"
(PID.TID 0000.0001) // =======================================================
(PID.TID 0000.0001) ># GM+Redi package parameters:
(PID.TID 0000.0001) >
(PID.TID 0000.0001) >#-from MOM :
(PID.TID 0000.0001) ># GM_background_K: 	G & Mc.W  diffusion coefficient
(PID.TID 0000.0001) ># GM_maxSlope    :	max slope of isopycnals
(PID.TID 0000.0001) ># GM_Scrit       :	transition for scaling diffusion coefficient
(PID.TID 0000.0001) ># GM_Sd          :	half width scaling for diffusion coefficient
(PID.TID 0000.0001) ># GM_taper_scheme:	slope clipping or one of the tapering schemes
(PID.TID 0000.0001) ># GM_Kmin_horiz  :	horizontal diffusion minimum value
(PID.TID 0000.0001) >
(PID.TID 0000.0001) >#-Option parameters (needs to "define" options in GMREDI_OPTIONS.h")
(PID.TID 0000.0001) ># GM_isopycK     :	isopycnal diffusion coefficient (default=GM_background_K)
(PID.TID 0000.0001) ># GM_AdvForm     :	turn on GM Advective form       (default=Skew flux form)
(PID.TID 0000.0001) >
(PID.TID 0000.0001) > &GM_PARM01
(PID.TID 0000.0001) >  GM_background_K    = 800.,
(PID.TID 0000.0001) >  GM_taper_scheme    = 'gkw91',
(PID.TID 0000.0001) >  GM_maxSlope        = 1.e-2,
(PID.TID 0000.0001) >  GM_Kmin_horiz      = 50.,
(PID.TID 0000.0001) >  GM_Scrit           = 4.e-3,
(PID.TID 0000.0001) >  GM_Sd              = 1.e-3,
(PID.TID 0000.0001) ># GM_Visbeck_alpha   = 0.,
(PID.TID 0000.0001) ># GM_Visbeck_length  = 2.e+5,
(PID.TID 0000.0001) ># GM_Visbeck_depth   = 1.e+3,
(PID.TID 0000.0001) ># GM_Visbeck_maxval_K= 2.5e+3,
(PID.TID 0000.0001) > &end
(PID.TID 0000.0001) >
(PID.TID 0000.0001) >
(PID.TID 0000.0001) 
(PID.TID 0000.0001)  GM_READPARMS: finished reading data.gmredi
(PID.TID 0000.0001)  DIAGNOSTICS_READPARMS: opening data.diagnostics
(PID.TID 0000.0001)  OPEN_COPY_DATA_FILE: opening file data.diagnostics
(PID.TID 0000.0001) // =======================================================
(PID.TID 0000.0001) // Parameter file "data.diagnostics"
(PID.TID 0000.0001) // =======================================================
(PID.TID 0000.0001) ># Diagnostic Package Choices
(PID.TID 0000.0001) >#--------------------
(PID.TID 0000.0001) >#  dumpAtLast (logical): always write output at the end of simulation (default=F)
(PID.TID 0000.0001) >#  diag_mnc   (logical): write to NetCDF files (default=useMNC)
(PID.TID 0000.0001) >#--for each output-stream:
(PID.TID 0000.0001) >#  fileName(n) : prefix of the output file name (max 80c long) for outp.stream n
(PID.TID 0000.0001) >#  frequency(n):< 0 : write snap-shot output every |frequency| seconds
(PID.TID 0000.0001) >#               > 0 : write time-average output every frequency seconds
(PID.TID 0000.0001) >#  timePhase(n)     : write at time = timePhase + multiple of |frequency|
(PID.TID 0000.0001) >#    averagingFreq  : frequency (in s) for periodic averaging interval
(PID.TID 0000.0001) >#    averagingPhase : phase     (in s) for periodic averaging interval
(PID.TID 0000.0001) >#    repeatCycle    : number of averaging intervals in 1 cycle
(PID.TID 0000.0001) >#  levels(:,n) : list of levels to write to file (Notes: declared as REAL)
(PID.TID 0000.0001) >#                when this entry is missing, select all common levels of this list
(PID.TID 0000.0001) >#  fields(:,n) : list of selected diagnostics fields (8.c) in outp.stream n
(PID.TID 0000.0001) >#                (see "available_diagnostics.log" file for the full list of diags)
(PID.TID 0000.0001) >#  missing_value(n) : missing value for real-type fields in output file "n"
(PID.TID 0000.0001) >#  fileFlags(n)     : specific code (8c string) for output file "n"
(PID.TID 0000.0001) >#--------------------
(PID.TID 0000.0001) ># oceTAUX  zonal surface wind stress, >0 increases uVel (N/m^2)
(PID.TID 0000.0001) ># oceTAUY  meridional surf. wind stress, >0 increases vVel (N/m^2)
(PID.TID 0000.0001) ># oceFWflx net surface Fresh-Water flux into ocean, >0 decreases salinity (kg/m^2/s)
(PID.TID 0000.0001) ># oceSflux net surface Salt flux into the ocean, >0 increases salinity (g/m^2/s)
(PID.TID 0000.0001) ># oceQnet  net surface heat flux into the ocean, >0 increases theta (W/m^2)
(PID.TID 0000.0001) ># oceQsw   net Short-Wave radiation (+=down), >0 increases theta (W/m^2)
(PID.TID 0000.0001) ># SSS      Sea Surface Salinity (g/kg)
(PID.TID 0000.0001) ># SST      Sea Surface Temperature (degC)
(PID.TID 0000.0001) ># UVEL1    Zonal Surface Velocity (m/s)
(PID.TID 0000.0001) ># VVEL1    Meridional Surface Velocity (m/s)
(PID.TID 0000.0001) >
(PID.TID 0000.0001) > &DIAGNOSTICS_LIST
(PID.TID 0000.0001) >   frequency(1)  = -3600.,
(PID.TID 0000.0001) >    fields(1,1)  = 'oceTAUX ',
(PID.TID 0000.0001) >    filename(1)  = 'oceTAUX',
(PID.TID 0000.0001) >   frequency(2)  = -3600.,
(PID.TID 0000.0001) >    fields(1,2)  = 'oceTAUY ',
(PID.TID 0000.0001) >    filename(2)  = 'oceTAUY',
(PID.TID 0000.0001) >   frequency(3)  = -3600.,
(PID.TID 0000.0001) >    fields(1,3)  = 'oceFWflx',
(PID.TID 0000.0001) >    filename(3)  = 'oceFWflx',
(PID.TID 0000.0001) >   frequency(4)  = -3600.,
(PID.TID 0000.0001) >    fields(1,4)  = 'oceSflux',
(PID.TID 0000.0001) >    filename(4)  = 'oceSflux',
(PID.TID 0000.0001) >   frequency(5)  = -3600.,
(PID.TID 0000.0001) >    fields(1,5)  = 'oceQnet ',
(PID.TID 0000.0001) >    filename(5)  = 'oceQnet',
(PID.TID 0000.0001) >   frequency(6)  = -3600.,
(PID.TID 0000.0001) >    fields(1,6)  = 'oceQsw  ',
(PID.TID 0000.0001) >    filename(6)  = 'oceQsw',
(PID.TID 0000.0001) >   frequency(7)  = -3600.,
(PID.TID 0000.0001) >    fields(1,7)  = 'SALT    ',
(PID.TID 0000.0001) >    levels(1,7)  = 1.,
(PID.TID 0000.0001) >    filename(7)  = 'SSS',
(PID.TID 0000.0001) >   frequency(8)  = -3600.,
(PID.TID 0000.0001) >    fields(1,8)  = 'THETA   ',
(PID.TID 0000.0001) >    levels(1,8)  = 1.,
(PID.TID 0000.0001) >    filename(8)  = 'SST',
(PID.TID 0000.0001) >   frequency(9)  = -3600.,
(PID.TID 0000.0001) >    fields(1,9)  = 'UVELMASS',
(PID.TID 0000.0001) >    levels(1,9)  = 1.,
(PID.TID 0000.0001) >    filename(9)  = 'UVEL1',
(PID.TID 0000.0001) >   frequency(10) = -3600.,
(PID.TID 0000.0001) >    fields(1,10) = 'VVELMASS',
(PID.TID 0000.0001) >    levels(1,10) = 1.,
(PID.TID 0000.0001) >    filename(10) = 'VVEL1',
(PID.TID 0000.0001) > &
(PID.TID 0000.0001) >
(PID.TID 0000.0001) > &DIAG_STATIS_PARMS
(PID.TID 0000.0001) > &
(PID.TID 0000.0001) 
(PID.TID 0000.0001) S/R DIAGNOSTICS_READPARMS, read namelist "diagnostics_list": start
(PID.TID 0000.0001) S/R DIAGNOSTICS_READPARMS, read namelist "diagnostics_list": OK
(PID.TID 0000.0001) S/R DIAGNOSTICS_READPARMS, read namelist "DIAG_STATIS_PARMS": start
(PID.TID 0000.0001) S/R DIAGNOSTICS_READPARMS, read namelist "DIAG_STATIS_PARMS": OK
(PID.TID 0000.0001)  DIAGNOSTICS_READPARMS: global parameter summary:
(PID.TID 0000.0001)  dumpAtLast = /* always write time-ave diags at the end */
(PID.TID 0000.0001)                   F
(PID.TID 0000.0001)     ;
(PID.TID 0000.0001)  diag_mnc =   /* write NetCDF output files */
(PID.TID 0000.0001)                   F
(PID.TID 0000.0001)     ;
(PID.TID 0000.0001)  useMissingValue = /* put MissingValue where mask = 0 */
(PID.TID 0000.0001)                   F
(PID.TID 0000.0001)     ;
(PID.TID 0000.0001)  diagCG_maxIters = /* max number of iters in diag_cg2d */
(PID.TID 0000.0001)                     150
(PID.TID 0000.0001)     ;
(PID.TID 0000.0001)  diagCG_resTarget = /* residual target for diag_cg2d */
(PID.TID 0000.0001)                 1.000000000000000E-07
(PID.TID 0000.0001)     ;
(PID.TID 0000.0001)  diagCG_pcOffDFac = /* preconditioner off-diagonal factor */
(PID.TID 0000.0001)                 9.611687812379854E-01
(PID.TID 0000.0001)     ;
(PID.TID 0000.0001) -----------------------------------------------------
(PID.TID 0000.0001)  DIAGNOSTICS_READPARMS: active diagnostics summary:
(PID.TID 0000.0001) -----------------------------------------------------
(PID.TID 0000.0001) Creating Output Stream: oceTAUX
(PID.TID 0000.0001) Output Frequency:      -3600.000000 ; Phase:        1800.000000
(PID.TID 0000.0001)  Averaging Freq.:          0.000000 , Phase:           0.000000 , Cycle:   1
(PID.TID 0000.0001)  missing value: -9.990000000000E+02
(PID.TID 0000.0001)  Levels:    will be set later
(PID.TID 0000.0001)  Fields:    oceTAUX
(PID.TID 0000.0001) Creating Output Stream: oceTAUY
(PID.TID 0000.0001) Output Frequency:      -3600.000000 ; Phase:        1800.000000
(PID.TID 0000.0001)  Averaging Freq.:          0.000000 , Phase:           0.000000 , Cycle:   1
(PID.TID 0000.0001)  missing value: -9.990000000000E+02
(PID.TID 0000.0001)  Levels:    will be set later
(PID.TID 0000.0001)  Fields:    oceTAUY
(PID.TID 0000.0001) Creating Output Stream: oceFWflx
(PID.TID 0000.0001) Output Frequency:      -3600.000000 ; Phase:        1800.000000
(PID.TID 0000.0001)  Averaging Freq.:          0.000000 , Phase:           0.000000 , Cycle:   1
(PID.TID 0000.0001)  missing value: -9.990000000000E+02
(PID.TID 0000.0001)  Levels:    will be set later
(PID.TID 0000.0001)  Fields:    oceFWflx
(PID.TID 0000.0001) Creating Output Stream: oceSflux
(PID.TID 0000.0001) Output Frequency:      -3600.000000 ; Phase:        1800.000000
(PID.TID 0000.0001)  Averaging Freq.:          0.000000 , Phase:           0.000000 , Cycle:   1
(PID.TID 0000.0001)  missing value: -9.990000000000E+02
(PID.TID 0000.0001)  Levels:    will be set later
(PID.TID 0000.0001)  Fields:    oceSflux
(PID.TID 0000.0001) Creating Output Stream: oceQnet
(PID.TID 0000.0001) Output Frequency:      -3600.000000 ; Phase:        1800.000000
(PID.TID 0000.0001)  Averaging Freq.:          0.000000 , Phase:           0.000000 , Cycle:   1
(PID.TID 0000.0001)  missing value: -9.990000000000E+02
(PID.TID 0000.0001)  Levels:    will be set later
(PID.TID 0000.0001)  Fields:    oceQnet
(PID.TID 0000.0001) Creating Output Stream: oceQsw
(PID.TID 0000.0001) Output Frequency:      -3600.000000 ; Phase:        1800.000000
(PID.TID 0000.0001)  Averaging Freq.:          0.000000 , Phase:           0.000000 , Cycle:   1
(PID.TID 0000.0001)  missing value: -9.990000000000E+02
(PID.TID 0000.0001)  Levels:    will be set later
(PID.TID 0000.0001)  Fields:    oceQsw
(PID.TID 0000.0001) Creating Output Stream: SSS
(PID.TID 0000.0001) Output Frequency:      -3600.000000 ; Phase:        1800.000000
(PID.TID 0000.0001)  Averaging Freq.:          0.000000 , Phase:           0.000000 , Cycle:   1
(PID.TID 0000.0001)  missing value: -9.990000000000E+02
(PID.TID 0000.0001)  Levels:       1.
(PID.TID 0000.0001)  Fields:    SALT
(PID.TID 0000.0001) Creating Output Stream: SST
(PID.TID 0000.0001) Output Frequency:      -3600.000000 ; Phase:        1800.000000
(PID.TID 0000.0001)  Averaging Freq.:          0.000000 , Phase:           0.000000 , Cycle:   1
(PID.TID 0000.0001)  missing value: -9.990000000000E+02
(PID.TID 0000.0001)  Levels:       1.
(PID.TID 0000.0001)  Fields:    THETA
(PID.TID 0000.0001) Creating Output Stream: UVEL1
(PID.TID 0000.0001) Output Frequency:      -3600.000000 ; Phase:        1800.000000
(PID.TID 0000.0001)  Averaging Freq.:          0.000000 , Phase:           0.000000 , Cycle:   1
(PID.TID 0000.0001)  missing value: -9.990000000000E+02
(PID.TID 0000.0001)  Levels:       1.
(PID.TID 0000.0001)  Fields:    UVELMASS
(PID.TID 0000.0001) Creating Output Stream: VVEL1
(PID.TID 0000.0001) Output Frequency:      -3600.000000 ; Phase:        1800.000000
(PID.TID 0000.0001)  Averaging Freq.:          0.000000 , Phase:           0.000000 , Cycle:   1
(PID.TID 0000.0001)  missing value: -9.990000000000E+02
(PID.TID 0000.0001)  Levels:       1.
(PID.TID 0000.0001)  Fields:    VVELMASS
(PID.TID 0000.0001) -----------------------------------------------------
(PID.TID 0000.0001)  DIAGNOSTICS_READPARMS: statistics diags. summary:
(PID.TID 0000.0001) -----------------------------------------------------
(PID.TID 0000.0001) 
(PID.TID 0000.0001) SET_PARMS: done
(PID.TID 0000.0001) Enter INI_VERTICAL_GRID: setInterFDr=    T ; setCenterDr=    F
(PID.TID 0000.0001) tile:   1 ; Read from file grid_cs32.face001.bin
(PID.TID 0000.0001)   => xC yC dxF dyF rA xG yG dxV dyU rAz dxC dyC rAw rAs dxG dyG AngleCS AngleSN
(PID.TID 0000.0001) %MON XC_max                       =   1.7854351589505E+02
(PID.TID 0000.0001) %MON XC_min                       =  -1.7854351589505E+02
(PID.TID 0000.0001) %MON XC_mean                      =  -4.6999441375798E-15
(PID.TID 0000.0001) %MON XC_sd                        =   1.0355545336287E+02
(PID.TID 0000.0001) %MON XG_max                       =   1.8000000000000E+02
(PID.TID 0000.0001) %MON XG_min                       =  -1.7708797161002E+02
(PID.TID 0000.0001) %MON XG_mean                      =   1.8603515625000E+00
(PID.TID 0000.0001) %MON XG_sd                        =   1.0357130300504E+02
(PID.TID 0000.0001) %MON DXC_max                      =   3.2375185836900E+05
(PID.TID 0000.0001) %MON DXC_min                      =   1.1142031410131E+05
(PID.TID 0000.0001) %MON DXC_mean                     =   2.8605689051214E+05
(PID.TID 0000.0001) %MON DXC_sd                       =   3.4042087138252E+04
(PID.TID 0000.0001) %MON DXF_max                      =   3.2369947500827E+05
(PID.TID 0000.0001) %MON DXF_min                      =   1.2020820513318E+05
(PID.TID 0000.0001) %MON DXF_mean                     =   2.8605437324820E+05
(PID.TID 0000.0001) %MON DXF_sd                       =   3.4050524252539E+04
(PID.TID 0000.0001) %MON DXG_max                      =   3.2375195872773E+05
(PID.TID 0000.0001) %MON DXG_min                      =   1.0098378008791E+05
(PID.TID 0000.0001) %MON DXG_mean                     =   2.8603818508931E+05
(PID.TID 0000.0001) %MON DXG_sd                       =   3.4140406908005E+04
(PID.TID 0000.0001) %MON DXV_max                      =   3.2380418162750E+05
(PID.TID 0000.0001) %MON DXV_min                      =   8.0152299824136E+04
(PID.TID 0000.0001) %MON DXV_mean                     =   2.8603970633619E+05
(PID.TID 0000.0001) %MON DXV_sd                       =   3.4145142117723E+04
(PID.TID 0000.0001) %MON YC_max                       =   8.7940663871962E+01
(PID.TID 0000.0001) %MON YC_min                       =  -8.7940663871962E+01
(PID.TID 0000.0001) %MON YC_mean                      =   0.0000000000000E+00
(PID.TID 0000.0001) %MON YC_sd                        =   3.8676242969072E+01
(PID.TID 0000.0001) %MON YG_max                       =   9.0000000000000E+01
(PID.TID 0000.0001) %MON YG_min                       =  -9.0000000000000E+01
(PID.TID 0000.0001) %MON YG_mean                      =  -1.1842378929335E-15
(PID.TID 0000.0001) %MON YG_sd                        =   3.8676895860710E+01
(PID.TID 0000.0001) %MON DYC_max                      =   3.2375185836900E+05
(PID.TID 0000.0001) %MON DYC_min                      =   1.1142031410131E+05
(PID.TID 0000.0001) %MON DYC_mean                     =   2.8605689051214E+05
(PID.TID 0000.0001) %MON DYC_sd                       =   3.4042087138252E+04
(PID.TID 0000.0001) %MON DYF_max                      =   3.2369947500827E+05
(PID.TID 0000.0001) %MON DYF_min                      =   1.2020820513318E+05
(PID.TID 0000.0001) %MON DYF_mean                     =   2.8605437324820E+05
(PID.TID 0000.0001) %MON DYF_sd                       =   3.4050524252539E+04
(PID.TID 0000.0001) %MON DYG_max                      =   3.2375195872773E+05
(PID.TID 0000.0001) %MON DYG_min                      =   1.0098378008791E+05
(PID.TID 0000.0001) %MON DYG_mean                     =   2.8603818508931E+05
(PID.TID 0000.0001) %MON DYG_sd                       =   3.4140406908005E+04
(PID.TID 0000.0001) %MON DYU_max                      =   3.2380418162750E+05
(PID.TID 0000.0001) %MON DYU_min                      =   8.0152299824136E+04
(PID.TID 0000.0001) %MON DYU_mean                     =   2.8603970633619E+05
(PID.TID 0000.0001) %MON DYU_sd                       =   3.4145142117723E+04
(PID.TID 0000.0001) %MON RA_max                       =   1.0479260248419E+11
(PID.TID 0000.0001) %MON RA_min                       =   1.4019007022556E+10
(PID.TID 0000.0001) %MON RA_mean                      =   8.2992246709265E+10
(PID.TID 0000.0001) %MON RA_sd                        =   1.7509089299457E+10
(PID.TID 0000.0001) %MON RAW_max                      =   1.0480965274559E+11
(PID.TID 0000.0001) %MON RAW_min                      =   1.2166903467143E+10
(PID.TID 0000.0001) %MON RAW_mean                     =   8.2992246709235E+10
(PID.TID 0000.0001) %MON RAW_sd                       =   1.7481917919656E+10
(PID.TID 0000.0001) %MON RAS_max                      =   1.0480965274559E+11
(PID.TID 0000.0001) %MON RAS_min                      =   1.2166903467143E+10
(PID.TID 0000.0001) %MON RAS_mean                     =   8.2992246709235E+10
(PID.TID 0000.0001) %MON RAS_sd                       =   1.7481917919656E+10
(PID.TID 0000.0001) %MON RAZ_max                      =   1.0484349334619E+11
(PID.TID 0000.0001) %MON RAZ_min                      =   8.8317900612505E+09
(PID.TID 0000.0001) %MON RAZ_mean                     =   8.2992246709235E+10
(PID.TID 0000.0001) %MON RAZ_sd                       =   1.7482297311044E+10
(PID.TID 0000.0001) %MON AngleCS_max                  =   9.9999994756719E-01
(PID.TID 0000.0001) %MON AngleCS_min                  =  -9.9968286884824E-01
(PID.TID 0000.0001) %MON AngleCS_mean                 =   3.3078922539000E-01
(PID.TID 0000.0001) %MON AngleCS_sd                   =   6.2496278958502E-01
(PID.TID 0000.0001) %MON AngleSN_max                  =   9.9968286884824E-01
(PID.TID 0000.0001) %MON AngleSN_min                  =  -9.9999994756719E-01
(PID.TID 0000.0001) %MON AngleSN_mean                 =  -3.3078922539000E-01
(PID.TID 0000.0001) %MON AngleSN_sd                   =   6.2496278958502E-01
(PID.TID 0000.0001)  MDS_READ_FIELD: opening global file: bathy_Hmin50.bin
(PID.TID 0000.0001) // =======================================================
(PID.TID 0000.0001) // Field Model R_low (ini_masks_etc)
(PID.TID 0000.0001) // CMIN =         -5.200000000000000E+03
(PID.TID 0000.0001) // CMAX =         -5.000000000000000E+01
(PID.TID 0000.0001) // CINT =          1.907407407407407E+02
(PID.TID 0000.0001) // SYMBOLS (CMIN->CMAX): -abcdefghijklmnopqrstuvwxyz+
(PID.TID 0000.0001) //                  0.0: .
(PID.TID 0000.0001) // RANGE I (Lo:Hi:Step):(    -3:    36:     1)
(PID.TID 0000.0001) // RANGE J (Lo:Hi:Step):(    36:    -3:    -1)
(PID.TID 0000.0001) // RANGE K (Lo:Hi:Step):(   1:   1:   1)
(PID.TID 0000.0001) // =======================================================
(PID.TID 0000.0001) K =   1
(PID.TID 0000.0001) //                I=6       I=16      I=26      I=36
(PID.TID 0000.0001) // |--J--|321012345|789012345|789012345|789012345|
(PID.TID 0000.0001) //     36 cbbc-ddcbcdehkhhmn..++..................
(PID.TID 0000.0001) //     35 dcac--cbbeefjkfefw+..........zpu........
(PID.TID 0000.0001) //     34 d--ba-abcehjnldcclz+........spps........
(PID.TID 0000.0001) //     33 --abbbccceiomkfdbbc+.......+s...........
(PID.TID 0000.0001) //     32 --bddefhhkqqlgfaakqz..v.+..+............
(PID.TID 0000.0001) //     31 abbcffijnpnqneaaat..umrr+s.z............
(PID.TID 0000.0001) //     30 --adgillkkkifcadcx.ymmqzqikvnnps........
(PID.TID 0000.0001) //     29 --cfiljigfjd--efdozy...+ximpnnuz........
(PID.TID 0000.0001) //     28 -abgkhfcccea-bdei........t..............
(PID.TID 0000.0001) //     27 -acghfbaaaa-achmy......................+
(PID.TID 0000.0001) //     26 -adhfca-----bfiv.......................+
(PID.TID 0000.0001) //     25 -achfa------ch+..................w......
(PID.TID 0000.0001) //     24 aaeifa--acbcei...................w......
(PID.TID 0000.0001) //     23 abfida-aabchjk...................zz.....
(PID.TID 0000.0001) //     22 -afhfaa---bfgi....................zz..rn
(PID.TID 0000.0001) //     21 babcgca----abe.....................ysstl
(PID.TID 0000.0001) //     20 fbbbcgfcaa-aae+.......................lc
(PID.TID 0000.0001) //     19 zmfeccdghfeegcbt......................aa
(PID.TID 0000.0001) //     18 ..wifedfkhfegbbcivlqfoz..............jaa
(PID.TID 0000.0001) //     17 ..+wfeefikhgcbbccaaacgn.............icaa
(PID.TID 0000.0001) //     16 ....wiheddeccdfhfbabdfl............jdbad
(PID.TID 0000.0001) //     15 ......ylea--acfihebcbbes..........sfcbbn
(PID.TID 0000.0001) //     14 ........c---acgkhdcc--di..........ofddch
(PID.TID 0000.0001) //     13 .......+b----cfkhec---afz.........nhfdff
(PID.TID 0000.0001) //     12 .......ec----chjhec---ag..........skiqdd
(PID.TID 0000.0001) //     11 ......pdca--achlheba--ai..........nkn.fd
(PID.TID 0000.0001) //     10 ......wfdb--achlhea---an.........uos..dc
(PID.TID 0000.0001) //      9 ......vgec---bfikca--cjl+.......+nnv.+cc
(PID.TID 0000.0001) //      8 .....zleca---afjfca--hdfz.......vkky.jce
(PID.TID 0000.0001) //      7 ...+zohec--abcfkhecbchbdx.......qiht.faa
(PID.TID 0000.0001) //      6 ..+yomfddcaabefkifdchaadt......uqdeisc--
(PID.TID 0000.0001) //      5 ..+nhgffkghccfhkhffgdaackz....uoibcimlaa
(PID.TID 0000.0001) //      4 .+ujhgfllfhdffhkfffca-aady...llnabdopfcb
(PID.TID 0000.0001) //      3 +vjggfcceeffffjlkjgaa---bfvheeln-aesphfd
(PID.TID 0000.0001) //      2 qifeecbbccddefilihecbaacbaajfega-aesqhff
(PID.TID 0000.0001) //      1 ebbbbaaaaaccdfhlhfefdcccaabjefbaaafonhgl
(PID.TID 0000.0001) //      0 -aaaaaaa-aacccfikkhecccbbbaaabaadfkllilm
(PID.TID 0000.0001) //     -1 --aaaaa----aacffiljgfffcca--adfikkiikimi
(PID.TID 0000.0001) //     -2 --aaa-------acdefinmlgiieb-chnnnmlmlfklk
(PID.TID 0000.0001) //     -3 a--a---aa---aedeegknmlgiigcdfhpokkimdkmk
(PID.TID 0000.0001) // =======================================================
(PID.TID 0000.0001) // END OF FIELD                                          =
(PID.TID 0000.0001) // =======================================================
(PID.TID 0000.0001) 
(PID.TID 0000.0001) // =======================================================
(PID.TID 0000.0001) // Field Model Ro_surf (ini_masks_etc)
(PID.TID 0000.0001) // CMIN =          1.000000000000000E+32
(PID.TID 0000.0001) // CMAX =         -1.000000000000000E+32
(PID.TID 0000.0001) // CINT =          0.000000000000000E+00
(PID.TID 0000.0001) // SYMBOLS (CMIN->CMAX): -abcdefghijklmnopqrstuvwxyz+
(PID.TID 0000.0001) //                  0.0: .
(PID.TID 0000.0001) // RANGE I (Lo:Hi:Step):(    -3:    36:     1)
(PID.TID 0000.0001) // RANGE J (Lo:Hi:Step):(    36:    -3:    -1)
(PID.TID 0000.0001) // RANGE K (Lo:Hi:Step):(   1:   1:   1)
(PID.TID 0000.0001) // =======================================================
(PID.TID 0000.0001) // =======================================================
(PID.TID 0000.0001) // END OF FIELD                                          =
(PID.TID 0000.0001) // =======================================================
(PID.TID 0000.0001) 
(PID.TID 0000.0001) // =======================================================
(PID.TID 0000.0001) // Field hFacC at iteration          0
(PID.TID 0000.0001) // CMIN =          1.000000000000000E+00
(PID.TID 0000.0001) // CMAX =          1.000000000000000E+00
(PID.TID 0000.0001) // CINT =          0.000000000000000E+00
(PID.TID 0000.0001) // SYMBOLS (CMIN->CMAX): -abcdefghijklmnopqrstuvwxyz+
(PID.TID 0000.0001) //                  0.0: .
(PID.TID 0000.0001) // RANGE I (Lo:Hi:Step):(    -3:    36:     1)
(PID.TID 0000.0001) // RANGE J (Lo:Hi:Step):(    36:    -3:    -1)
(PID.TID 0000.0001) // RANGE K (Lo:Hi:Step):(   1:   1:   1)
(PID.TID 0000.0001) // =======================================================
(PID.TID 0000.0001) // =======================================================
(PID.TID 0000.0001) // END OF FIELD                                          =
(PID.TID 0000.0001) // =======================================================
(PID.TID 0000.0001) 
(PID.TID 0000.0001) // =======================================================
(PID.TID 0000.0001) // Field hFacW at iteration          0
(PID.TID 0000.0001) // CMIN =          1.000000000000000E+00
(PID.TID 0000.0001) // CMAX =          1.000000000000000E+00
(PID.TID 0000.0001) // CINT =          0.000000000000000E+00
(PID.TID 0000.0001) // SYMBOLS (CMIN->CMAX): -abcdefghijklmnopqrstuvwxyz+
(PID.TID 0000.0001) //                  0.0: .
(PID.TID 0000.0001) // RANGE I (Lo:Hi:Step):(    -3:    36:     1)
(PID.TID 0000.0001) // RANGE J (Lo:Hi:Step):(    36:    -3:    -1)
(PID.TID 0000.0001) // RANGE K (Lo:Hi:Step):(   1:   1:   1)
(PID.TID 0000.0001) // =======================================================
(PID.TID 0000.0001) // =======================================================
(PID.TID 0000.0001) // END OF FIELD                                          =
(PID.TID 0000.0001) // =======================================================
(PID.TID 0000.0001) 
(PID.TID 0000.0001) // =======================================================
(PID.TID 0000.0001) // Field hFacS at iteration          0
(PID.TID 0000.0001) // CMIN =          1.000000000000000E+00
(PID.TID 0000.0001) // CMAX =          1.000000000000000E+00
(PID.TID 0000.0001) // CINT =          0.000000000000000E+00
(PID.TID 0000.0001) // SYMBOLS (CMIN->CMAX): -abcdefghijklmnopqrstuvwxyz+
(PID.TID 0000.0001) //                  0.0: .
(PID.TID 0000.0001) // RANGE I (Lo:Hi:Step):(    -3:    36:     1)
(PID.TID 0000.0001) // RANGE J (Lo:Hi:Step):(    36:    -3:    -1)
(PID.TID 0000.0001) // RANGE K (Lo:Hi:Step):(   1:   1:   1)
(PID.TID 0000.0001) // =======================================================
(PID.TID 0000.0001) // =======================================================
(PID.TID 0000.0001) // END OF FIELD                                          =
(PID.TID 0000.0001) // =======================================================
(PID.TID 0000.0001) 
(PID.TID 0000.0001) GAD_INIT_FIXED: GAD_OlMinSize=  1  0  1
(PID.TID 0000.0001) 
(PID.TID 0000.0001) // ===================================
(PID.TID 0000.0001) // GAD parameters :
(PID.TID 0000.0001) // ===================================
(PID.TID 0000.0001) tempAdvScheme =   /* Temp. Horiz.Advection scheme selector */
(PID.TID 0000.0001)                       2
(PID.TID 0000.0001)     ;
(PID.TID 0000.0001) tempVertAdvScheme =   /* Temp. Vert. Advection scheme selector */
(PID.TID 0000.0001)                       2
(PID.TID 0000.0001)     ;
(PID.TID 0000.0001) tempMultiDimAdvec =   /* use Muti-Dim Advec method for Temp */
(PID.TID 0000.0001)                   F
(PID.TID 0000.0001)     ;
(PID.TID 0000.0001) tempSOM_Advection = /* use 2nd Order Moment Advection for Temp */
(PID.TID 0000.0001)                   F
(PID.TID 0000.0001)     ;
(PID.TID 0000.0001) AdamsBashforthGt = /* apply Adams-Bashforth extrapolation on Gt */
(PID.TID 0000.0001)                   T
(PID.TID 0000.0001)     ;
(PID.TID 0000.0001) AdamsBashforth_T = /* apply Adams-Bashforth extrapolation on Temp */
(PID.TID 0000.0001)                   F
(PID.TID 0000.0001)     ;
(PID.TID 0000.0001) saltAdvScheme =   /* Salt. Horiz.advection scheme selector */
(PID.TID 0000.0001)                       2
(PID.TID 0000.0001)     ;
(PID.TID 0000.0001) saltVertAdvScheme =   /* Salt. Vert. Advection scheme selector */
(PID.TID 0000.0001)                       2
(PID.TID 0000.0001)     ;
(PID.TID 0000.0001) saltMultiDimAdvec =   /* use Muti-Dim Advec method for Salt */
(PID.TID 0000.0001)                   F
(PID.TID 0000.0001)     ;
(PID.TID 0000.0001) saltSOM_Advection = /* use 2nd Order Moment Advection for Salt */
(PID.TID 0000.0001)                   F
(PID.TID 0000.0001)     ;
(PID.TID 0000.0001) AdamsBashforthGs = /* apply Adams-Bashforth extrapolation on Gs */
(PID.TID 0000.0001)                   T
(PID.TID 0000.0001)     ;
(PID.TID 0000.0001) AdamsBashforth_S = /* apply Adams-Bashforth extrapolation on Salt */
(PID.TID 0000.0001)                   F
(PID.TID 0000.0001)     ;
(PID.TID 0000.0001) // ===================================
(PID.TID 0000.0001) ------------------------------------------------------------
(PID.TID 0000.0001) DIAGNOSTICS_SET_LEVELS: done
(PID.TID 0000.0001)  Total Nb of available Diagnostics: ndiagt=   215
(PID.TID 0000.0001)  write list of available Diagnostics to file: available_diagnostics.log
(PID.TID 0000.0001) SETDIAG: Allocate  1 x  1 Levels for Diagnostic #    81 oceTAUX
(PID.TID 0000.0001) SETDIAG: Allocate  1 x  1 Levels for Diagnostic #    82 oceTAUY
(PID.TID 0000.0001) SETDIAG: Allocate  1 x  1 Levels for Diagnostic #    85 oceFWflx
(PID.TID 0000.0001) SETDIAG: Allocate  1 x  1 Levels for Diagnostic #    86 oceSflux
(PID.TID 0000.0001) SETDIAG: Allocate  1 x  1 Levels for Diagnostic #    87 oceQnet
(PID.TID 0000.0001) SETDIAG: Allocate  1 x  1 Levels for Diagnostic #    88 oceQsw
(PID.TID 0000.0001) SETDIAG: Allocate 15 x  1 Levels for Diagnostic #    27 SALT
(PID.TID 0000.0001) SETDIAG: Allocate 15 x  1 Levels for Diagnostic #    26 THETA
(PID.TID 0000.0001) SETDIAG: Allocate 15 x  1 Levels for Diagnostic #    45 UVELMASS
(PID.TID 0000.0001) SETDIAG: Allocate 15 x  1 Levels for Diagnostic #    46 VVELMASS
(PID.TID 0000.0001)   space allocated for all diagnostics:      66 levels
(PID.TID 0000.0001)   set mate pointer for diag #    81  oceTAUX  , Parms: UU      U1 , mate:    82
(PID.TID 0000.0001)   set mate pointer for diag #    82  oceTAUY  , Parms: VV      U1 , mate:    81
(PID.TID 0000.0001)   set mate pointer for diag #    45  UVELMASS , Parms: UUr     MR , mate:    46
(PID.TID 0000.0001)   set mate pointer for diag #    46  VVELMASS , Parms: VVr     MR , mate:    45
(PID.TID 0000.0001) DIAGNOSTICS_SET_POINTERS: Set levels for Outp.Stream: oceTAUX
(PID.TID 0000.0001)  Levels:       1.
(PID.TID 0000.0001) DIAGNOSTICS_SET_POINTERS: Set levels for Outp.Stream: oceTAUY
(PID.TID 0000.0001)  Levels:       1.
(PID.TID 0000.0001) DIAGNOSTICS_SET_POINTERS: Set levels for Outp.Stream: oceFWflx
(PID.TID 0000.0001)  Levels:       1.
(PID.TID 0000.0001) DIAGNOSTICS_SET_POINTERS: Set levels for Outp.Stream: oceSflux
(PID.TID 0000.0001)  Levels:       1.
(PID.TID 0000.0001) DIAGNOSTICS_SET_POINTERS: Set levels for Outp.Stream: oceQnet
(PID.TID 0000.0001)  Levels:       1.
(PID.TID 0000.0001) DIAGNOSTICS_SET_POINTERS: Set levels for Outp.Stream: oceQsw
(PID.TID 0000.0001)  Levels:       1.
(PID.TID 0000.0001) DIAGNOSTICS_SET_POINTERS: done
(PID.TID 0000.0001) ------------------------------------------------------------
(PID.TID 0000.0001) DIAGSTATS_SET_REGIONS: define   0 regions:
(PID.TID 0000.0001) ------------------------------------------------------------
(PID.TID 0000.0001)   space allocated for all stats-diags:       0 levels
(PID.TID 0000.0001) DIAGSTATS_SET_POINTERS: done
(PID.TID 0000.0001) ------------------------------------------------------------
(PID.TID 0000.0001) INI_GLOBAL_DOMAIN: Found  19 CS-corner Pts in the domain
(PID.TID 0000.0001) %MON fCori_max                    =   1.4574827780704E-04
(PID.TID 0000.0001) %MON fCori_min                    =  -1.4574827780704E-04
(PID.TID 0000.0001) %MON fCori_mean                   =   0.0000000000000E+00
(PID.TID 0000.0001) %MON fCori_sd                     =   8.4202189509968E-05
(PID.TID 0000.0001) %MON fCoriG_max                   =   1.4584247033981E-04
(PID.TID 0000.0001) %MON fCoriG_min                   =  -1.4584247033981E-04
(PID.TID 0000.0001) %MON fCoriG_mean                  =   2.2587545260115E-21
(PID.TID 0000.0001) %MON fCoriG_sd                    =   8.4202189509968E-05
(PID.TID 0000.0001) %MON fCoriCos_max                 =   1.4580166994612E-04
(PID.TID 0000.0001) %MON fCoriCos_min                 =   5.2407700865903E-06
(PID.TID 0000.0001) %MON fCoriCos_mean                =   1.1514045869113E-04
(PID.TID 0000.0001) %MON fCoriCos_sd                  =   3.0375849106513E-05
(PID.TID 0000.0001) INI_CG2D: CG2D normalisation factor =  1.9156564154949553E-04
(PID.TID 0000.0001) 
(PID.TID 0000.0001) // =======================================================
(PID.TID 0000.0001) // Model configuration
(PID.TID 0000.0001) // =======================================================
(PID.TID 0000.0001) //
(PID.TID 0000.0001) // "Physical" paramters ( PARM01 in namelist )
(PID.TID 0000.0001) //
(PID.TID 0000.0001) buoyancyRelation = /* Type of relation to get Buoyancy */
(PID.TID 0000.0001)               'OCEANIC'
(PID.TID 0000.0001)     ;
(PID.TID 0000.0001) fluidIsAir   =  /* fluid major constituent is Air */
(PID.TID 0000.0001)                   F
(PID.TID 0000.0001)     ;
(PID.TID 0000.0001) fluidIsWater =  /* fluid major constituent is Water */
(PID.TID 0000.0001)                   T
(PID.TID 0000.0001)     ;
(PID.TID 0000.0001) usingPCoords =  /* use p (or p*) vertical coordinate */
(PID.TID 0000.0001)                   F
(PID.TID 0000.0001)     ;
(PID.TID 0000.0001) usingZCoords =  /* use z (or z*) vertical coordinate */
(PID.TID 0000.0001)                   T
(PID.TID 0000.0001)     ;
(PID.TID 0000.0001) tRef =   /* Reference temperature profile ( oC or K ) */
(PID.TID 0000.0001)    15 @  2.000000000000000E+01              /* K =  1: 15 */
(PID.TID 0000.0001)     ;
(PID.TID 0000.0001) sRef =   /* Reference salinity profile ( psu ) */
(PID.TID 0000.0001)    15 @  3.500000000000000E+01              /* K =  1: 15 */
(PID.TID 0000.0001)     ;
(PID.TID 0000.0001) useStrainTensionVisc= /* Use StrainTension Form of Viscous Operator */
(PID.TID 0000.0001)                   F
(PID.TID 0000.0001)     ;
(PID.TID 0000.0001) useVariableVisc = /* Use variable horizontal viscosity */
(PID.TID 0000.0001)                   F
(PID.TID 0000.0001)     ;
(PID.TID 0000.0001) useHarmonicVisc = /* Use harmonic horizontal viscosity */
(PID.TID 0000.0001)                   T
(PID.TID 0000.0001)     ;
(PID.TID 0000.0001) useBiharmonicVisc= /* Use biharmonic horiz.  viscosity */
(PID.TID 0000.0001)                   F
(PID.TID 0000.0001)     ;
(PID.TID 0000.0001) useSmag3D = /* Use isotropic 3-D Smagorinsky viscosity */
(PID.TID 0000.0001)                   F
(PID.TID 0000.0001)     ;
(PID.TID 0000.0001) viscAh  =   /* Lateral harmonic viscosity ( m^2/s ) */
(PID.TID 0000.0001)                 3.000000000000000E+05
(PID.TID 0000.0001)     ;
(PID.TID 0000.0001) viscA4  =   /* Lateral biharmonic viscosity ( m^4/s ) */
(PID.TID 0000.0001)                 0.000000000000000E+00
(PID.TID 0000.0001)     ;
(PID.TID 0000.0001) no_slip_sides =  /* Viscous BCs: No-slip sides */
(PID.TID 0000.0001)                   T
(PID.TID 0000.0001)     ;
(PID.TID 0000.0001) sideDragFactor = /* side-drag scaling factor (non-dim) */
(PID.TID 0000.0001)                 2.000000000000000E+00
(PID.TID 0000.0001)     ;
(PID.TID 0000.0001) viscArNr = /* vertical profile of vertical viscosity ( m^2/s )*/
(PID.TID 0000.0001)    15 @  1.000000000000000E-03              /* K =  1: 15 */
(PID.TID 0000.0001)     ;
(PID.TID 0000.0001) no_slip_bottom =  /* Viscous BCs: No-slip bottom */
(PID.TID 0000.0001)                   T
(PID.TID 0000.0001)     ;
(PID.TID 0000.0001) bottomVisc_pCell = /* Partial-cell in bottom Visc. BC */
(PID.TID 0000.0001)                   F
(PID.TID 0000.0001)     ;
(PID.TID 0000.0001) bottomDragLinear = /* linear bottom-drag coefficient ( m/s ) */
(PID.TID 0000.0001)                 0.000000000000000E+00
(PID.TID 0000.0001)     ;
(PID.TID 0000.0001) bottomDragQuadratic = /* quadratic bottom-drag coefficient (-) */
(PID.TID 0000.0001)                 0.000000000000000E+00
(PID.TID 0000.0001)     ;
(PID.TID 0000.0001) selectBotDragQuadr = /* select quadratic bottom drag options */
(PID.TID 0000.0001)                      -1
(PID.TID 0000.0001)     ;
(PID.TID 0000.0001) diffKhT =   /* Laplacian diffusion of heat laterally ( m^2/s ) */
(PID.TID 0000.0001)                 0.000000000000000E+00
(PID.TID 0000.0001)     ;
(PID.TID 0000.0001) diffK4T =   /* Biharmonic diffusion of heat laterally ( m^4/s ) */
(PID.TID 0000.0001)                 0.000000000000000E+00
(PID.TID 0000.0001)     ;
(PID.TID 0000.0001) diffKhS =   /* Laplacian diffusion of salt laterally ( m^2/s ) */
(PID.TID 0000.0001)                 0.000000000000000E+00
(PID.TID 0000.0001)     ;
(PID.TID 0000.0001) diffK4S =   /* Biharmonic diffusion of salt laterally ( m^4/s ) */
(PID.TID 0000.0001)                 0.000000000000000E+00
(PID.TID 0000.0001)     ;
(PID.TID 0000.0001) diffKrNrT = /* vertical profile of vertical diffusion of Temp ( m^2/s )*/
(PID.TID 0000.0001)    15 @  3.000000000000000E-05              /* K =  1: 15 */
(PID.TID 0000.0001)     ;
(PID.TID 0000.0001) diffKrNrS = /* vertical profile of vertical diffusion of Salt ( m^2/s )*/
(PID.TID 0000.0001)    15 @  3.000000000000000E-05              /* K =  1: 15 */
(PID.TID 0000.0001)     ;
(PID.TID 0000.0001) diffKrBL79surf = /* Surface diffusion for Bryan and Lewis 79 ( m^2/s ) */
(PID.TID 0000.0001)                 0.000000000000000E+00
(PID.TID 0000.0001)     ;
(PID.TID 0000.0001) diffKrBL79deep = /* Deep diffusion for Bryan and Lewis 1979 ( m^2/s ) */
(PID.TID 0000.0001)                 0.000000000000000E+00
(PID.TID 0000.0001)     ;
(PID.TID 0000.0001) diffKrBL79scl = /* Depth scale for Bryan and Lewis 1979 ( m ) */
(PID.TID 0000.0001)                 2.000000000000000E+02
(PID.TID 0000.0001)     ;
(PID.TID 0000.0001) diffKrBL79Ho = /* Turning depth for Bryan and Lewis 1979 ( m ) */
(PID.TID 0000.0001)                -2.000000000000000E+03
(PID.TID 0000.0001)     ;
(PID.TID 0000.0001) ivdc_kappa = /* Implicit Vertical Diffusivity for Convection ( m^2/s) */
(PID.TID 0000.0001)                 1.000000000000000E+01
(PID.TID 0000.0001)     ;
(PID.TID 0000.0001) hMixCriteria=  /* Criteria for mixed-layer diagnostic */
(PID.TID 0000.0001)                -8.000000000000000E-01
(PID.TID 0000.0001)     ;
(PID.TID 0000.0001) dRhoSmall =  /* Parameter for mixed-layer diagnostic */
(PID.TID 0000.0001)                 1.000000000000000E-06
(PID.TID 0000.0001)     ;
(PID.TID 0000.0001) hMixSmooth=  /* Smoothing parameter for mixed-layer diagnostic */
(PID.TID 0000.0001)                 0.000000000000000E+00
(PID.TID 0000.0001)     ;
(PID.TID 0000.0001) eosType =  /* Type of Equation of State */
(PID.TID 0000.0001)               'JMD95Z'
(PID.TID 0000.0001)     ;
(PID.TID 0000.0001) selectP_inEOS_Zc = /* select pressure to use in EOS (0,1,2,3) */
(PID.TID 0000.0001)                       0
(PID.TID 0000.0001)     0= -g*rhoConst*z ; 1= pRef (from tRef,sRef); 2= Hyd P ; 3= Hyd+NH P
(PID.TID 0000.0001)     ;
(PID.TID 0000.0001) HeatCapacity_Cp =  /* Specific heat capacity ( J/kg/K ) */
(PID.TID 0000.0001)                 3.994000000000000E+03
(PID.TID 0000.0001)     ;
(PID.TID 0000.0001) celsius2K = /* 0 degree Celsius converted to Kelvin ( K ) */
(PID.TID 0000.0001)                 2.731500000000000E+02
(PID.TID 0000.0001)     ;
(PID.TID 0000.0001) rhoConst  = /* Reference density (Boussinesq)  ( kg/m^3 ) */
(PID.TID 0000.0001)                 1.035000000000000E+03
(PID.TID 0000.0001)     ;
(PID.TID 0000.0001) rhoFacC = /* normalized Reference density @ cell-Center (-) */
(PID.TID 0000.0001)    15 @  1.000000000000000E+00              /* K =  1: 15 */
(PID.TID 0000.0001)     ;
(PID.TID 0000.0001) rhoFacF = /* normalized Reference density @ W-Interface (-) */
(PID.TID 0000.0001)    16 @  1.000000000000000E+00              /* K =  1: 16 */
(PID.TID 0000.0001)     ;
(PID.TID 0000.0001) rhoConstFresh = /* Fresh-water reference density ( kg/m^3 ) */
(PID.TID 0000.0001)                 1.000000000000000E+03
(PID.TID 0000.0001)     ;
(PID.TID 0000.0001) gravity =   /* Gravitational acceleration ( m/s^2 ) */
(PID.TID 0000.0001)                 9.810000000000000E+00
(PID.TID 0000.0001)     ;
(PID.TID 0000.0001) gBaro =   /* Barotropic gravity ( m/s^2 ) */
(PID.TID 0000.0001)                 9.810000000000000E+00
(PID.TID 0000.0001)     ;
(PID.TID 0000.0001) gravFacC = /* gravity factor (vs surf.) @ cell-Center (-) */
(PID.TID 0000.0001)    15 @  1.000000000000000E+00              /* K =  1: 15 */
(PID.TID 0000.0001)     ;
(PID.TID 0000.0001) gravFacF = /* gravity factor (vs surf.) @ W-Interface (-) */
(PID.TID 0000.0001)    16 @  1.000000000000000E+00              /* K =  1: 16 */
(PID.TID 0000.0001)     ;
(PID.TID 0000.0001) rotationPeriod =   /* Rotation Period ( s ) */
(PID.TID 0000.0001)                 8.616400000000000E+04
(PID.TID 0000.0001)     ;
(PID.TID 0000.0001) omega =   /* Angular velocity ( rad/s ) */
(PID.TID 0000.0001)                 7.292123516990375E-05
(PID.TID 0000.0001)     ;
(PID.TID 0000.0001) f0 =   /* Reference coriolis parameter ( 1/s ) */
(PID.TID 0000.0001)                 1.000000000000000E-04
(PID.TID 0000.0001)     ;
(PID.TID 0000.0001) beta =   /* Beta ( 1/(m.s) ) */
(PID.TID 0000.0001)                 9.999999999999999E-12
(PID.TID 0000.0001)     ;
(PID.TID 0000.0001) fPrime =   /* Second coriolis parameter ( 1/s ) */
(PID.TID 0000.0001)                 0.000000000000000E+00
(PID.TID 0000.0001)     ;
(PID.TID 0000.0001) rigidLid =   /* Rigid lid on/off flag */
(PID.TID 0000.0001)                   F
(PID.TID 0000.0001)     ;
(PID.TID 0000.0001) implicitFreeSurface =   /* Implicit free surface on/off flag */
(PID.TID 0000.0001)                   T
(PID.TID 0000.0001)     ;
(PID.TID 0000.0001) freeSurfFac =   /* Implicit free surface factor */
(PID.TID 0000.0001)                 1.000000000000000E+00
(PID.TID 0000.0001)     ;
(PID.TID 0000.0001) implicSurfPress =  /* Surface Pressure implicit factor (0-1)*/
(PID.TID 0000.0001)                 1.000000000000000E+00
(PID.TID 0000.0001)     ;
(PID.TID 0000.0001) implicDiv2DFlow =  /* Barot. Flow Div. implicit factor (0-1)*/
(PID.TID 0000.0001)                 1.000000000000000E+00
(PID.TID 0000.0001)     ;
(PID.TID 0000.0001) uniformLin_PhiSurf = /* use uniform Bo_surf on/off flag*/
(PID.TID 0000.0001)                   T
(PID.TID 0000.0001)     ;
(PID.TID 0000.0001) uniformFreeSurfLev = /* free-surface level-index is uniform */
(PID.TID 0000.0001)                   T
(PID.TID 0000.0001)     ;
(PID.TID 0000.0001) hFacMin =   /* minimum partial cell factor (hFac) */
(PID.TID 0000.0001)                 1.000000000000000E-01
(PID.TID 0000.0001)     ;
(PID.TID 0000.0001) hFacMinDr = /* minimum partial cell thickness ( m) */
(PID.TID 0000.0001)                 2.000000000000000E+01
(PID.TID 0000.0001)     ;
(PID.TID 0000.0001) exactConserv =  /* Exact Volume Conservation on/off flag*/
(PID.TID 0000.0001)                   T
(PID.TID 0000.0001)     ;
(PID.TID 0000.0001) linFSConserveTr = /* Tracer correction for Lin Free Surface on/off flag*/
(PID.TID 0000.0001)                   F
(PID.TID 0000.0001)     ;
(PID.TID 0000.0001) nonlinFreeSurf = /* Non-linear Free Surf. options (-1,0,1,2,3)*/
(PID.TID 0000.0001)                       4
(PID.TID 0000.0001)      -1,0= Off ; 1,2,3= On, 2=+rescale gU,gV, 3=+update cg2d solv.
(PID.TID 0000.0001)     ;
(PID.TID 0000.0001) hFacInf =   /* lower threshold for hFac (nonlinFreeSurf only)*/
(PID.TID 0000.0001)                 2.000000000000000E-01
(PID.TID 0000.0001)     ;
(PID.TID 0000.0001) hFacSup =   /* upper threshold for hFac (nonlinFreeSurf only)*/
(PID.TID 0000.0001)                 2.000000000000000E+00
(PID.TID 0000.0001)     ;
(PID.TID 0000.0001) select_rStar = /* r* Vertical coord. options (=0 r coord.; >0 uses r*)*/
(PID.TID 0000.0001)                       2
(PID.TID 0000.0001)     ;
(PID.TID 0000.0001) useRealFreshWaterFlux = /* Real Fresh Water Flux on/off flag*/
(PID.TID 0000.0001)                   T
(PID.TID 0000.0001)     ;
(PID.TID 0000.0001) temp_EvPrRn = /* Temp. of Evap/Prec/R (UNSET=use local T)(oC)*/
(PID.TID 0000.0001)                 1.234567000000000E+05
(PID.TID 0000.0001)     ;
(PID.TID 0000.0001) salt_EvPrRn = /* Salin. of Evap/Prec/R (UNSET=use local S)(psu)*/
(PID.TID 0000.0001)                 0.000000000000000E+00
(PID.TID 0000.0001)     ;
(PID.TID 0000.0001) selectAddFluid = /* option for mass source/sink of fluid (=0: off) */
(PID.TID 0000.0001)                       0
(PID.TID 0000.0001)     ;
(PID.TID 0000.0001) temp_addMass = /* Temp. of addMass array (UNSET=use local T)(oC)*/
(PID.TID 0000.0001)                 1.234567000000000E+05
(PID.TID 0000.0001)     ;
(PID.TID 0000.0001) salt_addMass = /* Salin. of addMass array (UNSET=use local S)(psu)*/
(PID.TID 0000.0001)                 0.000000000000000E+00
(PID.TID 0000.0001)     ;
(PID.TID 0000.0001) use3Dsolver = /* use 3-D pressure solver on/off flag */
(PID.TID 0000.0001)                   F
(PID.TID 0000.0001)     ;
(PID.TID 0000.0001) nonHydrostatic =  /* Non-Hydrostatic on/off flag */
(PID.TID 0000.0001)                   F
(PID.TID 0000.0001)     ;
(PID.TID 0000.0001) nh_Am2 = /* Non-Hydrostatic terms scaling factor */
(PID.TID 0000.0001)                 1.000000000000000E+00
(PID.TID 0000.0001)     ;
(PID.TID 0000.0001) implicitNHPress = /* Non-Hyd Pressure implicit factor (0-1)*/
(PID.TID 0000.0001)                 1.000000000000000E+00
(PID.TID 0000.0001)     ;
(PID.TID 0000.0001) selectNHfreeSurf = /* Non-Hyd (free-)Surface option */
(PID.TID 0000.0001)                       0
(PID.TID 0000.0001)     ;
(PID.TID 0000.0001) quasiHydrostatic = /* Quasi-Hydrostatic on/off flag */
(PID.TID 0000.0001)                   F
(PID.TID 0000.0001)     ;
(PID.TID 0000.0001) calc_wVelocity = /* vertical velocity calculation on/off flag */
(PID.TID 0000.0001)                   T
(PID.TID 0000.0001)     ;
(PID.TID 0000.0001) momStepping =  /* Momentum equation on/off flag */
(PID.TID 0000.0001)                   T
(PID.TID 0000.0001)     ;
(PID.TID 0000.0001) vectorInvariantMomentum= /* Vector-Invariant Momentum on/off */
(PID.TID 0000.0001)                   T
(PID.TID 0000.0001)     ;
(PID.TID 0000.0001) momAdvection =  /* Momentum advection on/off flag */
(PID.TID 0000.0001)                   T
(PID.TID 0000.0001)     ;
(PID.TID 0000.0001) momViscosity =  /* Momentum viscosity on/off flag */
(PID.TID 0000.0001)                   T
(PID.TID 0000.0001)     ;
(PID.TID 0000.0001) momImplVertAdv= /* Momentum implicit vert. advection on/off*/
(PID.TID 0000.0001)                   F
(PID.TID 0000.0001)     ;
(PID.TID 0000.0001) implicitViscosity = /* Implicit viscosity on/off flag */
(PID.TID 0000.0001)                   F
(PID.TID 0000.0001)     ;
(PID.TID 0000.0001) selectImplicitDrag= /* Implicit bot Drag options (0,1,2)*/
(PID.TID 0000.0001)                       0
(PID.TID 0000.0001)     0= Expl. ; 1= Impl. on provis. Vel ; 2= Fully Impl (with surf.P)
(PID.TID 0000.0001)     ;
(PID.TID 0000.0001) metricTerms =  /* metric-Terms on/off flag */
(PID.TID 0000.0001)                   F
(PID.TID 0000.0001)     ;
(PID.TID 0000.0001) useNHMTerms = /* Non-Hydrostatic Metric-Terms on/off */
(PID.TID 0000.0001)                   F
(PID.TID 0000.0001)     ;
(PID.TID 0000.0001) selectCoriMap = /* Coriolis Map options (0,1,2,3)*/
(PID.TID 0000.0001)                       2
(PID.TID 0000.0001)     0= f-Plane ; 1= Beta-Plane ; 2= Spherical ; 3= read from file
(PID.TID 0000.0001)     ;
(PID.TID 0000.0001) use3dCoriolis = /* 3-D Coriolis on/off flag */
(PID.TID 0000.0001)                   F
(PID.TID 0000.0001)     ;
(PID.TID 0000.0001) useCoriolis =  /* Coriolis on/off flag */
(PID.TID 0000.0001)                   T
(PID.TID 0000.0001)     ;
(PID.TID 0000.0001) useCDscheme =  /* CD scheme on/off flag */
(PID.TID 0000.0001)                   F
(PID.TID 0000.0001)     ;
(PID.TID 0000.0001) useEnergyConservingCoriolis= /* Flx-Form Coriolis scheme flag */
(PID.TID 0000.0001)                   F
(PID.TID 0000.0001)     ;
(PID.TID 0000.0001) useJamartWetPoints= /* Coriolis WetPoints method flag */
(PID.TID 0000.0001)                   F
(PID.TID 0000.0001)     ;
(PID.TID 0000.0001) useJamartMomAdv= /* V.I Non-linear terms Jamart flag */
(PID.TID 0000.0001)                   F
(PID.TID 0000.0001)     ;
(PID.TID 0000.0001) useAbsVorticity= /* V.I Works with f+zeta in Coriolis */
(PID.TID 0000.0001)                   F
(PID.TID 0000.0001)     ;
(PID.TID 0000.0001) selectVortScheme= /* V.I Scheme selector for Vorticity-Term */
(PID.TID 0000.0001)                       1
(PID.TID 0000.0001)    = 0 : enstrophy (Shallow-Water Eq.) conserving scheme by Sadourny, JAS 75
(PID.TID 0000.0001)    = 1 : same as 0 with modified hFac
(PID.TID 0000.0001)    = 2 : energy conserving scheme (used by Sadourny in JAS 75 paper)
(PID.TID 0000.0001)    = 3 : energy (general) and enstrophy (2D, nonDiv.) conserving scheme
(PID.TID 0000.0001)          from Sadourny (Burridge & Haseler, ECMWF Rep.4, 1977)
(PID.TID 0000.0001)     ;
(PID.TID 0000.0001) upwindVorticity= /* V.I Upwind bias vorticity flag */
(PID.TID 0000.0001)                   F
(PID.TID 0000.0001)     ;
(PID.TID 0000.0001) highOrderVorticity= /* V.I High order vort. advect. flag */
(PID.TID 0000.0001)                   F
(PID.TID 0000.0001)     ;
(PID.TID 0000.0001) upwindShear= /* V.I Upwind vertical Shear advection flag */
(PID.TID 0000.0001)                   F
(PID.TID 0000.0001)     ;
(PID.TID 0000.0001) selectKEscheme= /* V.I Kinetic Energy scheme selector */
(PID.TID 0000.0001)                       0
(PID.TID 0000.0001)     ;
(PID.TID 0000.0001) momForcing =  /* Momentum forcing on/off flag */
(PID.TID 0000.0001)                   T
(PID.TID 0000.0001)     ;
(PID.TID 0000.0001) momTidalForcing = /* Momentum Tidal forcing on/off flag */
(PID.TID 0000.0001)                   T
(PID.TID 0000.0001)     ;
(PID.TID 0000.0001) momPressureForcing =  /* Momentum pressure term on/off flag */
(PID.TID 0000.0001)                   T
(PID.TID 0000.0001)     ;
(PID.TID 0000.0001) implicitIntGravWave= /* Implicit Internal Gravity Wave flag */
(PID.TID 0000.0001)                   F
(PID.TID 0000.0001)     ;
(PID.TID 0000.0001) staggerTimeStep =    /* Stagger time stepping on/off flag */
(PID.TID 0000.0001)                   T
(PID.TID 0000.0001)     ;
(PID.TID 0000.0001) doResetHFactors = /* reset thickness factors @ each time-step */
(PID.TID 0000.0001)                   F
(PID.TID 0000.0001)     ;
(PID.TID 0000.0001) multiDimAdvection =  /* enable/disable Multi-Dim Advection */
(PID.TID 0000.0001)                   T
(PID.TID 0000.0001)     ;
(PID.TID 0000.0001) useMultiDimAdvec =   /* Multi-Dim Advection is/is-not used */
(PID.TID 0000.0001)                   F
(PID.TID 0000.0001)     ;
(PID.TID 0000.0001) implicitDiffusion = /* Implicit Diffusion on/off flag */
(PID.TID 0000.0001)                   T
(PID.TID 0000.0001)     ;
(PID.TID 0000.0001) tempStepping =  /* Temperature equation on/off flag */
(PID.TID 0000.0001)                   T
(PID.TID 0000.0001)     ;
(PID.TID 0000.0001) tempAdvection = /* Temperature advection on/off flag */
(PID.TID 0000.0001)                   T
(PID.TID 0000.0001)     ;
(PID.TID 0000.0001) tempImplVertAdv = /* Temp. implicit vert. advection on/off */
(PID.TID 0000.0001)                   F
(PID.TID 0000.0001)     ;
(PID.TID 0000.0001) tempForcing  =  /* Temperature forcing on/off flag */
(PID.TID 0000.0001)                   T
(PID.TID 0000.0001)     ;
(PID.TID 0000.0001) balanceQnet  =  /* balance net heat-flux on/off flag */
(PID.TID 0000.0001)                   F
(PID.TID 0000.0001)     ;
(PID.TID 0000.0001) doThetaClimRelax = /* apply SST relaxation on/off flag */
(PID.TID 0000.0001)                   F
(PID.TID 0000.0001)     ;
(PID.TID 0000.0001) balanceThetaClimRelax= /* balance SST relaxation on/off flag */
(PID.TID 0000.0001)                   F
(PID.TID 0000.0001)     ;
(PID.TID 0000.0001) tempIsActiveTr = /* Temp. is a dynamically Active Tracer */
(PID.TID 0000.0001)                   T
(PID.TID 0000.0001)     ;
(PID.TID 0000.0001) saltStepping =  /* Salinity equation on/off flag */
(PID.TID 0000.0001)                   T
(PID.TID 0000.0001)     ;
(PID.TID 0000.0001) saltAdvection = /* Salinity advection on/off flag */
(PID.TID 0000.0001)                   T
(PID.TID 0000.0001)     ;
(PID.TID 0000.0001) saltImplVertAdv = /* Sali. implicit vert. advection on/off */
(PID.TID 0000.0001)                   F
(PID.TID 0000.0001)     ;
(PID.TID 0000.0001) saltForcing  =  /* Salinity forcing on/off flag */
(PID.TID 0000.0001)                   T
(PID.TID 0000.0001)     ;
(PID.TID 0000.0001) balanceEmPmR =  /* balance net fresh-water flux on/off flag */
(PID.TID 0000.0001)                   F
(PID.TID 0000.0001)     ;
(PID.TID 0000.0001) doSaltClimRelax = /* apply SSS relaxation on/off flag */
(PID.TID 0000.0001)                   F
(PID.TID 0000.0001)     ;
(PID.TID 0000.0001) balanceSaltClimRelax= /* balance SSS relaxation on/off flag */
(PID.TID 0000.0001)                   F
(PID.TID 0000.0001)     ;
(PID.TID 0000.0001) saltIsActiveTr = /* Salt  is a dynamically Active Tracer */
(PID.TID 0000.0001)                   T
(PID.TID 0000.0001)     ;
(PID.TID 0000.0001)  readBinaryPrec = /* Precision used for reading binary files */
(PID.TID 0000.0001)                      64
(PID.TID 0000.0001)     ;
(PID.TID 0000.0001) writeBinaryPrec = /* Precision used for writing binary files */
(PID.TID 0000.0001)                      32
(PID.TID 0000.0001)     ;
(PID.TID 0000.0001)  rwSuffixType =   /* select format of mds file suffix */
(PID.TID 0000.0001)                       0
(PID.TID 0000.0001)    = 0 : myIter (I10.10) ;   = 1 : 100*myTime (100th sec) ;
(PID.TID 0000.0001)    = 2 : myTime (seconds);   = 3 : myTime/360 (10th of hr);
(PID.TID 0000.0001)    = 4 : myTime/3600 (hours)
(PID.TID 0000.0001)     ;
(PID.TID 0000.0001)  globalFiles = /* write "global" (=not per tile) files */
(PID.TID 0000.0001)                   F
(PID.TID 0000.0001)     ;
(PID.TID 0000.0001)  useSingleCpuIO = /* only master MPI process does I/O */
(PID.TID 0000.0001)                   T
(PID.TID 0000.0001)     ;
(PID.TID 0000.0001)  useSingleCpuInput = /* only master process reads input */
(PID.TID 0000.0001)                   T
(PID.TID 0000.0001)     ;
(PID.TID 0000.0001) /* debLev[*]  : level of debug & auxiliary message printing */
(PID.TID 0000.0001) debLevZero =  0 ; /* level of disabled aux. msg printing */
(PID.TID 0000.0001)    debLevA =  1 ; /* level of minimum  aux. msg printing */
(PID.TID 0000.0001)    debLevB =  2 ; /* level of low aux. print (report read-file opening)*/
(PID.TID 0000.0001)    debLevC =  3 ; /* level of moderate debug prt (most pkgs debug msg) */
(PID.TID 0000.0001)    debLevD =  4 ; /* level of enhanced debug prt (add DEBUG_STATS prt) */
(PID.TID 0000.0001)    debLevE =  5 ; /* level of extensive debug printing */
(PID.TID 0000.0001) debugLevel =  /* select debug printing level */
(PID.TID 0000.0001)                       2
(PID.TID 0000.0001)     ;
(PID.TID 0000.0001)  plotLevel =  /* select PLOT_FIELD printing level */
(PID.TID 0000.0001)                       2
(PID.TID 0000.0001)     ;
(PID.TID 0000.0001) //
(PID.TID 0000.0001) // Elliptic solver(s) paramters ( PARM02 in namelist )
(PID.TID 0000.0001) //
(PID.TID 0000.0001) cg2dMaxIters =   /* Upper limit on 2d con. grad iterations  */
(PID.TID 0000.0001)                     150
(PID.TID 0000.0001)     ;
(PID.TID 0000.0001) cg2dChkResFreq =   /* 2d con. grad convergence test frequency */
(PID.TID 0000.0001)                       1
(PID.TID 0000.0001)     ;
(PID.TID 0000.0001) cg2dUseMinResSol= /* use cg2d last-iter(=0) / min-resid.(=1) solution */
(PID.TID 0000.0001)                       0
(PID.TID 0000.0001)     ;
(PID.TID 0000.0001) cg2dTargetResidual =   /* 2d con. grad target residual  */
(PID.TID 0000.0001)                 1.000000000000000E-07
(PID.TID 0000.0001)     ;
(PID.TID 0000.0001) cg2dTargetResWunit =   /* CG2d target residual [W units] */
(PID.TID 0000.0001)                -1.000000000000000E+00
(PID.TID 0000.0001)     ;
(PID.TID 0000.0001) cg2dPreCondFreq =   /* Freq. for updating cg2d preconditioner */
(PID.TID 0000.0001)                       1
(PID.TID 0000.0001)     ;
(PID.TID 0000.0001) useSRCGSolver =  /* use single reduction CG solver(s) */
(PID.TID 0000.0001)                   F
(PID.TID 0000.0001)     ;
(PID.TID 0000.0001) printResidualFreq = /* Freq. for printing CG residual */
(PID.TID 0000.0001)                       0
(PID.TID 0000.0001)     ;
(PID.TID 0000.0001) //
(PID.TID 0000.0001) // Time stepping paramters ( PARM03 in namelist )
(PID.TID 0000.0001) //
(PID.TID 0000.0001) deltaTMom =   /* Momentum equation timestep ( s ) */
(PID.TID 0000.0001)                 9.000000000000000E+02
(PID.TID 0000.0001)     ;
(PID.TID 0000.0001) deltaTFreeSurf = /* FreeSurface equation timestep ( s ) */
(PID.TID 0000.0001)                 9.000000000000000E+02
(PID.TID 0000.0001)     ;
(PID.TID 0000.0001) dTtracerLev =  /* Tracer equation timestep ( s ) */
(PID.TID 0000.0001)    15 @  9.000000000000000E+02              /* K =  1: 15 */
(PID.TID 0000.0001)     ;
(PID.TID 0000.0001) deltaTClock  =   /* Model clock timestep ( s ) */
(PID.TID 0000.0001)                 9.000000000000000E+02
(PID.TID 0000.0001)     ;
(PID.TID 0000.0001) cAdjFreq =   /* Convective adjustment interval ( s ) */
(PID.TID 0000.0001)                 0.000000000000000E+00
(PID.TID 0000.0001)     ;
(PID.TID 0000.0001) momForcingOutAB = /* =1: take Momentum Forcing out of Adams-Bash. stepping */
(PID.TID 0000.0001)                       0
(PID.TID 0000.0001)     ;
(PID.TID 0000.0001) tracForcingOutAB = /* =1: take T,S,pTr Forcing out of Adams-Bash. stepping */
(PID.TID 0000.0001)                       1
(PID.TID 0000.0001)     ;
(PID.TID 0000.0001) momDissip_In_AB = /* put Dissipation Tendency in Adams-Bash. stepping */
(PID.TID 0000.0001)                   T
(PID.TID 0000.0001)     ;
(PID.TID 0000.0001) doAB_onGtGs = /* apply AB on Tendencies (rather than on T,S)*/
(PID.TID 0000.0001)                   T
(PID.TID 0000.0001)     ;
(PID.TID 0000.0001) abEps =   /* Adams-Bashforth-2 stabilizing weight */
(PID.TID 0000.0001)                 1.000000000000000E-01
(PID.TID 0000.0001)     ;
(PID.TID 0000.0001) applyExchUV_early = /* Apply EXCH to U,V earlier in time-step */
(PID.TID 0000.0001)                   F
(PID.TID 0000.0001)     ;
(PID.TID 0000.0001) pickupStrictlyMatch= /* stop if pickup do not strictly match */
(PID.TID 0000.0001)                   T
(PID.TID 0000.0001)     ;
(PID.TID 0000.0001) nIter0   =   /* Run starting timestep number */
(PID.TID 0000.0001)                   72000
(PID.TID 0000.0001)     ;
(PID.TID 0000.0001) nTimeSteps = /* Number of timesteps */
(PID.TID 0000.0001)                      96
(PID.TID 0000.0001)     ;
(PID.TID 0000.0001) nEndIter =   /* Run ending timestep number */
(PID.TID 0000.0001)                   72096
(PID.TID 0000.0001)     ;
(PID.TID 0000.0001) baseTime =   /* Model base time ( s ) */
(PID.TID 0000.0001)                 0.000000000000000E+00
(PID.TID 0000.0001)     ;
(PID.TID 0000.0001) startTime =  /* Run start time ( s ) */
(PID.TID 0000.0001)                 6.480000000000000E+07
(PID.TID 0000.0001)     ;
(PID.TID 0000.0001) endTime  =   /* Integration ending time ( s ) */
(PID.TID 0000.0001)                 6.488640000000000E+07
(PID.TID 0000.0001)     ;
(PID.TID 0000.0001) pChkPtFreq = /* Permanent restart/pickup file interval ( s ) */
(PID.TID 0000.0001)                 0.000000000000000E+00
(PID.TID 0000.0001)     ;
(PID.TID 0000.0001) chkPtFreq  = /* Rolling restart/pickup file interval ( s ) */
(PID.TID 0000.0001)                 0.000000000000000E+00
(PID.TID 0000.0001)     ;
(PID.TID 0000.0001) pickup_write_mdsio =   /* Model IO flag. */
(PID.TID 0000.0001)                   T
(PID.TID 0000.0001)     ;
(PID.TID 0000.0001) pickup_read_mdsio =   /* Model IO flag. */
(PID.TID 0000.0001)                   T
(PID.TID 0000.0001)     ;
(PID.TID 0000.0001) writePickupAtEnd =   /* Model IO flag. */
(PID.TID 0000.0001)                   T
(PID.TID 0000.0001)     ;
(PID.TID 0000.0001) dumpFreq =   /* Model state write out interval ( s ). */
(PID.TID 0000.0001)                 0.000000000000000E+00
(PID.TID 0000.0001)     ;
(PID.TID 0000.0001) dumpInitAndLast= /* write out Initial & Last iter. model state */
(PID.TID 0000.0001)                   T
(PID.TID 0000.0001)     ;
(PID.TID 0000.0001) snapshot_mdsio =   /* Model IO flag. */
(PID.TID 0000.0001)                   T
(PID.TID 0000.0001)     ;
(PID.TID 0000.0001) monitorFreq =   /* Monitor output interval ( s ). */
(PID.TID 0000.0001)                 1.000000000000000E+00
(PID.TID 0000.0001)     ;
(PID.TID 0000.0001) monitorSelect = /* select group of variables to monitor */
(PID.TID 0000.0001)                       3
(PID.TID 0000.0001)     ;
(PID.TID 0000.0001) monitor_stdio =   /* Model IO flag. */
(PID.TID 0000.0001)                   T
(PID.TID 0000.0001)     ;
(PID.TID 0000.0001) externForcingPeriod =   /* forcing period (s) */
(PID.TID 0000.0001)                 0.000000000000000E+00
(PID.TID 0000.0001)     ;
(PID.TID 0000.0001) externForcingCycle =   /* period of the cyle (s). */
(PID.TID 0000.0001)                 0.000000000000000E+00
(PID.TID 0000.0001)     ;
(PID.TID 0000.0001) tauThetaClimRelax =   /* relaxation time scale (s) */
(PID.TID 0000.0001)                 0.000000000000000E+00
(PID.TID 0000.0001)     ;
(PID.TID 0000.0001) tauSaltClimRelax =   /* relaxation time scale (s) */
(PID.TID 0000.0001)                 0.000000000000000E+00
(PID.TID 0000.0001)     ;
(PID.TID 0000.0001) latBandClimRelax =   /* max. Lat. where relaxation */
(PID.TID 0000.0001)                 1.800000000000000E+02
(PID.TID 0000.0001)     ;
(PID.TID 0000.0001) //
(PID.TID 0000.0001) // Gridding paramters ( PARM04 in namelist )
(PID.TID 0000.0001) //
(PID.TID 0000.0001) usingCartesianGrid = /* Cartesian coordinates flag ( True/False ) */
(PID.TID 0000.0001)                   F
(PID.TID 0000.0001)     ;
(PID.TID 0000.0001) usingCylindricalGrid = /* Cylindrical coordinates flag ( True/False ) */
(PID.TID 0000.0001)                   F
(PID.TID 0000.0001)     ;
(PID.TID 0000.0001) usingSphericalPolarGrid = /* Spherical coordinates flag ( True/False ) */
(PID.TID 0000.0001)                   F
(PID.TID 0000.0001)     ;
(PID.TID 0000.0001) usingCurvilinearGrid = /* Curvilinear coordinates flag ( True/False ) */
(PID.TID 0000.0001)                   T
(PID.TID 0000.0001)     ;
(PID.TID 0000.0001) useMin4hFacEdges = /* set hFacW,S as minimum of adjacent hFacC factor */
(PID.TID 0000.0001)                   F
(PID.TID 0000.0001)     ;
(PID.TID 0000.0001) interViscAr_pCell = /* account for partial-cell in interior vert. viscosity */
(PID.TID 0000.0001)                   F
(PID.TID 0000.0001)     ;
(PID.TID 0000.0001) interDiffKr_pCell = /* account for partial-cell in interior vert. diffusion */
(PID.TID 0000.0001)                   F
(PID.TID 0000.0001)     ;
(PID.TID 0000.0001) pCellMix_select = /* option to enhance mixing near surface & bottom */
(PID.TID 0000.0001)                       0
(PID.TID 0000.0001)     ;
(PID.TID 0000.0001) selectSigmaCoord = /* Hybrid-Sigma Vert. Coordinate option */
(PID.TID 0000.0001)                       0
(PID.TID 0000.0001)     ;
(PID.TID 0000.0001) rSigmaBnd = /* r/sigma transition ( units of r ==  m ) */
(PID.TID 0000.0001)                 1.234567000000000E+05
(PID.TID 0000.0001)     ;
(PID.TID 0000.0001) rkSign =   /* index orientation relative to vertical coordinate */
(PID.TID 0000.0001)                -1.000000000000000E+00
(PID.TID 0000.0001)     ;
(PID.TID 0000.0001) gravitySign = /* gravity orientation relative to vertical coordinate */
(PID.TID 0000.0001)                -1.000000000000000E+00
(PID.TID 0000.0001)     ;
(PID.TID 0000.0001) seaLev_Z =  /* reference height of sea-level [m] */
(PID.TID 0000.0001)                 0.000000000000000E+00
(PID.TID 0000.0001)     ;
(PID.TID 0000.0001) top_Pres =  /* reference pressure at the top [Pa] */
(PID.TID 0000.0001)                 0.000000000000000E+00
(PID.TID 0000.0001)     ;
(PID.TID 0000.0001) mass2rUnit = /* convert mass per unit area [kg/m2] to r-units [m] */
(PID.TID 0000.0001)                 9.661835748792270E-04
(PID.TID 0000.0001)     ;
(PID.TID 0000.0001) rUnit2mass = /* convert r-units [m] to mass per unit area [kg/m2] */
(PID.TID 0000.0001)                 1.035000000000000E+03
(PID.TID 0000.0001)     ;
(PID.TID 0000.0001) drC =   /* C spacing ( units of r ) */
(PID.TID 0000.0001)                 2.500000000000000E+01,      /* K =  1 */
(PID.TID 0000.0001)                 6.000000000000000E+01,      /* K =  2 */
(PID.TID 0000.0001)                 8.500000000000000E+01,      /* K =  3 */
(PID.TID 0000.0001)                 1.200000000000000E+02,      /* K =  4 */
(PID.TID 0000.0001)                 1.650000000000000E+02,      /* K =  5 */
(PID.TID 0000.0001)                 2.150000000000000E+02,      /* K =  6 */
(PID.TID 0000.0001)                 2.650000000000000E+02,      /* K =  7 */
(PID.TID 0000.0001)                 3.150000000000000E+02,      /* K =  8 */
(PID.TID 0000.0001)                 3.650000000000000E+02,      /* K =  9 */
(PID.TID 0000.0001)                 4.150000000000000E+02,      /* K = 10 */
(PID.TID 0000.0001)                 4.650000000000000E+02,      /* K = 11 */
(PID.TID 0000.0001)                 5.150000000000000E+02,      /* K = 12 */
(PID.TID 0000.0001)                 5.650000000000000E+02,      /* K = 13 */
(PID.TID 0000.0001)                 6.150000000000000E+02,      /* K = 14 */
(PID.TID 0000.0001)                 6.650000000000000E+02,      /* K = 15 */
(PID.TID 0000.0001)                 3.450000000000000E+02       /* K = 16 */
(PID.TID 0000.0001)     ;
(PID.TID 0000.0001) drF =   /* W spacing ( units of r ) */
(PID.TID 0000.0001)                 5.000000000000000E+01,      /* K =  1 */
(PID.TID 0000.0001)                 7.000000000000000E+01,      /* K =  2 */
(PID.TID 0000.0001)                 1.000000000000000E+02,      /* K =  3 */
(PID.TID 0000.0001)                 1.400000000000000E+02,      /* K =  4 */
(PID.TID 0000.0001)                 1.900000000000000E+02,      /* K =  5 */
(PID.TID 0000.0001)                 2.400000000000000E+02,      /* K =  6 */
(PID.TID 0000.0001)                 2.900000000000000E+02,      /* K =  7 */
(PID.TID 0000.0001)                 3.400000000000000E+02,      /* K =  8 */
(PID.TID 0000.0001)                 3.900000000000000E+02,      /* K =  9 */
(PID.TID 0000.0001)                 4.400000000000000E+02,      /* K = 10 */
(PID.TID 0000.0001)                 4.900000000000000E+02,      /* K = 11 */
(PID.TID 0000.0001)                 5.400000000000000E+02,      /* K = 12 */
(PID.TID 0000.0001)                 5.900000000000000E+02,      /* K = 13 */
(PID.TID 0000.0001)                 6.400000000000000E+02,      /* K = 14 */
(PID.TID 0000.0001)                 6.900000000000000E+02       /* K = 15 */
(PID.TID 0000.0001)     ;
(PID.TID 0000.0001) radius_fromHorizGrid = /* sphere Radius of input horiz. grid */
(PID.TID 0000.0001)                 6.370000000000000E+06
(PID.TID 0000.0001)     ;
(PID.TID 0000.0001) rSphere =  /* Radius ( ignored - cartesian, m - spherical ) */
(PID.TID 0000.0001)                 6.370000000000000E+06
(PID.TID 0000.0001)     ;
(PID.TID 0000.0001) deepAtmosphere = /* Deep/Shallow Atmosphere flag (True/False) */
(PID.TID 0000.0001)                   F
(PID.TID 0000.0001)     ;
(PID.TID 0000.0001) xC =  /* xC(:,1,:,1) : P-point X coord ( deg. or m if cartesian) */
(PID.TID 0000.0001)                -4.439521994760536E+01,      /* I =  1 */
(PID.TID 0000.0001)                -4.295641272275883E+01,      /* I =  2 */
(PID.TID 0000.0001)                -4.122055553388957E+01,      /* I =  3 */
(PID.TID 0000.0001)                -3.923446288487304E+01,      /* I =  4 */
(PID.TID 0000.0001)                -3.702585158682200E+01,      /* I =  5 */
(PID.TID 0000.0001)                -3.461179367094151E+01,      /* I =  6 */
(PID.TID 0000.0001)                -3.200434569041793E+01,      /* I =  7 */
(PID.TID 0000.0001)                -2.921355965632675E+01,      /* I =  8 */
(PID.TID 0000.0001)                -2.624932223028290E+01,      /* I =  9 */
(PID.TID 0000.0001)                -2.312261250426344E+01,      /* I = 10 */
(PID.TID 0000.0001)                -1.984640717127058E+01,      /* I = 11 */
(PID.TID 0000.0001)                -1.643630800555134E+01,      /* I = 12 */
(PID.TID 0000.0001)                -1.291089806302069E+01,      /* I = 13 */
(PID.TID 0000.0001)                -9.291807802719402E+00,      /* I = 14 */
(PID.TID 0000.0001)                -5.603475335822332E+00,      /* I = 15 */
(PID.TID 0000.0001)                -1.872608513033445E+00,      /* I = 16 */
(PID.TID 0000.0001)                 1.872608513033445E+00,      /* I = 17 */
(PID.TID 0000.0001)                 5.603475335822332E+00,      /* I = 18 */
(PID.TID 0000.0001)                 9.291807802719402E+00,      /* I = 19 */
(PID.TID 0000.0001)                 1.291089806302069E+01,      /* I = 20 */
(PID.TID 0000.0001)                 1.643630800555134E+01,      /* I = 21 */
(PID.TID 0000.0001)                 1.984640717127058E+01,      /* I = 22 */
(PID.TID 0000.0001)                 2.312261250426344E+01,      /* I = 23 */
(PID.TID 0000.0001)                 2.624932223028290E+01,      /* I = 24 */
(PID.TID 0000.0001)                 2.921355965632675E+01,      /* I = 25 */
(PID.TID 0000.0001)                 3.200434569041793E+01,      /* I = 26 */
(PID.TID 0000.0001)                 3.461179367094151E+01,      /* I = 27 */
(PID.TID 0000.0001)                 3.702585158682200E+01,      /* I = 28 */
(PID.TID 0000.0001)                 3.923446288487304E+01,      /* I = 29 */
(PID.TID 0000.0001)                 4.122055553388957E+01,      /* I = 30 */
(PID.TID 0000.0001)                 4.295641272275883E+01,      /* I = 31 */
(PID.TID 0000.0001)                 4.439521994760536E+01       /* I = 32 */
(PID.TID 0000.0001)     ;
(PID.TID 0000.0001) yC =  /* yC(1,:,1,:) : P-point Y coord ( deg. or m if cartesian) */
(PID.TID 0000.0001)                -3.497677942598243E+01,      /* J =  1 */
(PID.TID 0000.0001)                -3.374005967394886E+01,      /* J =  2 */
(PID.TID 0000.0001)                -3.220655175667454E+01,      /* J =  3 */
(PID.TID 0000.0001)                -3.045756348838641E+01,      /* J =  4 */
(PID.TID 0000.0001)                -2.853728129852918E+01,      /* J =  5 */
(PID.TID 0000.0001)                -2.647426640173173E+01,      /* J =  6 */
(PID.TID 0000.0001)                -2.428936657094636E+01,      /* J =  7 */
(PID.TID 0000.0001)                -2.199915808312262E+01,      /* J =  8 */
(PID.TID 0000.0001)                -1.961768597440146E+01,      /* J =  9 */
(PID.TID 0000.0001)                -1.715743888281371E+01,      /* J = 10 */
(PID.TID 0000.0001)                -1.462993396899330E+01,      /* J = 11 */
(PID.TID 0000.0001)                -1.204608340464756E+01,      /* J = 12 */
(PID.TID 0000.0001)                -9.416429130284818E+00,      /* J = 13 */
(PID.TID 0000.0001)                -6.751293662992216E+00,      /* J = 14 */
(PID.TID 0000.0001)                -4.060875511835959E+00,      /* J = 15 */
(PID.TID 0000.0001)                -1.355307764409121E+00,      /* J = 16 */
(PID.TID 0000.0001)                 1.355307764409121E+00,      /* J = 17 */
(PID.TID 0000.0001)                 4.060875511835959E+00,      /* J = 18 */
(PID.TID 0000.0001)                 6.751293662992216E+00,      /* J = 19 */
(PID.TID 0000.0001)                 9.416429130284818E+00,      /* J = 20 */
(PID.TID 0000.0001)                 1.204608340464756E+01,      /* J = 21 */
(PID.TID 0000.0001)                 1.462993396899330E+01,      /* J = 22 */
(PID.TID 0000.0001)                 1.715743888281371E+01,      /* J = 23 */
(PID.TID 0000.0001)                 1.961768597440146E+01,      /* J = 24 */
(PID.TID 0000.0001)                 2.199915808312262E+01,      /* J = 25 */
(PID.TID 0000.0001)                 2.428936657094636E+01,      /* J = 26 */
(PID.TID 0000.0001)                 2.647426640173173E+01,      /* J = 27 */
(PID.TID 0000.0001)                 2.853728129852918E+01,      /* J = 28 */
(PID.TID 0000.0001)                 3.045756348838641E+01,      /* J = 29 */
(PID.TID 0000.0001)                 3.220655175667454E+01,      /* J = 30 */
(PID.TID 0000.0001)                 3.374005967394886E+01,      /* J = 31 */
(PID.TID 0000.0001)                 3.497677942598243E+01       /* J = 32 */
(PID.TID 0000.0001)     ;
(PID.TID 0000.0001) rcoord = /* P-point R coordinate (  units of r ) */
(PID.TID 0000.0001)                -2.500000000000000E+01,      /* K =  1 */
(PID.TID 0000.0001)                -8.500000000000000E+01,      /* K =  2 */
(PID.TID 0000.0001)                -1.700000000000000E+02,      /* K =  3 */
(PID.TID 0000.0001)                -2.900000000000000E+02,      /* K =  4 */
(PID.TID 0000.0001)                -4.550000000000000E+02,      /* K =  5 */
(PID.TID 0000.0001)                -6.700000000000000E+02,      /* K =  6 */
(PID.TID 0000.0001)                -9.350000000000000E+02,      /* K =  7 */
(PID.TID 0000.0001)                -1.250000000000000E+03,      /* K =  8 */
(PID.TID 0000.0001)                -1.615000000000000E+03,      /* K =  9 */
(PID.TID 0000.0001)                -2.030000000000000E+03,      /* K = 10 */
(PID.TID 0000.0001)                -2.495000000000000E+03,      /* K = 11 */
(PID.TID 0000.0001)                -3.010000000000000E+03,      /* K = 12 */
(PID.TID 0000.0001)                -3.575000000000000E+03,      /* K = 13 */
(PID.TID 0000.0001)                -4.190000000000000E+03,      /* K = 14 */
(PID.TID 0000.0001)                -4.855000000000000E+03       /* K = 15 */
(PID.TID 0000.0001)     ;
(PID.TID 0000.0001) rF =   /* W-Interf. R coordinate (  units of r ) */
(PID.TID 0000.0001)                 0.000000000000000E+00,      /* K =  1 */
(PID.TID 0000.0001)                -5.000000000000000E+01,      /* K =  2 */
(PID.TID 0000.0001)                -1.200000000000000E+02,      /* K =  3 */
(PID.TID 0000.0001)                -2.200000000000000E+02,      /* K =  4 */
(PID.TID 0000.0001)                -3.600000000000000E+02,      /* K =  5 */
(PID.TID 0000.0001)                -5.500000000000000E+02,      /* K =  6 */
(PID.TID 0000.0001)                -7.900000000000000E+02,      /* K =  7 */
(PID.TID 0000.0001)                -1.080000000000000E+03,      /* K =  8 */
(PID.TID 0000.0001)                -1.420000000000000E+03,      /* K =  9 */
(PID.TID 0000.0001)                -1.810000000000000E+03,      /* K = 10 */
(PID.TID 0000.0001)                -2.250000000000000E+03,      /* K = 11 */
(PID.TID 0000.0001)                -2.740000000000000E+03,      /* K = 12 */
(PID.TID 0000.0001)                -3.280000000000000E+03,      /* K = 13 */
(PID.TID 0000.0001)                -3.870000000000000E+03,      /* K = 14 */
(PID.TID 0000.0001)                -4.510000000000000E+03,      /* K = 15 */
(PID.TID 0000.0001)                -5.200000000000000E+03       /* K = 16 */
(PID.TID 0000.0001)     ;
(PID.TID 0000.0001) deepFacC = /* deep-model grid factor @ cell-Center (-) */
(PID.TID 0000.0001)    15 @  1.000000000000000E+00              /* K =  1: 15 */
(PID.TID 0000.0001)     ;
(PID.TID 0000.0001) deepFacF = /* deep-model grid factor @ W-Interface (-) */
(PID.TID 0000.0001)    16 @  1.000000000000000E+00              /* K =  1: 16 */
(PID.TID 0000.0001)     ;
(PID.TID 0000.0001) rVel2wUnit = /* convert units: rVel -> wSpeed (=1 if z-coord)*/
(PID.TID 0000.0001)    16 @  1.000000000000000E+00              /* K =  1: 16 */
(PID.TID 0000.0001)     ;
(PID.TID 0000.0001) wUnit2rVel = /* convert units: wSpeed -> rVel (=1 if z-coord)*/
(PID.TID 0000.0001)    16 @  1.000000000000000E+00              /* K =  1: 16 */
(PID.TID 0000.0001)     ;
(PID.TID 0000.0001) dBdrRef = /* Vertical grad. of reference buoyancy [(m/s/r)^2] */
(PID.TID 0000.0001)    15 @  0.000000000000000E+00              /* K =  1: 15 */
(PID.TID 0000.0001)     ;
(PID.TID 0000.0001) rotateGrid = /* use rotated grid ( True/False ) */
(PID.TID 0000.0001)                   F
(PID.TID 0000.0001)     ;
(PID.TID 0000.0001) phiEuler = /* Euler angle, rotation about original z-coordinate [rad] */
(PID.TID 0000.0001)                 0.000000000000000E+00
(PID.TID 0000.0001)     ;
(PID.TID 0000.0001) thetaEuler = /* Euler angle, rotation about new x-coordinate [rad] */
(PID.TID 0000.0001)                 0.000000000000000E+00
(PID.TID 0000.0001)     ;
(PID.TID 0000.0001) psiEuler = /* Euler angle, rotation about new z-coordinate [rad] */
(PID.TID 0000.0001)                 0.000000000000000E+00
(PID.TID 0000.0001)     ;
(PID.TID 0000.0001) dxF =  /* dxF(:,1,:,1) ( units: m ) */
(PID.TID 0000.0001)                 1.202082051331828E+05,      /* I =  1 */
(PID.TID 0000.0001)                 1.563594089971120E+05,      /* I =  2 */
(PID.TID 0000.0001)                 1.835530058121492E+05,      /* I =  3 */
(PID.TID 0000.0001)                 2.045883481718707E+05,      /* I =  4 */
(PID.TID 0000.0001)                 2.218350349844185E+05,      /* I =  5 */
(PID.TID 0000.0001)                 2.364352994647058E+05,      /* I =  6 */
(PID.TID 0000.0001)                 2.490022710862746E+05,      /* I =  7 */
(PID.TID 0000.0001)                 2.598919724358304E+05,      /* I =  8 */
(PID.TID 0000.0001)                 2.693210245495156E+05,      /* I =  9 */
(PID.TID 0000.0001)                 2.774243179696503E+05,      /* I = 10 */
(PID.TID 0000.0001)                 2.842862532064524E+05,      /* I = 11 */
(PID.TID 0000.0001)                 2.899590699694043E+05,      /* I = 12 */
(PID.TID 0000.0001)                 2.944742915095688E+05,      /* I = 13 */
(PID.TID 0000.0001)                 2.978501920522794E+05,      /* I = 14 */
(PID.TID 0000.0001)                 3.000967749619962E+05,      /* I = 15 */
(PID.TID 0000.0001)     2 @  3.012190981969055E+05,             /* I = 16: 17 */
(PID.TID 0000.0001)                 3.000967749619962E+05,      /* I = 18 */
(PID.TID 0000.0001)                 2.978501920522794E+05,      /* I = 19 */
(PID.TID 0000.0001)                 2.944742915095688E+05,      /* I = 20 */
(PID.TID 0000.0001)                 2.899590699694043E+05,      /* I = 21 */
(PID.TID 0000.0001)                 2.842862532064524E+05,      /* I = 22 */
(PID.TID 0000.0001)                 2.774243179696503E+05,      /* I = 23 */
(PID.TID 0000.0001)                 2.693210245495156E+05,      /* I = 24 */
(PID.TID 0000.0001)                 2.598919724358304E+05,      /* I = 25 */
(PID.TID 0000.0001)                 2.490022710862746E+05,      /* I = 26 */
(PID.TID 0000.0001)                 2.364352994647058E+05,      /* I = 27 */
(PID.TID 0000.0001)                 2.218350349844185E+05,      /* I = 28 */
(PID.TID 0000.0001)                 2.045883481718707E+05,      /* I = 29 */
(PID.TID 0000.0001)                 1.835530058121492E+05,      /* I = 30 */
(PID.TID 0000.0001)                 1.563594089971120E+05,      /* I = 31 */
(PID.TID 0000.0001)                 1.202082051331828E+05       /* I = 32 */
(PID.TID 0000.0001)     ;
(PID.TID 0000.0001) dxF =  /* dxF(1,:,1,:) ( units: m ) */
(PID.TID 0000.0001)                 1.202082051331828E+05,      /* J =  1 */
(PID.TID 0000.0001)                 1.572908084538706E+05,      /* J =  2 */
(PID.TID 0000.0001)                 1.840412227747703E+05,      /* J =  3 */
(PID.TID 0000.0001)                 2.048868197919576E+05,      /* J =  4 */
(PID.TID 0000.0001)                 2.220405216043041E+05,      /* J =  5 */
(PID.TID 0000.0001)                 2.365892017348392E+05,      /* J =  6 */
(PID.TID 0000.0001)                 2.491250781852558E+05,      /* J =  7 */
(PID.TID 0000.0001)                 2.599949918261881E+05,      /* J =  8 */
(PID.TID 0000.0001)                 2.694110134598581E+05,      /* J =  9 */
(PID.TID 0000.0001)                 2.775055554645015E+05,      /* J = 10 */
(PID.TID 0000.0001)                 2.843615645344775E+05,      /* J = 11 */
(PID.TID 0000.0001)                 2.900303768613599E+05,      /* J = 12 */
(PID.TID 0000.0001)                 2.945429307892709E+05,      /* J = 13 */
(PID.TID 0000.0001)                 2.979171143158405E+05,      /* J = 14 */
(PID.TID 0000.0001)                 3.001626787528886E+05,      /* J = 15 */
(PID.TID 0000.0001)     2 @  3.012844832048790E+05,             /* J = 16: 17 */
(PID.TID 0000.0001)                 3.001626787528886E+05,      /* J = 18 */
(PID.TID 0000.0001)                 2.979171143158405E+05,      /* J = 19 */
(PID.TID 0000.0001)                 2.945429307892709E+05,      /* J = 20 */
(PID.TID 0000.0001)                 2.900303768613599E+05,      /* J = 21 */
(PID.TID 0000.0001)                 2.843615645344775E+05,      /* J = 22 */
(PID.TID 0000.0001)                 2.775055554645015E+05,      /* J = 23 */
(PID.TID 0000.0001)                 2.694110134598581E+05,      /* J = 24 */
(PID.TID 0000.0001)                 2.599949918261881E+05,      /* J = 25 */
(PID.TID 0000.0001)                 2.491250781852558E+05,      /* J = 26 */
(PID.TID 0000.0001)                 2.365892017348392E+05,      /* J = 27 */
(PID.TID 0000.0001)                 2.220405216043041E+05,      /* J = 28 */
(PID.TID 0000.0001)                 2.048868197919576E+05,      /* J = 29 */
(PID.TID 0000.0001)                 1.840412227747703E+05,      /* J = 30 */
(PID.TID 0000.0001)                 1.572908084538706E+05,      /* J = 31 */
(PID.TID 0000.0001)                 1.202082051331828E+05       /* J = 32 */
(PID.TID 0000.0001)     ;
(PID.TID 0000.0001) dyF =  /* dyF(:,1,:,1) ( units: m ) */
(PID.TID 0000.0001)                 1.202082051331828E+05,      /* I =  1 */
(PID.TID 0000.0001)                 1.572908084538706E+05,      /* I =  2 */
(PID.TID 0000.0001)                 1.840412227747703E+05,      /* I =  3 */
(PID.TID 0000.0001)                 2.048868197919576E+05,      /* I =  4 */
(PID.TID 0000.0001)                 2.220405216043041E+05,      /* I =  5 */
(PID.TID 0000.0001)                 2.365892017348392E+05,      /* I =  6 */
(PID.TID 0000.0001)                 2.491250781852558E+05,      /* I =  7 */
(PID.TID 0000.0001)                 2.599949918261881E+05,      /* I =  8 */
(PID.TID 0000.0001)                 2.694110134598581E+05,      /* I =  9 */
(PID.TID 0000.0001)                 2.775055554645015E+05,      /* I = 10 */
(PID.TID 0000.0001)                 2.843615645344775E+05,      /* I = 11 */
(PID.TID 0000.0001)                 2.900303768613599E+05,      /* I = 12 */
(PID.TID 0000.0001)                 2.945429307892709E+05,      /* I = 13 */
(PID.TID 0000.0001)                 2.979171143158405E+05,      /* I = 14 */
(PID.TID 0000.0001)                 3.001626787528886E+05,      /* I = 15 */
(PID.TID 0000.0001)     2 @  3.012844832048790E+05,             /* I = 16: 17 */
(PID.TID 0000.0001)                 3.001626787528886E+05,      /* I = 18 */
(PID.TID 0000.0001)                 2.979171143158405E+05,      /* I = 19 */
(PID.TID 0000.0001)                 2.945429307892709E+05,      /* I = 20 */
(PID.TID 0000.0001)                 2.900303768613599E+05,      /* I = 21 */
(PID.TID 0000.0001)                 2.843615645344775E+05,      /* I = 22 */
(PID.TID 0000.0001)                 2.775055554645015E+05,      /* I = 23 */
(PID.TID 0000.0001)                 2.694110134598581E+05,      /* I = 24 */
(PID.TID 0000.0001)                 2.599949918261881E+05,      /* I = 25 */
(PID.TID 0000.0001)                 2.491250781852558E+05,      /* I = 26 */
(PID.TID 0000.0001)                 2.365892017348392E+05,      /* I = 27 */
(PID.TID 0000.0001)                 2.220405216043041E+05,      /* I = 28 */
(PID.TID 0000.0001)                 2.048868197919576E+05,      /* I = 29 */
(PID.TID 0000.0001)                 1.840412227747703E+05,      /* I = 30 */
(PID.TID 0000.0001)                 1.572908084538706E+05,      /* I = 31 */
(PID.TID 0000.0001)                 1.202082051331828E+05       /* I = 32 */
(PID.TID 0000.0001)     ;
(PID.TID 0000.0001) dyF =  /* dyF(1,:,1,:) ( units: m ) */
(PID.TID 0000.0001)                 1.202082051331828E+05,      /* J =  1 */
(PID.TID 0000.0001)                 1.563594089971120E+05,      /* J =  2 */
(PID.TID 0000.0001)                 1.835530058121492E+05,      /* J =  3 */
(PID.TID 0000.0001)                 2.045883481718707E+05,      /* J =  4 */
(PID.TID 0000.0001)                 2.218350349844185E+05,      /* J =  5 */
(PID.TID 0000.0001)                 2.364352994647058E+05,      /* J =  6 */
(PID.TID 0000.0001)                 2.490022710862746E+05,      /* J =  7 */
(PID.TID 0000.0001)                 2.598919724358304E+05,      /* J =  8 */
(PID.TID 0000.0001)                 2.693210245495156E+05,      /* J =  9 */
(PID.TID 0000.0001)                 2.774243179696503E+05,      /* J = 10 */
(PID.TID 0000.0001)                 2.842862532064524E+05,      /* J = 11 */
(PID.TID 0000.0001)                 2.899590699694043E+05,      /* J = 12 */
(PID.TID 0000.0001)                 2.944742915095688E+05,      /* J = 13 */
(PID.TID 0000.0001)                 2.978501920522794E+05,      /* J = 14 */
(PID.TID 0000.0001)                 3.000967749619962E+05,      /* J = 15 */
(PID.TID 0000.0001)     2 @  3.012190981969055E+05,             /* J = 16: 17 */
(PID.TID 0000.0001)                 3.000967749619962E+05,      /* J = 18 */
(PID.TID 0000.0001)                 2.978501920522794E+05,      /* J = 19 */
(PID.TID 0000.0001)                 2.944742915095688E+05,      /* J = 20 */
(PID.TID 0000.0001)                 2.899590699694043E+05,      /* J = 21 */
(PID.TID 0000.0001)                 2.842862532064524E+05,      /* J = 22 */
(PID.TID 0000.0001)                 2.774243179696503E+05,      /* J = 23 */
(PID.TID 0000.0001)                 2.693210245495156E+05,      /* J = 24 */
(PID.TID 0000.0001)                 2.598919724358304E+05,      /* J = 25 */
(PID.TID 0000.0001)                 2.490022710862746E+05,      /* J = 26 */
(PID.TID 0000.0001)                 2.364352994647058E+05,      /* J = 27 */
(PID.TID 0000.0001)                 2.218350349844185E+05,      /* J = 28 */
(PID.TID 0000.0001)                 2.045883481718707E+05,      /* J = 29 */
(PID.TID 0000.0001)                 1.835530058121492E+05,      /* J = 30 */
(PID.TID 0000.0001)                 1.563594089971120E+05,      /* J = 31 */
(PID.TID 0000.0001)                 1.202082051331828E+05       /* J = 32 */
(PID.TID 0000.0001)     ;
(PID.TID 0000.0001) dxG =  /* dxG(:,1,:,1) ( units: m ) */
(PID.TID 0000.0001)                 1.009837800879055E+05,      /* I =  1 */
(PID.TID 0000.0001)                 1.534505834330338E+05,      /* I =  2 */
(PID.TID 0000.0001)                 1.823321598773926E+05,      /* I =  3 */
(PID.TID 0000.0001)                 2.038999045536999E+05,      /* I =  4 */
(PID.TID 0000.0001)                 2.213884732245467E+05,      /* I =  5 */
(PID.TID 0000.0001)                 2.361211699596122E+05,      /* I =  6 */
(PID.TID 0000.0001)                 2.487693460283865E+05,      /* I =  7 */
(PID.TID 0000.0001)                 2.597126963772147E+05,      /* I =  8 */
(PID.TID 0000.0001)                 2.691790288994575E+05,      /* I =  9 */
(PID.TID 0000.0001)                 2.773091043277394E+05,      /* I = 10 */
(PID.TID 0000.0001)                 2.841906470085516E+05,      /* I = 11 */
(PID.TID 0000.0001)                 2.898778860929753E+05,      /* I = 12 */
(PID.TID 0000.0001)                 2.944035815526416E+05,      /* I = 13 */
(PID.TID 0000.0001)                 2.977867909042096E+05,      /* I = 14 */
(PID.TID 0000.0001)                 3.000380090330854E+05,      /* I = 15 */
(PID.TID 0000.0001)     2 @  3.011625828699101E+05,             /* I = 16: 17 */
(PID.TID 0000.0001)                 3.000380090330854E+05,      /* I = 18 */
(PID.TID 0000.0001)                 2.977867909042096E+05,      /* I = 19 */
(PID.TID 0000.0001)                 2.944035815526416E+05,      /* I = 20 */
(PID.TID 0000.0001)                 2.898778860929753E+05,      /* I = 21 */
(PID.TID 0000.0001)                 2.841906470085516E+05,      /* I = 22 */
(PID.TID 0000.0001)                 2.773091043277394E+05,      /* I = 23 */
(PID.TID 0000.0001)                 2.691790288994575E+05,      /* I = 24 */
(PID.TID 0000.0001)                 2.597126963772147E+05,      /* I = 25 */
(PID.TID 0000.0001)                 2.487693460283865E+05,      /* I = 26 */
(PID.TID 0000.0001)                 2.361211699596122E+05,      /* I = 27 */
(PID.TID 0000.0001)                 2.213884732245467E+05,      /* I = 28 */
(PID.TID 0000.0001)                 2.038999045536999E+05,      /* I = 29 */
(PID.TID 0000.0001)                 1.823321598773926E+05,      /* I = 30 */
(PID.TID 0000.0001)                 1.534505834330338E+05,      /* I = 31 */
(PID.TID 0000.0001)                 1.009837800879055E+05       /* I = 32 */
(PID.TID 0000.0001)     ;
(PID.TID 0000.0001) dxG =  /* dxG(1,:,1,:) ( units: m ) */
(PID.TID 0000.0001)                 1.009837800879055E+05,      /* J =  1 */
(PID.TID 0000.0001)                 1.403701524205398E+05,      /* J =  2 */
(PID.TID 0000.0001)                 1.716197227386011E+05,      /* J =  3 */
(PID.TID 0000.0001)                 1.950254041626018E+05,      /* J =  4 */
(PID.TID 0000.0001)                 2.138410773065497E+05,      /* J =  5 */
(PID.TID 0000.0001)                 2.295958105911512E+05,      /* J =  6 */
(PID.TID 0000.0001)                 2.430829951739083E+05,      /* J =  7 */
(PID.TID 0000.0001)                 2.547526806712889E+05,      /* J =  8 */
(PID.TID 0000.0001)                 2.648750305193301E+05,      /* J =  9 */
(PID.TID 0000.0001)                 2.736173771018112E+05,      /* J = 10 */
(PID.TID 0000.0001)                 2.810845823202647E+05,      /* J = 11 */
(PID.TID 0000.0001)                 2.873420591008078E+05,      /* J = 12 */
(PID.TID 0000.0001)                 2.924298293668651E+05,      /* J = 13 */
(PID.TID 0000.0001)                 2.963715635865306E+05,      /* J = 14 */
(PID.TID 0000.0001)                 2.991805843171258E+05,      /* J = 15 */
(PID.TID 0000.0001)                 3.008638765647886E+05,      /* J = 16 */
(PID.TID 0000.0001)                 3.014246674484008E+05,      /* J = 17 */
(PID.TID 0000.0001)                 3.008638765647886E+05,      /* J = 18 */
(PID.TID 0000.0001)                 2.991805843171258E+05,      /* J = 19 */
(PID.TID 0000.0001)                 2.963715635865306E+05,      /* J = 20 */
(PID.TID 0000.0001)                 2.924298293668651E+05,      /* J = 21 */
(PID.TID 0000.0001)                 2.873420591008078E+05,      /* J = 22 */
(PID.TID 0000.0001)                 2.810845823202647E+05,      /* J = 23 */
(PID.TID 0000.0001)                 2.736173771018112E+05,      /* J = 24 */
(PID.TID 0000.0001)                 2.648750305193301E+05,      /* J = 25 */
(PID.TID 0000.0001)                 2.547526806712889E+05,      /* J = 26 */
(PID.TID 0000.0001)                 2.430829951739083E+05,      /* J = 27 */
(PID.TID 0000.0001)                 2.295958105911512E+05,      /* J = 28 */
(PID.TID 0000.0001)                 2.138410773065497E+05,      /* J = 29 */
(PID.TID 0000.0001)                 1.950254041626018E+05,      /* J = 30 */
(PID.TID 0000.0001)                 1.716197227386011E+05,      /* J = 31 */
(PID.TID 0000.0001)                 1.403701524205398E+05       /* J = 32 */
(PID.TID 0000.0001)     ;
(PID.TID 0000.0001) dyG =  /* dyG(:,1,:,1) ( units: m ) */
(PID.TID 0000.0001)                 1.009837800879055E+05,      /* I =  1 */
(PID.TID 0000.0001)                 1.403701524205398E+05,      /* I =  2 */
(PID.TID 0000.0001)                 1.716197227386011E+05,      /* I =  3 */
(PID.TID 0000.0001)                 1.950254041626018E+05,      /* I =  4 */
(PID.TID 0000.0001)                 2.138410773065497E+05,      /* I =  5 */
(PID.TID 0000.0001)                 2.295958105911512E+05,      /* I =  6 */
(PID.TID 0000.0001)                 2.430829951739083E+05,      /* I =  7 */
(PID.TID 0000.0001)                 2.547526806712889E+05,      /* I =  8 */
(PID.TID 0000.0001)                 2.648750305193301E+05,      /* I =  9 */
(PID.TID 0000.0001)                 2.736173771018112E+05,      /* I = 10 */
(PID.TID 0000.0001)                 2.810845823202647E+05,      /* I = 11 */
(PID.TID 0000.0001)                 2.873420591008078E+05,      /* I = 12 */
(PID.TID 0000.0001)                 2.924298293668651E+05,      /* I = 13 */
(PID.TID 0000.0001)                 2.963715635865306E+05,      /* I = 14 */
(PID.TID 0000.0001)                 2.991805843171258E+05,      /* I = 15 */
(PID.TID 0000.0001)                 3.008638765647886E+05,      /* I = 16 */
(PID.TID 0000.0001)                 3.014246674484008E+05,      /* I = 17 */
(PID.TID 0000.0001)                 3.008638765647886E+05,      /* I = 18 */
(PID.TID 0000.0001)                 2.991805843171258E+05,      /* I = 19 */
(PID.TID 0000.0001)                 2.963715635865306E+05,      /* I = 20 */
(PID.TID 0000.0001)                 2.924298293668651E+05,      /* I = 21 */
(PID.TID 0000.0001)                 2.873420591008078E+05,      /* I = 22 */
(PID.TID 0000.0001)                 2.810845823202647E+05,      /* I = 23 */
(PID.TID 0000.0001)                 2.736173771018112E+05,      /* I = 24 */
(PID.TID 0000.0001)                 2.648750305193301E+05,      /* I = 25 */
(PID.TID 0000.0001)                 2.547526806712889E+05,      /* I = 26 */
(PID.TID 0000.0001)                 2.430829951739083E+05,      /* I = 27 */
(PID.TID 0000.0001)                 2.295958105911512E+05,      /* I = 28 */
(PID.TID 0000.0001)                 2.138410773065497E+05,      /* I = 29 */
(PID.TID 0000.0001)                 1.950254041626018E+05,      /* I = 30 */
(PID.TID 0000.0001)                 1.716197227386011E+05,      /* I = 31 */
(PID.TID 0000.0001)                 1.403701524205398E+05       /* I = 32 */
(PID.TID 0000.0001)     ;
(PID.TID 0000.0001) dyG =  /* dyG(1,:,1,:) ( units: m ) */
(PID.TID 0000.0001)                 1.009837800879055E+05,      /* J =  1 */
(PID.TID 0000.0001)                 1.534505834330338E+05,      /* J =  2 */
(PID.TID 0000.0001)                 1.823321598773926E+05,      /* J =  3 */
(PID.TID 0000.0001)                 2.038999045536999E+05,      /* J =  4 */
(PID.TID 0000.0001)                 2.213884732245467E+05,      /* J =  5 */
(PID.TID 0000.0001)                 2.361211699596122E+05,      /* J =  6 */
(PID.TID 0000.0001)                 2.487693460283865E+05,      /* J =  7 */
(PID.TID 0000.0001)                 2.597126963772147E+05,      /* J =  8 */
(PID.TID 0000.0001)                 2.691790288994575E+05,      /* J =  9 */
(PID.TID 0000.0001)                 2.773091043277394E+05,      /* J = 10 */
(PID.TID 0000.0001)                 2.841906470085516E+05,      /* J = 11 */
(PID.TID 0000.0001)                 2.898778860929753E+05,      /* J = 12 */
(PID.TID 0000.0001)                 2.944035815526416E+05,      /* J = 13 */
(PID.TID 0000.0001)                 2.977867909042096E+05,      /* J = 14 */
(PID.TID 0000.0001)                 3.000380090330854E+05,      /* J = 15 */
(PID.TID 0000.0001)     2 @  3.011625828699101E+05,             /* J = 16: 17 */
(PID.TID 0000.0001)                 3.000380090330854E+05,      /* J = 18 */
(PID.TID 0000.0001)                 2.977867909042096E+05,      /* J = 19 */
(PID.TID 0000.0001)                 2.944035815526416E+05,      /* J = 20 */
(PID.TID 0000.0001)                 2.898778860929753E+05,      /* J = 21 */
(PID.TID 0000.0001)                 2.841906470085516E+05,      /* J = 22 */
(PID.TID 0000.0001)                 2.773091043277394E+05,      /* J = 23 */
(PID.TID 0000.0001)                 2.691790288994575E+05,      /* J = 24 */
(PID.TID 0000.0001)                 2.597126963772147E+05,      /* J = 25 */
(PID.TID 0000.0001)                 2.487693460283865E+05,      /* J = 26 */
(PID.TID 0000.0001)                 2.361211699596122E+05,      /* J = 27 */
(PID.TID 0000.0001)                 2.213884732245467E+05,      /* J = 28 */
(PID.TID 0000.0001)                 2.038999045536999E+05,      /* J = 29 */
(PID.TID 0000.0001)                 1.823321598773926E+05,      /* J = 30 */
(PID.TID 0000.0001)                 1.534505834330338E+05,      /* J = 31 */
(PID.TID 0000.0001)                 1.009837800879055E+05       /* J = 32 */
(PID.TID 0000.0001)     ;
(PID.TID 0000.0001) dxC =  /* dxC(:,1,:,1) ( units: m ) */
(PID.TID 0000.0001)                 1.114203141013064E+05,      /* I =  1 */
(PID.TID 0000.0001)                 1.391343389937106E+05,      /* I =  2 */
(PID.TID 0000.0001)                 1.709574999026266E+05,      /* I =  3 */
(PID.TID 0000.0001)                 1.946503699269892E+05,      /* I =  4 */
(PID.TID 0000.0001)                 2.135964483342134E+05,      /* I =  5 */
(PID.TID 0000.0001)                 2.294195678257306E+05,      /* I =  6 */
(PID.TID 0000.0001)                 2.429464709770498E+05,      /* I =  7 */
(PID.TID 0000.0001)                 2.546408290696998E+05,      /* I =  8 */
(PID.TID 0000.0001)                 2.647791839299727E+05,      /* I =  9 */
(PID.TID 0000.0001)                 2.735321911346108E+05,      /* I = 10 */
(PID.TID 0000.0001)                 2.810065951609633E+05,      /* I = 11 */
(PID.TID 0000.0001)                 2.872689479506990E+05,      /* I = 12 */
(PID.TID 0000.0001)                 2.923599955312932E+05,      /* I = 13 */
(PID.TID 0000.0001)                 2.963038832565530E+05,      /* I = 14 */
(PID.TID 0000.0001)                 2.991142470004740E+05,      /* I = 15 */
(PID.TID 0000.0001)                 3.007982711627968E+05,      /* I = 16 */
(PID.TID 0000.0001)                 3.013593857228136E+05,      /* I = 17 */
(PID.TID 0000.0001)                 3.007982711627968E+05,      /* I = 18 */
(PID.TID 0000.0001)                 2.991142470004740E+05,      /* I = 19 */
(PID.TID 0000.0001)                 2.963038832565530E+05,      /* I = 20 */
(PID.TID 0000.0001)                 2.923599955312932E+05,      /* I = 21 */
(PID.TID 0000.0001)                 2.872689479506990E+05,      /* I = 22 */
(PID.TID 0000.0001)                 2.810065951609633E+05,      /* I = 23 */
(PID.TID 0000.0001)                 2.735321911346108E+05,      /* I = 24 */
(PID.TID 0000.0001)                 2.647791839299727E+05,      /* I = 25 */
(PID.TID 0000.0001)                 2.546408290696998E+05,      /* I = 26 */
(PID.TID 0000.0001)                 2.429464709770498E+05,      /* I = 27 */
(PID.TID 0000.0001)                 2.294195678257306E+05,      /* I = 28 */
(PID.TID 0000.0001)                 2.135964483342134E+05,      /* I = 29 */
(PID.TID 0000.0001)                 1.946503699269892E+05,      /* I = 30 */
(PID.TID 0000.0001)                 1.709574999026266E+05,      /* I = 31 */
(PID.TID 0000.0001)                 1.391343389937106E+05       /* I = 32 */
(PID.TID 0000.0001)     ;
(PID.TID 0000.0001) dxC =  /* dxC(1,:,1,:) ( units: m ) */
(PID.TID 0000.0001)                 1.114203141013064E+05,      /* J =  1 */
(PID.TID 0000.0001)                 1.549545757850771E+05,      /* J =  2 */
(PID.TID 0000.0001)                 1.829777599966776E+05,      /* J =  3 */
(PID.TID 0000.0001)                 2.042717761866506E+05,      /* J =  4 */
(PID.TID 0000.0001)                 2.216367828252819E+05,      /* J =  5 */
(PID.TID 0000.0001)                 2.363029564123586E+05,      /* J =  6 */
(PID.TID 0000.0001)                 2.489113743322025E+05,      /* J =  7 */
(PID.TID 0000.0001)                 2.598293319150326E+05,      /* J =  8 */
(PID.TID 0000.0001)                 2.692787333338535E+05,      /* J =  9 */
(PID.TID 0000.0001)                 2.773972106720365E+05,      /* J = 10 */
(PID.TID 0000.0001)                 2.842706922224557E+05,      /* J = 11 */
(PID.TID 0000.0001)                 2.899523122489403E+05,      /* J = 12 */
(PID.TID 0000.0001)                 2.944741346384699E+05,      /* J = 13 */
(PID.TID 0000.0001)                 2.978547649292580E+05,      /* J = 14 */
(PID.TID 0000.0001)                 3.001044073506459E+05,      /* J = 15 */
(PID.TID 0000.0001)     2 @  3.012281885409289E+05,             /* J = 16: 17 */
(PID.TID 0000.0001)                 3.001044073506459E+05,      /* J = 18 */
(PID.TID 0000.0001)                 2.978547649292580E+05,      /* J = 19 */
(PID.TID 0000.0001)                 2.944741346384699E+05,      /* J = 20 */
(PID.TID 0000.0001)                 2.899523122489403E+05,      /* J = 21 */
(PID.TID 0000.0001)                 2.842706922224557E+05,      /* J = 22 */
(PID.TID 0000.0001)                 2.773972106720365E+05,      /* J = 23 */
(PID.TID 0000.0001)                 2.692787333338535E+05,      /* J = 24 */
(PID.TID 0000.0001)                 2.598293319150326E+05,      /* J = 25 */
(PID.TID 0000.0001)                 2.489113743322025E+05,      /* J = 26 */
(PID.TID 0000.0001)                 2.363029564123586E+05,      /* J = 27 */
(PID.TID 0000.0001)                 2.216367828252819E+05,      /* J = 28 */
(PID.TID 0000.0001)                 2.042717761866506E+05,      /* J = 29 */
(PID.TID 0000.0001)                 1.829777599966776E+05,      /* J = 30 */
(PID.TID 0000.0001)                 1.549545757850771E+05,      /* J = 31 */
(PID.TID 0000.0001)                 1.114203141013064E+05       /* J = 32 */
(PID.TID 0000.0001)     ;
(PID.TID 0000.0001) dyC =  /* dyC(:,1,:,1) ( units: m ) */
(PID.TID 0000.0001)                 1.114203141013064E+05,      /* I =  1 */
(PID.TID 0000.0001)                 1.549545757850771E+05,      /* I =  2 */
(PID.TID 0000.0001)                 1.829777599966776E+05,      /* I =  3 */
(PID.TID 0000.0001)                 2.042717761866506E+05,      /* I =  4 */
(PID.TID 0000.0001)                 2.216367828252819E+05,      /* I =  5 */
(PID.TID 0000.0001)                 2.363029564123586E+05,      /* I =  6 */
(PID.TID 0000.0001)                 2.489113743322025E+05,      /* I =  7 */
(PID.TID 0000.0001)                 2.598293319150326E+05,      /* I =  8 */
(PID.TID 0000.0001)                 2.692787333338535E+05,      /* I =  9 */
(PID.TID 0000.0001)                 2.773972106720365E+05,      /* I = 10 */
(PID.TID 0000.0001)                 2.842706922224557E+05,      /* I = 11 */
(PID.TID 0000.0001)                 2.899523122489403E+05,      /* I = 12 */
(PID.TID 0000.0001)                 2.944741346384699E+05,      /* I = 13 */
(PID.TID 0000.0001)                 2.978547649292580E+05,      /* I = 14 */
(PID.TID 0000.0001)                 3.001044073506459E+05,      /* I = 15 */
(PID.TID 0000.0001)     2 @  3.012281885409289E+05,             /* I = 16: 17 */
(PID.TID 0000.0001)                 3.001044073506459E+05,      /* I = 18 */
(PID.TID 0000.0001)                 2.978547649292580E+05,      /* I = 19 */
(PID.TID 0000.0001)                 2.944741346384699E+05,      /* I = 20 */
(PID.TID 0000.0001)                 2.899523122489403E+05,      /* I = 21 */
(PID.TID 0000.0001)                 2.842706922224557E+05,      /* I = 22 */
(PID.TID 0000.0001)                 2.773972106720365E+05,      /* I = 23 */
(PID.TID 0000.0001)                 2.692787333338535E+05,      /* I = 24 */
(PID.TID 0000.0001)                 2.598293319150326E+05,      /* I = 25 */
(PID.TID 0000.0001)                 2.489113743322025E+05,      /* I = 26 */
(PID.TID 0000.0001)                 2.363029564123586E+05,      /* I = 27 */
(PID.TID 0000.0001)                 2.216367828252819E+05,      /* I = 28 */
(PID.TID 0000.0001)                 2.042717761866506E+05,      /* I = 29 */
(PID.TID 0000.0001)                 1.829777599966776E+05,      /* I = 30 */
(PID.TID 0000.0001)                 1.549545757850771E+05,      /* I = 31 */
(PID.TID 0000.0001)                 1.114203141013064E+05       /* I = 32 */
(PID.TID 0000.0001)     ;
(PID.TID 0000.0001) dyC =  /* dyC(1,:,1,:) ( units: m ) */
(PID.TID 0000.0001)                 1.114203141013064E+05,      /* J =  1 */
(PID.TID 0000.0001)                 1.391343389937106E+05,      /* J =  2 */
(PID.TID 0000.0001)                 1.709574999026266E+05,      /* J =  3 */
(PID.TID 0000.0001)                 1.946503699269892E+05,      /* J =  4 */
(PID.TID 0000.0001)                 2.135964483342134E+05,      /* J =  5 */
(PID.TID 0000.0001)                 2.294195678257306E+05,      /* J =  6 */
(PID.TID 0000.0001)                 2.429464709770498E+05,      /* J =  7 */
(PID.TID 0000.0001)                 2.546408290696998E+05,      /* J =  8 */
(PID.TID 0000.0001)                 2.647791839299727E+05,      /* J =  9 */
(PID.TID 0000.0001)                 2.735321911346108E+05,      /* J = 10 */
(PID.TID 0000.0001)                 2.810065951609633E+05,      /* J = 11 */
(PID.TID 0000.0001)                 2.872689479506990E+05,      /* J = 12 */
(PID.TID 0000.0001)                 2.923599955312932E+05,      /* J = 13 */
(PID.TID 0000.0001)                 2.963038832565530E+05,      /* J = 14 */
(PID.TID 0000.0001)                 2.991142470004740E+05,      /* J = 15 */
(PID.TID 0000.0001)                 3.007982711627968E+05,      /* J = 16 */
(PID.TID 0000.0001)                 3.013593857228136E+05,      /* J = 17 */
(PID.TID 0000.0001)                 3.007982711627968E+05,      /* J = 18 */
(PID.TID 0000.0001)                 2.991142470004740E+05,      /* J = 19 */
(PID.TID 0000.0001)                 2.963038832565530E+05,      /* J = 20 */
(PID.TID 0000.0001)                 2.923599955312932E+05,      /* J = 21 */
(PID.TID 0000.0001)                 2.872689479506990E+05,      /* J = 22 */
(PID.TID 0000.0001)                 2.810065951609633E+05,      /* J = 23 */
(PID.TID 0000.0001)                 2.735321911346108E+05,      /* J = 24 */
(PID.TID 0000.0001)                 2.647791839299727E+05,      /* J = 25 */
(PID.TID 0000.0001)                 2.546408290696998E+05,      /* J = 26 */
(PID.TID 0000.0001)                 2.429464709770498E+05,      /* J = 27 */
(PID.TID 0000.0001)                 2.294195678257306E+05,      /* J = 28 */
(PID.TID 0000.0001)                 2.135964483342134E+05,      /* J = 29 */
(PID.TID 0000.0001)                 1.946503699269892E+05,      /* J = 30 */
(PID.TID 0000.0001)                 1.709574999026266E+05,      /* J = 31 */
(PID.TID 0000.0001)                 1.391343389937106E+05       /* J = 32 */
(PID.TID 0000.0001)     ;
(PID.TID 0000.0001) dxV =  /* dxV(:,1,:,1) ( units: m ) */
(PID.TID 0000.0001)                 8.015229982413632E+04,      /* I =  1 */
(PID.TID 0000.0001)                 1.333130744933864E+05,      /* I =  2 */
(PID.TID 0000.0001)                 1.691744868129062E+05,      /* I =  3 */
(PID.TID 0000.0001)                 1.937548202849060E+05,      /* I =  4 */
(PID.TID 0000.0001)                 2.130490056267208E+05,      /* I =  5 */
(PID.TID 0000.0001)                 2.290479919481738E+05,      /* I =  6 */
(PID.TID 0000.0001)                 2.426774358027003E+05,      /* I =  7 */
(PID.TID 0000.0001)                 2.544372984215561E+05,      /* I =  8 */
(PID.TID 0000.0001)                 2.646201463834826E+05,      /* I =  9 */
(PID.TID 0000.0001)                 2.734046499619031E+05,      /* I = 10 */
(PID.TID 0000.0001)                 2.809019351693761E+05,      /* I = 11 */
(PID.TID 0000.0001)                 2.871811105274442E+05,      /* I = 12 */
(PID.TID 0000.0001)                 2.922844849381675E+05,      /* I = 13 */
(PID.TID 0000.0001)                 2.962371870847826E+05,      /* I = 14 */
(PID.TID 0000.0001)                 2.990534755671296E+05,      /* I = 15 */
(PID.TID 0000.0001)                 3.007409169495504E+05,      /* I = 16 */
(PID.TID 0000.0001)                 3.013031486919771E+05,      /* I = 17 */
(PID.TID 0000.0001)                 3.007409169495504E+05,      /* I = 18 */
(PID.TID 0000.0001)                 2.990534755671296E+05,      /* I = 19 */
(PID.TID 0000.0001)                 2.962371870847826E+05,      /* I = 20 */
(PID.TID 0000.0001)                 2.922844849381675E+05,      /* I = 21 */
(PID.TID 0000.0001)                 2.871811105274442E+05,      /* I = 22 */
(PID.TID 0000.0001)                 2.809019351693761E+05,      /* I = 23 */
(PID.TID 0000.0001)                 2.734046499619031E+05,      /* I = 24 */
(PID.TID 0000.0001)                 2.646201463834826E+05,      /* I = 25 */
(PID.TID 0000.0001)                 2.544372984215561E+05,      /* I = 26 */
(PID.TID 0000.0001)                 2.426774358027003E+05,      /* I = 27 */
(PID.TID 0000.0001)                 2.290479919481738E+05,      /* I = 28 */
(PID.TID 0000.0001)                 2.130490056267208E+05,      /* I = 29 */
(PID.TID 0000.0001)                 1.937548202849060E+05,      /* I = 30 */
(PID.TID 0000.0001)                 1.691744868129062E+05,      /* I = 31 */
(PID.TID 0000.0001)                 1.333130744933864E+05       /* I = 32 */
(PID.TID 0000.0001)     ;
(PID.TID 0000.0001) dxV =  /* dxV(1,:,1,:) ( units: m ) */
(PID.TID 0000.0001)                 8.015229982413632E+04,      /* J =  1 */
(PID.TID 0000.0001)                 1.362652340208229E+05,      /* J =  2 */
(PID.TID 0000.0001)                 1.701080315742101E+05,      /* J =  3 */
(PID.TID 0000.0001)                 1.942331448101592E+05,      /* J =  4 */
(PID.TID 0000.0001)                 2.133486626971531E+05,      /* J =  5 */
(PID.TID 0000.0001)                 2.292584591272880E+05,      /* J =  6 */
(PID.TID 0000.0001)                 2.428369969078989E+05,      /* J =  7 */
(PID.TID 0000.0001)                 2.545652950875683E+05,      /* J =  8 */
(PID.TID 0000.0001)                 2.647274964828301E+05,      /* J =  9 */
(PID.TID 0000.0001)                 2.734980225206389E+05,      /* J = 10 */
(PID.TID 0000.0001)                 2.809856491525217E+05,      /* J = 11 */
(PID.TID 0000.0001)                 2.872580915202295E+05,      /* J = 12 */
(PID.TID 0000.0001)                 2.923567890694162E+05,      /* J = 13 */
(PID.TID 0000.0001)                 2.963063101754721E+05,      /* J = 14 */
(PID.TID 0000.0001)                 2.991205495886625E+05,      /* J = 15 */
(PID.TID 0000.0001)                 3.008068453676764E+05,      /* J = 16 */
(PID.TID 0000.0001)                 3.013686170436881E+05,      /* J = 17 */
(PID.TID 0000.0001)                 3.008068453676764E+05,      /* J = 18 */
(PID.TID 0000.0001)                 2.991205495886625E+05,      /* J = 19 */
(PID.TID 0000.0001)                 2.963063101754721E+05,      /* J = 20 */
(PID.TID 0000.0001)                 2.923567890694162E+05,      /* J = 21 */
(PID.TID 0000.0001)                 2.872580915202295E+05,      /* J = 22 */
(PID.TID 0000.0001)                 2.809856491525217E+05,      /* J = 23 */
(PID.TID 0000.0001)                 2.734980225206389E+05,      /* J = 24 */
(PID.TID 0000.0001)                 2.647274964828301E+05,      /* J = 25 */
(PID.TID 0000.0001)                 2.545652950875683E+05,      /* J = 26 */
(PID.TID 0000.0001)                 2.428369969078989E+05,      /* J = 27 */
(PID.TID 0000.0001)                 2.292584591272880E+05,      /* J = 28 */
(PID.TID 0000.0001)                 2.133486626971531E+05,      /* J = 29 */
(PID.TID 0000.0001)                 1.942331448101592E+05,      /* J = 30 */
(PID.TID 0000.0001)                 1.701080315742101E+05,      /* J = 31 */
(PID.TID 0000.0001)                 1.362652340208229E+05       /* J = 32 */
(PID.TID 0000.0001)     ;
(PID.TID 0000.0001) dyU =  /* dyU(:,1,:,1) ( units: m ) */
(PID.TID 0000.0001)                 8.015229982413632E+04,      /* I =  1 */
(PID.TID 0000.0001)                 1.362652340208229E+05,      /* I =  2 */
(PID.TID 0000.0001)                 1.701080315742101E+05,      /* I =  3 */
(PID.TID 0000.0001)                 1.942331448101592E+05,      /* I =  4 */
(PID.TID 0000.0001)                 2.133486626971531E+05,      /* I =  5 */
(PID.TID 0000.0001)                 2.292584591272880E+05,      /* I =  6 */
(PID.TID 0000.0001)                 2.428369969078989E+05,      /* I =  7 */
(PID.TID 0000.0001)                 2.545652950875683E+05,      /* I =  8 */
(PID.TID 0000.0001)                 2.647274964828301E+05,      /* I =  9 */
(PID.TID 0000.0001)                 2.734980225206389E+05,      /* I = 10 */
(PID.TID 0000.0001)                 2.809856491525217E+05,      /* I = 11 */
(PID.TID 0000.0001)                 2.872580915202295E+05,      /* I = 12 */
(PID.TID 0000.0001)                 2.923567890694162E+05,      /* I = 13 */
(PID.TID 0000.0001)                 2.963063101754721E+05,      /* I = 14 */
(PID.TID 0000.0001)                 2.991205495886625E+05,      /* I = 15 */
(PID.TID 0000.0001)                 3.008068453676764E+05,      /* I = 16 */
(PID.TID 0000.0001)                 3.013686170436881E+05,      /* I = 17 */
(PID.TID 0000.0001)                 3.008068453676764E+05,      /* I = 18 */
(PID.TID 0000.0001)                 2.991205495886625E+05,      /* I = 19 */
(PID.TID 0000.0001)                 2.963063101754721E+05,      /* I = 20 */
(PID.TID 0000.0001)                 2.923567890694162E+05,      /* I = 21 */
(PID.TID 0000.0001)                 2.872580915202295E+05,      /* I = 22 */
(PID.TID 0000.0001)                 2.809856491525217E+05,      /* I = 23 */
(PID.TID 0000.0001)                 2.734980225206389E+05,      /* I = 24 */
(PID.TID 0000.0001)                 2.647274964828301E+05,      /* I = 25 */
(PID.TID 0000.0001)                 2.545652950875683E+05,      /* I = 26 */
(PID.TID 0000.0001)                 2.428369969078989E+05,      /* I = 27 */
(PID.TID 0000.0001)                 2.292584591272880E+05,      /* I = 28 */
(PID.TID 0000.0001)                 2.133486626971531E+05,      /* I = 29 */
(PID.TID 0000.0001)                 1.942331448101592E+05,      /* I = 30 */
(PID.TID 0000.0001)                 1.701080315742101E+05,      /* I = 31 */
(PID.TID 0000.0001)                 1.362652340208229E+05       /* I = 32 */
(PID.TID 0000.0001)     ;
(PID.TID 0000.0001) dyU =  /* dyU(1,:,1,:) ( units: m ) */
(PID.TID 0000.0001)                 8.015229982413632E+04,      /* J =  1 */
(PID.TID 0000.0001)                 1.333130744933864E+05,      /* J =  2 */
(PID.TID 0000.0001)                 1.691744868129062E+05,      /* J =  3 */
(PID.TID 0000.0001)                 1.937548202849060E+05,      /* J =  4 */
(PID.TID 0000.0001)                 2.130490056267208E+05,      /* J =  5 */
(PID.TID 0000.0001)                 2.290479919481738E+05,      /* J =  6 */
(PID.TID 0000.0001)                 2.426774358027003E+05,      /* J =  7 */
(PID.TID 0000.0001)                 2.544372984215561E+05,      /* J =  8 */
(PID.TID 0000.0001)                 2.646201463834826E+05,      /* J =  9 */
(PID.TID 0000.0001)                 2.734046499619031E+05,      /* J = 10 */
(PID.TID 0000.0001)                 2.809019351693761E+05,      /* J = 11 */
(PID.TID 0000.0001)                 2.871811105274442E+05,      /* J = 12 */
(PID.TID 0000.0001)                 2.922844849381675E+05,      /* J = 13 */
(PID.TID 0000.0001)                 2.962371870847826E+05,      /* J = 14 */
(PID.TID 0000.0001)                 2.990534755671296E+05,      /* J = 15 */
(PID.TID 0000.0001)                 3.007409169495504E+05,      /* J = 16 */
(PID.TID 0000.0001)                 3.013031486919771E+05,      /* J = 17 */
(PID.TID 0000.0001)                 3.007409169495504E+05,      /* J = 18 */
(PID.TID 0000.0001)                 2.990534755671296E+05,      /* J = 19 */
(PID.TID 0000.0001)                 2.962371870847826E+05,      /* J = 20 */
(PID.TID 0000.0001)                 2.922844849381675E+05,      /* J = 21 */
(PID.TID 0000.0001)                 2.871811105274442E+05,      /* J = 22 */
(PID.TID 0000.0001)                 2.809019351693761E+05,      /* J = 23 */
(PID.TID 0000.0001)                 2.734046499619031E+05,      /* J = 24 */
(PID.TID 0000.0001)                 2.646201463834826E+05,      /* J = 25 */
(PID.TID 0000.0001)                 2.544372984215561E+05,      /* J = 26 */
(PID.TID 0000.0001)                 2.426774358027003E+05,      /* J = 27 */
(PID.TID 0000.0001)                 2.290479919481738E+05,      /* J = 28 */
(PID.TID 0000.0001)                 2.130490056267208E+05,      /* J = 29 */
(PID.TID 0000.0001)                 1.937548202849060E+05,      /* J = 30 */
(PID.TID 0000.0001)                 1.691744868129062E+05,      /* J = 31 */
(PID.TID 0000.0001)                 1.333130744933864E+05       /* J = 32 */
(PID.TID 0000.0001)     ;
(PID.TID 0000.0001) rA  =  /* rA (:,1,:,1) ( units: m^2 ) */
(PID.TID 0000.0001)                 1.401900702255611E+10,      /* I =  1 */
(PID.TID 0000.0001)                 2.459906945574446E+10,      /* I =  2 */
(PID.TID 0000.0001)                 3.378518544307869E+10,      /* I =  3 */
(PID.TID 0000.0001)                 4.192037169898667E+10,      /* I =  4 */
(PID.TID 0000.0001)                 4.925938996118163E+10,      /* I =  5 */
(PID.TID 0000.0001)                 5.594154126607553E+10,      /* I =  6 */
(PID.TID 0000.0001)                 6.203683527772523E+10,      /* I =  7 */
(PID.TID 0000.0001)                 6.757541173817516E+10,      /* I =  8 */
(PID.TID 0000.0001)                 7.256353271748119E+10,      /* I =  9 */
(PID.TID 0000.0001)                 7.699293007098555E+10,      /* I = 10 */
(PID.TID 0000.0001)                 8.084683449728902E+10,      /* I = 11 */
(PID.TID 0000.0001)                 8.410423102796223E+10,      /* I = 12 */
(PID.TID 0000.0001)                 8.674306976737517E+10,      /* I = 13 */
(PID.TID 0000.0001)                 8.874277443041928E+10,      /* I = 14 */
(PID.TID 0000.0001)                 9.008620045350865E+10,      /* I = 15 */
(PID.TID 0000.0001)                 9.076111290418457E+10,      /* I = 16 */
(PID.TID 0000.0001)                 9.076111290422060E+10,      /* I = 17 */
(PID.TID 0000.0001)                 9.008620045354469E+10,      /* I = 18 */
(PID.TID 0000.0001)                 8.874277443041928E+10,      /* I = 19 */
(PID.TID 0000.0001)                 8.674306976741121E+10,      /* I = 20 */
(PID.TID 0000.0001)                 8.410423102799828E+10,      /* I = 21 */
(PID.TID 0000.0001)                 8.084683449728902E+10,      /* I = 22 */
(PID.TID 0000.0001)                 7.699293007098555E+10,      /* I = 23 */
(PID.TID 0000.0001)                 7.256353271748119E+10,      /* I = 24 */
(PID.TID 0000.0001)                 6.757541173817516E+10,      /* I = 25 */
(PID.TID 0000.0001)                 6.203683527772523E+10,      /* I = 26 */
(PID.TID 0000.0001)                 5.594154126611156E+10,      /* I = 27 */
(PID.TID 0000.0001)                 4.925938996118163E+10,      /* I = 28 */
(PID.TID 0000.0001)                 4.192037169898667E+10,      /* I = 29 */
(PID.TID 0000.0001)                 3.378518544304265E+10,      /* I = 30 */
(PID.TID 0000.0001)                 2.459906945574446E+10,      /* I = 31 */
(PID.TID 0000.0001)                 1.401900702259215E+10       /* I = 32 */
(PID.TID 0000.0001)     ;
(PID.TID 0000.0001) rA  =  /* rA (1,:,1,:) ( units: m^2 ) */
(PID.TID 0000.0001)                 1.401900702255611E+10,      /* J =  1 */
(PID.TID 0000.0001)                 2.459906945574446E+10,      /* J =  2 */
(PID.TID 0000.0001)                 3.378518544307869E+10,      /* J =  3 */
(PID.TID 0000.0001)                 4.192037169898667E+10,      /* J =  4 */
(PID.TID 0000.0001)                 4.925938996118163E+10,      /* J =  5 */
(PID.TID 0000.0001)                 5.594154126607553E+10,      /* J =  6 */
(PID.TID 0000.0001)                 6.203683527776127E+10,      /* J =  7 */
(PID.TID 0000.0001)                 6.757541173817516E+10,      /* J =  8 */
(PID.TID 0000.0001)                 7.256353271748119E+10,      /* J =  9 */
(PID.TID 0000.0001)                 7.699293007098555E+10,      /* J = 10 */
(PID.TID 0000.0001)                 8.084683449728902E+10,      /* J = 11 */
(PID.TID 0000.0001)                 8.410423102799828E+10,      /* J = 12 */
(PID.TID 0000.0001)                 8.674306976737517E+10,      /* J = 13 */
(PID.TID 0000.0001)                 8.874277443041928E+10,      /* J = 14 */
(PID.TID 0000.0001)                 9.008620045350865E+10,      /* J = 15 */
(PID.TID 0000.0001)                 9.076111290418457E+10,      /* J = 16 */
(PID.TID 0000.0001)                 9.076111290422060E+10,      /* J = 17 */
(PID.TID 0000.0001)                 9.008620045354469E+10,      /* J = 18 */
(PID.TID 0000.0001)                 8.874277443041928E+10,      /* J = 19 */
(PID.TID 0000.0001)                 8.674306976737517E+10,      /* J = 20 */
(PID.TID 0000.0001)                 8.410423102799828E+10,      /* J = 21 */
(PID.TID 0000.0001)                 8.084683449728902E+10,      /* J = 22 */
(PID.TID 0000.0001)                 7.699293007098555E+10,      /* J = 23 */
(PID.TID 0000.0001)                 7.256353271748119E+10,      /* J = 24 */
(PID.TID 0000.0001)                 6.757541173817516E+10,      /* J = 25 */
(PID.TID 0000.0001)                 6.203683527772523E+10,      /* J = 26 */
(PID.TID 0000.0001)                 5.594154126607553E+10,      /* J = 27 */
(PID.TID 0000.0001)                 4.925938996118163E+10,      /* J = 28 */
(PID.TID 0000.0001)                 4.192037169898667E+10,      /* J = 29 */
(PID.TID 0000.0001)                 3.378518544307869E+10,      /* J = 30 */
(PID.TID 0000.0001)                 2.459906945574446E+10,      /* J = 31 */
(PID.TID 0000.0001)                 1.401900702259215E+10       /* J = 32 */
(PID.TID 0000.0001)     ;
(PID.TID 0000.0001) rAw =  /* rAw(:,1,:,1) ( units: m^2 ) */
(PID.TID 0000.0001)                 1.216690346714270E+10,      /* I =  1 */
(PID.TID 0000.0001)                 1.974052138506315E+10,      /* I =  2 */
(PID.TID 0000.0001)                 2.943712825252015E+10,      /* I =  3 */
(PID.TID 0000.0001)                 3.801790263324359E+10,      /* I =  4 */
(PID.TID 0000.0001)                 4.571243814189866E+10,      /* I =  5 */
(PID.TID 0000.0001)                 5.269930713599979E+10,      /* I =  6 */
(PID.TID 0000.0001)                 5.907428494299063E+10,      /* I =  7 */
(PID.TID 0000.0001)                 6.488320895111514E+10,      /* I =  8 */
(PID.TID 0000.0001)                 7.014205907741882E+10,      /* I =  9 */
(PID.TID 0000.0001)                 7.484854821847499E+10,      /* I = 10 */
(PID.TID 0000.0001)                 7.898934631431560E+10,      /* I = 11 */
(PID.TID 0000.0001)                 8.254500894894537E+10,      /* I = 12 */
(PID.TID 0000.0001)                 8.549360686473492E+10,      /* I = 13 */
(PID.TID 0000.0001)                 8.781353403175085E+10,      /* I = 14 */
(PID.TID 0000.0001)                 8.948571540392021E+10,      /* I = 15 */
(PID.TID 0000.0001)                 9.049530583086168E+10,      /* I = 16 */
(PID.TID 0000.0001)                 9.083293515008307E+10,      /* I = 17 */
(PID.TID 0000.0001)                 9.049530583087070E+10,      /* I = 18 */
(PID.TID 0000.0001)                 8.948571540391121E+10,      /* I = 19 */
(PID.TID 0000.0001)                 8.781353403174185E+10,      /* I = 20 */
(PID.TID 0000.0001)                 8.549360686467184E+10,      /* I = 21 */
(PID.TID 0000.0001)                 8.254500894890933E+10,      /* I = 22 */
(PID.TID 0000.0001)                 7.898934631434262E+10,      /* I = 23 */
(PID.TID 0000.0001)                 7.484854821844795E+10,      /* I = 24 */
(PID.TID 0000.0001)                 7.014205907742783E+10,      /* I = 25 */
(PID.TID 0000.0001)                 6.488320895111514E+10,      /* I = 26 */
(PID.TID 0000.0001)                 5.907428494299063E+10,      /* I = 27 */
(PID.TID 0000.0001)                 5.269930713599078E+10,      /* I = 28 */
(PID.TID 0000.0001)                 4.571243814190767E+10,      /* I = 29 */
(PID.TID 0000.0001)                 3.801790263325260E+10,      /* I = 30 */
(PID.TID 0000.0001)                 2.943712825251114E+10,      /* I = 31 */
(PID.TID 0000.0001)                 1.974052138509018E+10       /* I = 32 */
(PID.TID 0000.0001)     ;
(PID.TID 0000.0001) rAw =  /* rAw(1,:,1,:) ( units: m^2 ) */
(PID.TID 0000.0001)                 1.216690346714270E+10,      /* J =  1 */
(PID.TID 0000.0001)                 2.390126200743558E+10,      /* J =  2 */
(PID.TID 0000.0001)                 3.341968103208270E+10,      /* J =  3 */
(PID.TID 0000.0001)                 4.168532893152940E+10,      /* J =  4 */
(PID.TID 0000.0001)                 4.909074590409593E+10,      /* J =  5 */
(PID.TID 0000.0001)                 5.581203765722643E+10,      /* J =  6 */
(PID.TID 0000.0001)                 6.193257577506788E+10,      /* J =  7 */
(PID.TID 0000.0001)                 6.748840226738273E+10,      /* J =  8 */
(PID.TID 0000.0001)                 7.248875782324815E+10,      /* J =  9 */
(PID.TID 0000.0001)                 7.692702995909871E+10,      /* J = 10 */
(PID.TID 0000.0001)                 8.078743937057304E+10,      /* J = 11 */
(PID.TID 0000.0001)                 8.404959656062837E+10,      /* J = 12 */
(PID.TID 0000.0001)                 8.669186205742538E+10,      /* J = 13 */
(PID.TID 0000.0001)                 8.869393350723613E+10,      /* J = 14 */
(PID.TID 0000.0001)                 9.003884657168852E+10,      /* J = 15 */
(PID.TID 0000.0001)     2 @  9.071447638299399E+10,             /* J = 16: 17 */
(PID.TID 0000.0001)                 9.003884657168852E+10,      /* J = 18 */
(PID.TID 0000.0001)                 8.869393350723613E+10,      /* J = 19 */
(PID.TID 0000.0001)                 8.669186205742538E+10,      /* J = 20 */
(PID.TID 0000.0001)                 8.404959656062837E+10,      /* J = 21 */
(PID.TID 0000.0001)                 8.078743937057304E+10,      /* J = 22 */
(PID.TID 0000.0001)                 7.692702995909871E+10,      /* J = 23 */
(PID.TID 0000.0001)                 7.248875782324815E+10,      /* J = 24 */
(PID.TID 0000.0001)                 6.748840226738273E+10,      /* J = 25 */
(PID.TID 0000.0001)                 6.193257577506788E+10,      /* J = 26 */
(PID.TID 0000.0001)                 5.581203765722643E+10,      /* J = 27 */
(PID.TID 0000.0001)                 4.909074590409593E+10,      /* J = 28 */
(PID.TID 0000.0001)                 4.168532893152940E+10,      /* J = 29 */
(PID.TID 0000.0001)                 3.341968103208270E+10,      /* J = 30 */
(PID.TID 0000.0001)                 2.390126200743558E+10,      /* J = 31 */
(PID.TID 0000.0001)                 1.216690346714270E+10       /* J = 32 */
(PID.TID 0000.0001)     ;
(PID.TID 0000.0001) rAs =  /* rAs(:,1,:,1) ( units: m^2 ) */
(PID.TID 0000.0001)                 1.216690346714270E+10,      /* I =  1 */
(PID.TID 0000.0001)                 2.390126200743558E+10,      /* I =  2 */
(PID.TID 0000.0001)                 3.341968103208270E+10,      /* I =  3 */
(PID.TID 0000.0001)                 4.168532893152940E+10,      /* I =  4 */
(PID.TID 0000.0001)                 4.909074590409593E+10,      /* I =  5 */
(PID.TID 0000.0001)                 5.581203765722643E+10,      /* I =  6 */
(PID.TID 0000.0001)                 6.193257577506788E+10,      /* I =  7 */
(PID.TID 0000.0001)                 6.748840226738273E+10,      /* I =  8 */
(PID.TID 0000.0001)                 7.248875782324815E+10,      /* I =  9 */
(PID.TID 0000.0001)                 7.692702995909871E+10,      /* I = 10 */
(PID.TID 0000.0001)                 8.078743937057304E+10,      /* I = 11 */
(PID.TID 0000.0001)                 8.404959656062837E+10,      /* I = 12 */
(PID.TID 0000.0001)                 8.669186205742538E+10,      /* I = 13 */
(PID.TID 0000.0001)                 8.869393350723613E+10,      /* I = 14 */
(PID.TID 0000.0001)                 9.003884657168852E+10,      /* I = 15 */
(PID.TID 0000.0001)     2 @  9.071447638299399E+10,             /* I = 16: 17 */
(PID.TID 0000.0001)                 9.003884657168852E+10,      /* I = 18 */
(PID.TID 0000.0001)                 8.869393350723613E+10,      /* I = 19 */
(PID.TID 0000.0001)                 8.669186205742538E+10,      /* I = 20 */
(PID.TID 0000.0001)                 8.404959656062837E+10,      /* I = 21 */
(PID.TID 0000.0001)                 8.078743937057304E+10,      /* I = 22 */
(PID.TID 0000.0001)                 7.692702995909871E+10,      /* I = 23 */
(PID.TID 0000.0001)                 7.248875782324815E+10,      /* I = 24 */
(PID.TID 0000.0001)                 6.748840226738273E+10,      /* I = 25 */
(PID.TID 0000.0001)                 6.193257577506788E+10,      /* I = 26 */
(PID.TID 0000.0001)                 5.581203765722643E+10,      /* I = 27 */
(PID.TID 0000.0001)                 4.909074590409593E+10,      /* I = 28 */
(PID.TID 0000.0001)                 4.168532893152940E+10,      /* I = 29 */
(PID.TID 0000.0001)                 3.341968103208270E+10,      /* I = 30 */
(PID.TID 0000.0001)                 2.390126200743558E+10,      /* I = 31 */
(PID.TID 0000.0001)                 1.216690346714270E+10       /* I = 32 */
(PID.TID 0000.0001)     ;
(PID.TID 0000.0001) rAs =  /* rAs(1,:,1,:) ( units: m^2 ) */
(PID.TID 0000.0001)                 1.216690346714270E+10,      /* J =  1 */
(PID.TID 0000.0001)                 1.974052138506315E+10,      /* J =  2 */
(PID.TID 0000.0001)                 2.943712825252015E+10,      /* J =  3 */
(PID.TID 0000.0001)                 3.801790263324359E+10,      /* J =  4 */
(PID.TID 0000.0001)                 4.571243814189866E+10,      /* J =  5 */
(PID.TID 0000.0001)                 5.269930713599979E+10,      /* J =  6 */
(PID.TID 0000.0001)                 5.907428494299063E+10,      /* J =  7 */
(PID.TID 0000.0001)                 6.488320895111514E+10,      /* J =  8 */
(PID.TID 0000.0001)                 7.014205907741882E+10,      /* J =  9 */
(PID.TID 0000.0001)                 7.484854821847499E+10,      /* J = 10 */
(PID.TID 0000.0001)                 7.898934631431560E+10,      /* J = 11 */
(PID.TID 0000.0001)                 8.254500894894537E+10,      /* J = 12 */
(PID.TID 0000.0001)                 8.549360686473492E+10,      /* J = 13 */
(PID.TID 0000.0001)                 8.781353403175085E+10,      /* J = 14 */
(PID.TID 0000.0001)                 8.948571540392021E+10,      /* J = 15 */
(PID.TID 0000.0001)                 9.049530583086168E+10,      /* J = 16 */
(PID.TID 0000.0001)                 9.083293515008307E+10,      /* J = 17 */
(PID.TID 0000.0001)                 9.049530583087070E+10,      /* J = 18 */
(PID.TID 0000.0001)                 8.948571540391121E+10,      /* J = 19 */
(PID.TID 0000.0001)                 8.781353403174185E+10,      /* J = 20 */
(PID.TID 0000.0001)                 8.549360686467184E+10,      /* J = 21 */
(PID.TID 0000.0001)                 8.254500894890933E+10,      /* J = 22 */
(PID.TID 0000.0001)                 7.898934631434262E+10,      /* J = 23 */
(PID.TID 0000.0001)                 7.484854821844795E+10,      /* J = 24 */
(PID.TID 0000.0001)                 7.014205907742783E+10,      /* J = 25 */
(PID.TID 0000.0001)                 6.488320895111514E+10,      /* J = 26 */
(PID.TID 0000.0001)                 5.907428494299063E+10,      /* J = 27 */
(PID.TID 0000.0001)                 5.269930713599078E+10,      /* J = 28 */
(PID.TID 0000.0001)                 4.571243814190767E+10,      /* J = 29 */
(PID.TID 0000.0001)                 3.801790263325260E+10,      /* J = 30 */
(PID.TID 0000.0001)                 2.943712825251114E+10,      /* J = 31 */
(PID.TID 0000.0001)                 1.974052138509018E+10       /* J = 32 */
(PID.TID 0000.0001)     ;
(PID.TID 0000.0001) globalArea = /* Integrated horizontal Area (m^2) */
(PID.TID 0000.0001)                 3.638867375081598E+14
(PID.TID 0000.0001)     ;
(PID.TID 0000.0001) hasWetCSCorners = /* Domain contains CS corners (True/False) */
(PID.TID 0000.0001)                   T
(PID.TID 0000.0001)     ;
(PID.TID 0000.0001) // =======================================================
(PID.TID 0000.0001) // End of Model config. summary
(PID.TID 0000.0001) // =======================================================
(PID.TID 0000.0001) 
(PID.TID 0000.0001) == Packages configuration : Check & print summary ==
(PID.TID 0000.0001) 
(PID.TID 0000.0001) GMREDI_CHECK: #define GMREDI
(PID.TID 0000.0001) GM_AdvForm =     /* if FALSE => use SkewFlux Form */
(PID.TID 0000.0001)                   F
(PID.TID 0000.0001)     ;
(PID.TID 0000.0001) GM_InMomAsStress = /* if TRUE => apply as Eddy Stress */
(PID.TID 0000.0001)                   F
(PID.TID 0000.0001)     ;
(PID.TID 0000.0001) GM_AdvSeparate = /* Calc Bolus & Euler Adv. separately */
(PID.TID 0000.0001)                   F
(PID.TID 0000.0001)     ;
(PID.TID 0000.0001) GM_ExtraDiag =   /* Tensor Extra Diag (line 1&2) non 0 */
(PID.TID 0000.0001)                   F
(PID.TID 0000.0001)     ;
(PID.TID 0000.0001) GM_isopycK =    /* Background Isopyc. Diffusivity [m^2/s] */
(PID.TID 0000.0001)                 8.000000000000000E+02
(PID.TID 0000.0001)     ;
(PID.TID 0000.0001) GM_skewflx*K =  /* Background GM_SkewFlx Diffusivity [m^2/s] */
(PID.TID 0000.0001)                 8.000000000000000E+02
(PID.TID 0000.0001)     ;
(PID.TID 0000.0001) GM_advec*K =    /* Backg. GM-Advec(=Bolus) Diffusivity [m^2/s]*/
(PID.TID 0000.0001)                 0.000000000000000E+00
(PID.TID 0000.0001)     ;
(PID.TID 0000.0001) GM_Kmin_horiz = /* Minimum Horizontal Diffusivity [m^2/s] */
(PID.TID 0000.0001)                 5.000000000000000E+01
(PID.TID 0000.0001)     ;
(PID.TID 0000.0001) GM_Visbeck_alpha = /* Visbeck alpha coeff. [-] */
(PID.TID 0000.0001)                 0.000000000000000E+00
(PID.TID 0000.0001)     ;
(PID.TID 0000.0001) GM_Small_Number =  /* epsilon used in slope calc */
(PID.TID 0000.0001)                 9.999999999999999E-21
(PID.TID 0000.0001)     ;
(PID.TID 0000.0001) GM_slopeSqCutoff = /* Slope^2 cut-off value */
(PID.TID 0000.0001)                 1.000000000000000E+48
(PID.TID 0000.0001)     ;
(PID.TID 0000.0001) GM_taper_scheme =  /* Type of Tapering/Clipping scheme */
(PID.TID 0000.0001)               'gkw91                                   '
(PID.TID 0000.0001)     ;
(PID.TID 0000.0001) GM_maxSlope =  /* Maximum Slope (Tapering/Clipping) */
(PID.TID 0000.0001)                 1.000000000000000E-02
(PID.TID 0000.0001)     ;
(PID.TID 0000.0001) GM_facTrL2dz = /* Minimum Trans.Layer Thick. (factor of dz) */
(PID.TID 0000.0001)                 1.000000000000000E+00
(PID.TID 0000.0001)     ;
(PID.TID 0000.0001) GM_facTrL2ML = /* Max.Trans.Layer Thick. (factor of MxL Depth)*/
(PID.TID 0000.0001)                 5.000000000000000E+00
(PID.TID 0000.0001)     ;
(PID.TID 0000.0001) GM_maxTransLay = /* Maximum Transition Layer Thickness [m] */
(PID.TID 0000.0001)                 5.000000000000000E+02
(PID.TID 0000.0001)     ;
(PID.TID 0000.0001) GM_UseBVP = /* if TRUE => use bvp a la Ferrari et al. (2010) */
(PID.TID 0000.0001)                   F
(PID.TID 0000.0001)     ;
(PID.TID 0000.0001) GM_BVP_ModeNumber = /* Vertical mode number for BVP wave speed */
(PID.TID 0000.0001)                       1
(PID.TID 0000.0001)     ;
(PID.TID 0000.0001) GM_BVP_cMin = /* Minimum wave speed for BVP [m/s] */
(PID.TID 0000.0001)                 1.000000000000000E-01
(PID.TID 0000.0001)     ;
(PID.TID 0000.0001) GM_useSubMeso = /* if TRUE => use Sub-Meso param. (B.Fox-Kemper) */
(PID.TID 0000.0001)                   F
(PID.TID 0000.0001)     ;
(PID.TID 0000.0001) subMeso_Ceff = /* efficiency coeff. of Mixed-Layer Eddies [-] */
(PID.TID 0000.0001)                 7.000000000000001E-02
(PID.TID 0000.0001)     ;
(PID.TID 0000.0001) subMeso_invTau = /* inverse of Sub-Meso mixing time-scale [/s] */
(PID.TID 0000.0001)                 2.000000000000000E-06
(PID.TID 0000.0001)     ;
(PID.TID 0000.0001) subMeso_LfMin = /* minimum length-scale "Lf" [m] */
(PID.TID 0000.0001)                 1.000000000000000E+03
(PID.TID 0000.0001)     ;
(PID.TID 0000.0001) subMeso_Lmax = /* maximum grid-scale length [m] */
(PID.TID 0000.0001)                 1.100000000000000E+05
(PID.TID 0000.0001)     ;
(PID.TID 0000.0001) GAD_CHECK: #define ALLOW_GENERIC_ADVDIFF
(PID.TID 0000.0001) // =======================================================
(PID.TID 0000.0001) // Check Model config. (CONFIG_CHECK):
(PID.TID 0000.0001) // CONFIG_CHECK : Normal End
(PID.TID 0000.0001) // =======================================================
(PID.TID 0000.0001) 
(PID.TID 0000.0001)  MDS_READ_META: opening file: pickup.0000072000.meta
(PID.TID 0000.0001)  nRecords = 123 ; filePrec =  64 ; fileIter =     72000
(PID.TID 0000.0001)     nDims =   2 , dims:
(PID.TID 0000.0001)    1: 192   1 192
(PID.TID 0000.0001)    2:  32   1  32
(PID.TID 0000.0001)     nFlds =  11 , nFl3D =   8 , fields:
(PID.TID 0000.0001)  >Uvel    < >GuNm1   < >Vvel    < >GvNm1   < >Theta   < >GtNm1   < >Salt    < >GsNm1   < >EtaN    < >dEtaHdt < >EtaH    <
(PID.TID 0000.0001) missingVal=  1.00000000000000E+00 ; nTimRec =   0 , timeList:
(PID.TID 0000.0001) READ_MFLDS_3D_RL: read field: "Uvel    ", #   1 in fldList, rec=   1
(PID.TID 0000.0001)  MDS_READ_FIELD: opening global file: pickup.0000072000
(PID.TID 0000.0001) READ_MFLDS_3D_RL: read field: "Vvel    ", #   3 in fldList, rec=   3
(PID.TID 0000.0001)  MDS_READ_FIELD: opening global file: pickup.0000072000
(PID.TID 0000.0001) READ_MFLDS_3D_RL: read field: "Theta   ", #   5 in fldList, rec=   5
(PID.TID 0000.0001)  MDS_READ_FIELD: opening global file: pickup.0000072000
(PID.TID 0000.0001) READ_MFLDS_3D_RL: read field: "Salt    ", #   7 in fldList, rec=   7
(PID.TID 0000.0001)  MDS_READ_FIELD: opening global file: pickup.0000072000
(PID.TID 0000.0001) READ_MFLDS_3D_RL: read field: "GuNm1   ", #   2 in fldList, rec=   2
(PID.TID 0000.0001)  MDS_READ_FIELD: opening global file: pickup.0000072000
(PID.TID 0000.0001) READ_MFLDS_3D_RL: read field: "GvNm1   ", #   4 in fldList, rec=   4
(PID.TID 0000.0001)  MDS_READ_FIELD: opening global file: pickup.0000072000
(PID.TID 0000.0001) READ_MFLDS_3D_RL: read field: "GtNm1   ", #   6 in fldList, rec=   6
(PID.TID 0000.0001)  MDS_READ_FIELD: opening global file: pickup.0000072000
(PID.TID 0000.0001) READ_MFLDS_3D_RL: read field: "GsNm1   ", #   8 in fldList, rec=   8
(PID.TID 0000.0001)  MDS_READ_FIELD: opening global file: pickup.0000072000
(PID.TID 0000.0001) READ_MFLDS_3D_RL: read field: "EtaN    ", #   9 in fldList, rec= 121
(PID.TID 0000.0001)  MDS_READ_FIELD: opening global file: pickup.0000072000
(PID.TID 0000.0001) READ_MFLDS_3D_RL: read field: "dEtaHdt ", #  10 in fldList, rec= 122
(PID.TID 0000.0001)  MDS_READ_FIELD: opening global file: pickup.0000072000
(PID.TID 0000.0001) READ_MFLDS_3D_RL: read field: "EtaH    ", #  11 in fldList, rec= 123
(PID.TID 0000.0001)  MDS_READ_FIELD: opening global file: pickup.0000072000
(PID.TID 0000.0001) READ_MFLDS_CHECK: - normal end ; reset MFLDS file-name: pickup.0000072000
(PID.TID 0000.0001)  write diagnostics summary to file ioUnit:     36
Iter.Nb:     72000 ; Time(s):  6.4800000000000E+07
------------------------------------------------------------------------
2D/3D diagnostics: Number of lists:    10
------------------------------------------------------------------------
listId=    1 ; file name: oceTAUX
 nFlds, nActive,       freq     &     phase        , nLev               
    1  |    1  |     -3600.000000      1800.000000 |   1
 levels:   1
 diag# | name   |   ipt  |  iMate | kLev|   count |   mate.C|           
    81 |oceTAUX |      1 |      2 |   1 |       0 |       0 |
------------------------------------------------------------------------
listId=    2 ; file name: oceTAUY
 nFlds, nActive,       freq     &     phase        , nLev               
    1  |    1  |     -3600.000000      1800.000000 |   1
 levels:   1
 diag# | name   |   ipt  |  iMate | kLev|   count |   mate.C|           
    82 |oceTAUY |      2 |      1 |   1 |       0 |       0 |
------------------------------------------------------------------------
listId=    3 ; file name: oceFWflx
 nFlds, nActive,       freq     &     phase        , nLev               
    1  |    1  |     -3600.000000      1800.000000 |   1
 levels:   1
 diag# | name   |   ipt  |  iMate | kLev|   count |   mate.C|           
    85 |oceFWflx|      3 |      0 |   1 |       0 |
------------------------------------------------------------------------
listId=    4 ; file name: oceSflux
 nFlds, nActive,       freq     &     phase        , nLev               
    1  |    1  |     -3600.000000      1800.000000 |   1
 levels:   1
 diag# | name   |   ipt  |  iMate | kLev|   count |   mate.C|           
    86 |oceSflux|      4 |      0 |   1 |       0 |
------------------------------------------------------------------------
listId=    5 ; file name: oceQnet
 nFlds, nActive,       freq     &     phase        , nLev               
    1  |    1  |     -3600.000000      1800.000000 |   1
 levels:   1
 diag# | name   |   ipt  |  iMate | kLev|   count |   mate.C|           
    87 |oceQnet |      5 |      0 |   1 |       0 |
------------------------------------------------------------------------
listId=    6 ; file name: oceQsw
 nFlds, nActive,       freq     &     phase        , nLev               
    1  |    1  |     -3600.000000      1800.000000 |   1
 levels:   1
 diag# | name   |   ipt  |  iMate | kLev|   count |   mate.C|           
    88 |oceQsw  |      6 |      0 |   1 |       0 |
------------------------------------------------------------------------
listId=    7 ; file name: SSS
 nFlds, nActive,       freq     &     phase        , nLev               
    1  |    1  |     -3600.000000      1800.000000 |   1
 levels:   1
 diag# | name   |   ipt  |  iMate | kLev|   count |   mate.C|           
    27 |SALT    |      7 |      0 |  15 |       0 |
------------------------------------------------------------------------
listId=    8 ; file name: SST
 nFlds, nActive,       freq     &     phase        , nLev               
    1  |    1  |     -3600.000000      1800.000000 |   1
 levels:   1
 diag# | name   |   ipt  |  iMate | kLev|   count |   mate.C|           
    26 |THETA   |     22 |      0 |  15 |       0 |
------------------------------------------------------------------------
listId=    9 ; file name: UVEL1
 nFlds, nActive,       freq     &     phase        , nLev               
    1  |    1  |     -3600.000000      1800.000000 |   1
 levels:   1
 diag# | name   |   ipt  |  iMate | kLev|   count |   mate.C|           
    45 |UVELMASS|     37 |     52 |  15 |       0 |       0 |
------------------------------------------------------------------------
listId=   10 ; file name: VVEL1
 nFlds, nActive,       freq     &     phase        , nLev               
    1  |    1  |     -3600.000000      1800.000000 |   1
 levels:   1
 diag# | name   |   ipt  |  iMate | kLev|   count |   mate.C|           
    46 |VVELMASS|     52 |     37 |  15 |       0 |       0 |
------------------------------------------------------------------------
Global & Regional Statistics diagnostics: Number of lists:     0
------------------------------------------------------------------------
(PID.TID 0000.0001) // =======================================================
(PID.TID 0000.0001) // Model current state
(PID.TID 0000.0001) // =======================================================
(PID.TID 0000.0001) 
(PID.TID 0000.0001) // =======================================================
(PID.TID 0000.0001) // Begin MONITOR dynamic field statistics
(PID.TID 0000.0001) // =======================================================
(PID.TID 0000.0001) %MON time_tsnumber                =                 72000
(PID.TID 0000.0001) %MON time_secondsf                =   6.4800000000000E+07
(PID.TID 0000.0001) %MON dynstat_eta_max              =   9.2249308874653E-01
(PID.TID 0000.0001) %MON dynstat_eta_min              =  -1.6181619580030E+00
(PID.TID 0000.0001) %MON dynstat_eta_mean             =   1.4427566214562E-14
(PID.TID 0000.0001) %MON dynstat_eta_sd               =   5.9907976973986E-01
(PID.TID 0000.0001) %MON dynstat_eta_del2             =   7.8581345364806E-04
(PID.TID 0000.0001) %MON dynstat_uvel_max             =   1.8639442347386E-01
(PID.TID 0000.0001) %MON dynstat_uvel_min             =  -2.8803502100767E-01
(PID.TID 0000.0001) %MON dynstat_uvel_mean            =  -4.8914430325890E-04
(PID.TID 0000.0001) %MON dynstat_uvel_sd              =   1.2021379389426E-02
(PID.TID 0000.0001) %MON dynstat_uvel_del2            =   5.1214215649781E-05
(PID.TID 0000.0001) %MON dynstat_vvel_max             =   1.7346247050018E-01
(PID.TID 0000.0001) %MON dynstat_vvel_min             =  -2.2519444280963E-01
(PID.TID 0000.0001) %MON dynstat_vvel_mean            =  -4.0398186384005E-04
(PID.TID 0000.0001) %MON dynstat_vvel_sd              =   1.2638380334010E-02
(PID.TID 0000.0001) %MON dynstat_vvel_del2            =   5.0639130168720E-05
(PID.TID 0000.0001) %MON dynstat_wvel_max             =   1.0315548206230E-04
(PID.TID 0000.0001) %MON dynstat_wvel_min             =  -2.0412092606640E-04
(PID.TID 0000.0001) %MON dynstat_wvel_mean            =   1.3594270097552E-10
(PID.TID 0000.0001) %MON dynstat_wvel_sd              =   3.8382293649569E-06
(PID.TID 0000.0001) %MON dynstat_wvel_del2            =   2.6457320450043E-08
(PID.TID 0000.0001) %MON dynstat_theta_max            =   3.0925958904704E+01
(PID.TID 0000.0001) %MON dynstat_theta_min            =  -3.0175293673864E+00
(PID.TID 0000.0001) %MON dynstat_theta_mean           =   3.9091304559860E+00
(PID.TID 0000.0001) %MON dynstat_theta_sd             =   4.5711443147581E+00
(PID.TID 0000.0001) %MON dynstat_theta_del2           =   2.6590891135791E-03
(PID.TID 0000.0001) %MON dynstat_salt_max             =   4.1386265990462E+01
(PID.TID 0000.0001) %MON dynstat_salt_min             =   1.8383410676806E+01
(PID.TID 0000.0001) %MON dynstat_salt_mean            =   3.4772068623474E+01
(PID.TID 0000.0001) %MON dynstat_salt_sd              =   5.3145226117181E-01
(PID.TID 0000.0001) %MON dynstat_salt_del2            =   8.0693627005698E-04
(PID.TID 0000.0001) %MON dynstat_sst_max              =   3.0925958904704E+01
(PID.TID 0000.0001) %MON dynstat_sst_min              =  -1.9648692042086E+00
(PID.TID 0000.0001) %MON dynstat_sst_mean             =   1.8113137824165E+01
(PID.TID 0000.0001) %MON dynstat_sst_sd               =   9.7982972159706E+00
(PID.TID 0000.0001) %MON dynstat_sst_del2             =   1.5454157826167E-02
(PID.TID 0000.0001) %MON dynstat_sss_max              =   4.1386265990462E+01
(PID.TID 0000.0001) %MON dynstat_sss_min              =   1.8383410676806E+01
(PID.TID 0000.0001) %MON dynstat_sss_mean             =   3.4632078412677E+01
(PID.TID 0000.0001) %MON dynstat_sss_sd               =   1.4684189495322E+00
(PID.TID 0000.0001) %MON dynstat_sss_del2             =   8.0812048509615E-03
(PID.TID 0000.0001) %MON forcing_qnet_max             =   0.0000000000000E+00
(PID.TID 0000.0001) %MON forcing_qnet_min             =   0.0000000000000E+00
(PID.TID 0000.0001) %MON forcing_qnet_mean            =   0.0000000000000E+00
(PID.TID 0000.0001) %MON forcing_qnet_sd              =   0.0000000000000E+00
(PID.TID 0000.0001) %MON forcing_qnet_del2            =   0.0000000000000E+00
(PID.TID 0000.0001) %MON forcing_qsw_max              =   0.0000000000000E+00
(PID.TID 0000.0001) %MON forcing_qsw_min              =   0.0000000000000E+00
(PID.TID 0000.0001) %MON forcing_qsw_mean             =   0.0000000000000E+00
(PID.TID 0000.0001) %MON forcing_qsw_sd               =   0.0000000000000E+00
(PID.TID 0000.0001) %MON forcing_qsw_del2             =   0.0000000000000E+00
(PID.TID 0000.0001) %MON forcing_empmr_max            =   0.0000000000000E+00
(PID.TID 0000.0001) %MON forcing_empmr_min            =   0.0000000000000E+00
(PID.TID 0000.0001) %MON forcing_empmr_mean           =   0.0000000000000E+00
(PID.TID 0000.0001) %MON forcing_empmr_sd             =   0.0000000000000E+00
(PID.TID 0000.0001) %MON forcing_empmr_del2           =   0.0000000000000E+00
(PID.TID 0000.0001) %MON forcing_fu_max               =   0.0000000000000E+00
(PID.TID 0000.0001) %MON forcing_fu_min               =   0.0000000000000E+00
(PID.TID 0000.0001) %MON forcing_fu_mean              =   0.0000000000000E+00
(PID.TID 0000.0001) %MON forcing_fu_sd                =   0.0000000000000E+00
(PID.TID 0000.0001) %MON forcing_fu_del2              =   0.0000000000000E+00
(PID.TID 0000.0001) %MON forcing_fv_max               =   0.0000000000000E+00
(PID.TID 0000.0001) %MON forcing_fv_min               =   0.0000000000000E+00
(PID.TID 0000.0001) %MON forcing_fv_mean              =   0.0000000000000E+00
(PID.TID 0000.0001) %MON forcing_fv_sd                =   0.0000000000000E+00
(PID.TID 0000.0001) %MON forcing_fv_del2              =   0.0000000000000E+00
(PID.TID 0000.0001) %MON trAdv_CFL_u_max              =   0.0000000000000E+00
(PID.TID 0000.0001) %MON trAdv_CFL_v_max              =   0.0000000000000E+00
(PID.TID 0000.0001) %MON trAdv_CFL_w_max              =   0.0000000000000E+00
(PID.TID 0000.0001) %MON advcfl_uvel_max              =   8.5096037087284E-04
(PID.TID 0000.0001) %MON advcfl_vvel_max              =   7.8760257411030E-04
(PID.TID 0000.0001) %MON advcfl_wvel_max              =   6.9324088098023E-04
(PID.TID 0000.0001) %MON advcfl_W_hf_max              =   7.6573916672744E-04
(PID.TID 0000.0001) %MON pe_b_mean                    =   4.7811655460464E-04
(PID.TID 0000.0001) %MON ke_max                       =   4.0700637549387E-02
(PID.TID 0000.0001) %MON ke_mean                      =   1.4067882101803E-04
(PID.TID 0000.0001) %MON ke_vol                       =   1.3398024453628E+18
(PID.TID 0000.0001) %MON vort_r_min                   =  -1.1843904755479E-06
(PID.TID 0000.0001) %MON vort_r_max                   =   1.2148454936551E-06
(PID.TID 0000.0001) %MON vort_a_mean                  =  -2.0549865324846E-05
(PID.TID 0000.0001) %MON vort_a_sd                    =   7.5259517155846E-05
(PID.TID 0000.0001) %MON vort_p_mean                  =  -2.4783469227166E-05
(PID.TID 0000.0001) %MON vort_p_sd                    =   1.2812074522595E-04
(PID.TID 0000.0001) %MON surfExpan_theta_mean         =  -3.8378290301302E-07
(PID.TID 0000.0001) %MON surfExpan_salt_mean          =  -1.6258537219558E-07
(PID.TID 0000.0001) // =======================================================
(PID.TID 0000.0001) // End MONITOR dynamic field statistics
(PID.TID 0000.0001) // =======================================================
(PID.TID 0000.0001) SOLVE_FOR_PRESSURE: putPmEinXvector =    F
(PID.TID 0000.0001) SOLVE_FOR_PRESSURE: zeroPsNH=    F , zeroMeanPnh=    F
(PID.TID 0000.0001) SOLVE_FOR_PRESSURE: oldFreeSurfTerm =    F
 cg2d: Sum(rhs),rhsMax =  -4.15126972421483E+00  1.71157429113535E+02
(PID.TID 0000.0001)      cg2d_init_res =   1.82627585460505E+00
(PID.TID 0000.0001)      cg2d_iters(min,last) =      -1       9
(PID.TID 0000.0001)      cg2d_last_res =   5.39594940391086E-08
(PID.TID 0000.0001) // =======================================================
(PID.TID 0000.0001) // Begin MONITOR dynamic field statistics
(PID.TID 0000.0001) // =======================================================
(PID.TID 0000.0001) %MON time_tsnumber                =                 72001
(PID.TID 0000.0001) %MON time_secondsf                =   6.4800900000000E+07
(PID.TID 0000.0001) %MON dynstat_eta_max              =   8.2753244725721E+00
(PID.TID 0000.0001) %MON dynstat_eta_min              =  -1.7013070796091E+00
(PID.TID 0000.0001) %MON dynstat_eta_mean             =   8.2561558000868E-03
(PID.TID 0000.0001) %MON dynstat_eta_sd               =   6.4410930847720E-01
(PID.TID 0000.0001) %MON dynstat_eta_del2             =   7.8581005004380E-03
(PID.TID 0000.0001) %MON dynstat_uvel_max             =   3.2763422327687E-01
(PID.TID 0000.0001) %MON dynstat_uvel_min             =  -2.8705232108218E-01
(PID.TID 0000.0001) %MON dynstat_uvel_mean            =  -4.7496571229811E-04
(PID.TID 0000.0001) %MON dynstat_uvel_sd              =   1.2102415428580E-02
(PID.TID 0000.0001) %MON dynstat_uvel_del2            =   5.7501560557690E-05
(PID.TID 0000.0001) %MON dynstat_vvel_max             =   2.5891755565103E-01
(PID.TID 0000.0001) %MON dynstat_vvel_min             =  -2.6145120237153E-01
(PID.TID 0000.0001) %MON dynstat_vvel_mean            =  -3.9526146642890E-04
(PID.TID 0000.0001) %MON dynstat_vvel_sd              =   1.2717102202238E-02
(PID.TID 0000.0001) %MON dynstat_vvel_del2            =   6.3785277154342E-05
(PID.TID 0000.0001) %MON dynstat_wvel_max             =   1.2092768858020E-03
(PID.TID 0000.0001) %MON dynstat_wvel_min             =  -9.5244762402226E-03
(PID.TID 0000.0001) %MON dynstat_wvel_mean            =  -1.9689892468666E-07
(PID.TID 0000.0001) %MON dynstat_wvel_sd              =   3.1998761943395E-05
(PID.TID 0000.0001) %MON dynstat_wvel_del2            =   7.8903316797806E-07
(PID.TID 0000.0001) %MON dynstat_theta_max            =   3.0925747382661E+01
(PID.TID 0000.0001) %MON dynstat_theta_min            =  -3.0174062026806E+00
(PID.TID 0000.0001) %MON dynstat_theta_mean           =   3.9089288321542E+00
(PID.TID 0000.0001) %MON dynstat_theta_sd             =   4.5705892597673E+00
(PID.TID 0000.0001) %MON dynstat_theta_del2           =   2.6547427037770E-03
(PID.TID 0000.0001) %MON dynstat_salt_max             =   4.1379252577003E+01
(PID.TID 0000.0001) %MON dynstat_salt_min             =   1.8518388103661E+01
(PID.TID 0000.0001) %MON dynstat_salt_mean            =   3.4772204715250E+01
(PID.TID 0000.0001) %MON dynstat_salt_sd              =   5.3093678590698E-01
(PID.TID 0000.0001) %MON dynstat_salt_del2            =   8.0227879090493E-04
(PID.TID 0000.0001) %MON dynstat_sst_max              =   3.0925747382661E+01
(PID.TID 0000.0001) %MON dynstat_sst_min              =  -1.8999508964327E+00
(PID.TID 0000.0001) %MON dynstat_sst_mean             =   1.8098845145577E+01
(PID.TID 0000.0001) %MON dynstat_sst_sd               =   9.8006375716993E+00
(PID.TID 0000.0001) %MON dynstat_sst_del2             =   1.5358901798922E-02
(PID.TID 0000.0001) %MON dynstat_sss_max              =   4.1379252577003E+01
(PID.TID 0000.0001) %MON dynstat_sss_min              =   1.8738343205356E+01
(PID.TID 0000.0001) %MON dynstat_sss_mean             =   3.4642173194720E+01
(PID.TID 0000.0001) %MON dynstat_sss_sd               =   1.4555462186454E+00
(PID.TID 0000.0001) %MON dynstat_sss_del2             =   8.0099761648954E-03
(PID.TID 0000.0001) %MON forcing_qnet_max             =   3.7691018750000E+05
(PID.TID 0000.0001) %MON forcing_qnet_min             =  -8.4035984375000E+04
(PID.TID 0000.0001) %MON forcing_qnet_mean            =   3.5056247292586E+03
(PID.TID 0000.0001) %MON forcing_qnet_sd              =   1.3698841904289E+04
(PID.TID 0000.0001) %MON forcing_qnet_del2            =   3.4117769822658E+02
(PID.TID 0000.0001) %MON forcing_qsw_max              =   0.0000000000000E+00
(PID.TID 0000.0001) %MON forcing_qsw_min              =   0.0000000000000E+00
(PID.TID 0000.0001) %MON forcing_qsw_mean             =   0.0000000000000E+00
(PID.TID 0000.0001) %MON forcing_qsw_sd               =   0.0000000000000E+00
(PID.TID 0000.0001) %MON forcing_qsw_del2             =   0.0000000000000E+00
(PID.TID 0000.0001) %MON forcing_empmr_max            =   1.2516015768051E+00
(PID.TID 0000.0001) %MON forcing_empmr_min            =  -9.8578329086304E+00
(PID.TID 0000.0001) %MON forcing_empmr_mean           =  -9.4945791700832E-03
(PID.TID 0000.0001) %MON forcing_empmr_sd             =   2.8328330039356E-01
(PID.TID 0000.0001) %MON forcing_empmr_del2           =   9.3820529765221E-03
(PID.TID 0000.0001) %MON forcing_fu_max               =   5.0392210567106E-01
(PID.TID 0000.0001) %MON forcing_fu_min               =  -4.7699374024704E-01
(PID.TID 0000.0001) %MON forcing_fu_mean              =  -5.5711428964236E-03
(PID.TID 0000.0001) %MON forcing_fu_sd                =   7.3476098963950E-02
(PID.TID 0000.0001) %MON forcing_fu_del2              =   7.3868186675349E-04
(PID.TID 0000.0001) %MON forcing_fv_max               =   2.7800065561017E-01
(PID.TID 0000.0001) %MON forcing_fv_min               =  -5.2741223474423E-01
(PID.TID 0000.0001) %MON forcing_fv_mean              =  -1.4702748093704E-02
(PID.TID 0000.0001) %MON forcing_fv_sd                =   6.9016371332726E-02
(PID.TID 0000.0001) %MON forcing_fv_del2              =   6.1298207029234E-04
(PID.TID 0000.0001) %MON trAdv_CFL_u_max              =   1.1280671898486E-03
(PID.TID 0000.0001) %MON trAdv_CFL_v_max              =   1.5079035954867E-03
(PID.TID 0000.0001) %MON trAdv_CFL_w_max              =   1.0966523546382E-01
(PID.TID 0000.0001) %MON advcfl_uvel_max              =   1.1495867962370E-03
(PID.TID 0000.0001) %MON advcfl_vvel_max              =   8.4494242950943E-04
(PID.TID 0000.0001) %MON advcfl_wvel_max              =   3.4288114464801E-01
(PID.TID 0000.0001) %MON advcfl_W_hf_max              =   1.1442962541408E-01
(PID.TID 0000.0001) %MON pe_b_mean                    =   5.5278337408776E-04
(PID.TID 0000.0001) %MON ke_max                       =   5.0286487221602E-02
(PID.TID 0000.0001) %MON ke_mean                      =   1.4249306668553E-04
(PID.TID 0000.0001) %MON ke_vol                       =   1.3398024453628E+18
(PID.TID 0000.0001) %MON vort_r_min                   =  -1.1879226308121E-06
(PID.TID 0000.0001) %MON vort_r_max                   =   1.2254810932265E-06
(PID.TID 0000.0001) %MON vort_a_mean                  =  -2.0549865324846E-05
(PID.TID 0000.0001) %MON vort_a_sd                    =   7.5259518451153E-05
(PID.TID 0000.0001) %MON vort_p_mean                  =  -2.4783469220072E-05
(PID.TID 0000.0001) %MON vort_p_sd                    =   1.2812073553192E-04
(PID.TID 0000.0001) %MON surfExpan_theta_mean         =  -3.9146072239939E-07
(PID.TID 0000.0001) %MON surfExpan_salt_mean          =   9.7057909263093E-07
(PID.TID 0000.0001) // =======================================================
(PID.TID 0000.0001) // End MONITOR dynamic field statistics
(PID.TID 0000.0001) // =======================================================
 cg2d: Sum(rhs),rhsMax =  -4.48997703530918E+00  1.77239126918986E+02
(PID.TID 0000.0001)      cg2d_init_res =   1.49769173527246E-01
(PID.TID 0000.0001)      cg2d_iters(min,last) =      -1       9
(PID.TID 0000.0001)      cg2d_last_res =   4.10181038029343E-08
(PID.TID 0000.0001) // =======================================================
(PID.TID 0000.0001) // Begin MONITOR dynamic field statistics
(PID.TID 0000.0001) // =======================================================
(PID.TID 0000.0001) %MON time_tsnumber                =                 72002
(PID.TID 0000.0001) %MON time_secondsf                =   6.4801800000000E+07
(PID.TID 0000.0001) %MON dynstat_eta_max              =   8.2923996805939E+00
(PID.TID 0000.0001) %MON dynstat_eta_min              =  -1.6611589230631E+00
(PID.TID 0000.0001) %MON dynstat_eta_mean             =   9.2470859641429E-03
(PID.TID 0000.0001) %MON dynstat_eta_sd               =   6.4477104052440E-01
(PID.TID 0000.0001) %MON dynstat_eta_del2             =   7.7938040675486E-03
(PID.TID 0000.0001) %MON dynstat_uvel_max             =   5.7139183817830E-01
(PID.TID 0000.0001) %MON dynstat_uvel_min             =  -3.7374632926467E-01
(PID.TID 0000.0001) %MON dynstat_uvel_mean            =  -4.5491698365986E-04
(PID.TID 0000.0001) %MON dynstat_uvel_sd              =   1.2337796805959E-02
(PID.TID 0000.0001) %MON dynstat_uvel_del2            =   7.2187929455737E-05
(PID.TID 0000.0001) %MON dynstat_vvel_max             =   4.9621727826172E-01
(PID.TID 0000.0001) %MON dynstat_vvel_min             =  -4.9670063100047E-01
(PID.TID 0000.0001) %MON dynstat_vvel_mean            =  -3.8714262909809E-04
(PID.TID 0000.0001) %MON dynstat_vvel_sd              =   1.2950763206827E-02
(PID.TID 0000.0001) %MON dynstat_vvel_del2            =   9.1295329731947E-05
(PID.TID 0000.0001) %MON dynstat_wvel_max             =   1.0346872174645E-04
(PID.TID 0000.0001) %MON dynstat_wvel_min             =  -9.6356765083645E-04
(PID.TID 0000.0001) %MON dynstat_wvel_mean            =  -1.7082337421302E-07
(PID.TID 0000.0001) %MON dynstat_wvel_sd              =   8.6985887150686E-06
(PID.TID 0000.0001) %MON dynstat_wvel_del2            =   1.0410048468523E-07
(PID.TID 0000.0001) %MON dynstat_theta_max            =   3.0925531634208E+01
(PID.TID 0000.0001) %MON dynstat_theta_min            =  -3.0169870925215E+00
(PID.TID 0000.0001) %MON dynstat_theta_mean           =   3.9089324598140E+00
(PID.TID 0000.0001) %MON dynstat_theta_sd             =   4.5706029111554E+00
(PID.TID 0000.0001) %MON dynstat_theta_del2           =   2.6546999373179E-03
(PID.TID 0000.0001) %MON dynstat_salt_max             =   4.1377063719966E+01
(PID.TID 0000.0001) %MON dynstat_salt_min             =   1.8518393949489E+01
(PID.TID 0000.0001) %MON dynstat_salt_mean            =   3.4772194136281E+01
(PID.TID 0000.0001) %MON dynstat_salt_sd              =   5.3093685729413E-01
(PID.TID 0000.0001) %MON dynstat_salt_del2            =   8.0273187622118E-04
(PID.TID 0000.0001) %MON dynstat_sst_max              =   3.0925531634208E+01
(PID.TID 0000.0001) %MON dynstat_sst_min              =  -1.8999086924346E+00
(PID.TID 0000.0001) %MON dynstat_sst_mean             =   1.8099119141528E+01
(PID.TID 0000.0001) %MON dynstat_sst_sd               =   9.8007909540385E+00
(PID.TID 0000.0001) %MON dynstat_sst_del2             =   1.5337705833821E-02
(PID.TID 0000.0001) %MON dynstat_sss_max              =   4.1377063719966E+01
(PID.TID 0000.0001) %MON dynstat_sss_min              =   1.8752704687268E+01
(PID.TID 0000.0001) %MON dynstat_sss_mean             =   3.4641724214055E+01
(PID.TID 0000.0001) %MON dynstat_sss_sd               =   1.4568694220855E+00
(PID.TID 0000.0001) %MON dynstat_sss_del2             =   8.0134138184058E-03
(PID.TID 0000.0001) %MON forcing_qnet_max             =   5.7765531250000E+04
(PID.TID 0000.0001) %MON forcing_qnet_min             =  -2.5628072265625E+04
(PID.TID 0000.0001) %MON forcing_qnet_mean            =  -1.1874467168029E+02
(PID.TID 0000.0001) %MON forcing_qnet_sd              =   1.9839756233091E+03
(PID.TID 0000.0001) %MON forcing_qnet_del2            =   5.8670188787226E+01
(PID.TID 0000.0001) %MON forcing_qsw_max              =   0.0000000000000E+00
(PID.TID 0000.0001) %MON forcing_qsw_min              =   0.0000000000000E+00
(PID.TID 0000.0001) %MON forcing_qsw_mean             =   0.0000000000000E+00
(PID.TID 0000.0001) %MON forcing_qsw_sd               =   0.0000000000000E+00
(PID.TID 0000.0001) %MON forcing_qsw_del2             =   0.0000000000000E+00
(PID.TID 0000.0001) %MON forcing_empmr_max            =   7.8170306980610E-02
(PID.TID 0000.0001) %MON forcing_empmr_min            =  -9.9729251861572E-01
(PID.TID 0000.0001) %MON forcing_empmr_mean           =  -1.1395696886646E-03
(PID.TID 0000.0001) %MON forcing_empmr_sd             =   2.3065872062035E-02
(PID.TID 0000.0001) %MON forcing_empmr_del2           =   8.6787627185616E-04
(PID.TID 0000.0001) %MON forcing_fu_max               =   5.2671822113158E-01
(PID.TID 0000.0001) %MON forcing_fu_min               =  -4.7087058370466E-01
(PID.TID 0000.0001) %MON forcing_fu_mean              =  -5.7914174819620E-03
(PID.TID 0000.0001) %MON forcing_fu_sd                =   7.5189152004915E-02
(PID.TID 0000.0001) %MON forcing_fu_del2              =   7.6052816955380E-04
(PID.TID 0000.0001) %MON forcing_fv_max               =   3.1840050451424E-01
(PID.TID 0000.0001) %MON forcing_fv_min               =  -5.1714301820067E-01
(PID.TID 0000.0001) %MON forcing_fv_mean              =  -1.4433029144091E-02
(PID.TID 0000.0001) %MON forcing_fv_sd                =   7.1694949363215E-02
(PID.TID 0000.0001) %MON forcing_fv_del2              =   6.3018628389929E-04
(PID.TID 0000.0001) %MON trAdv_CFL_u_max              =   1.8246430512812E-03
(PID.TID 0000.0001) %MON trAdv_CFL_v_max              =   2.8636500859293E-03
(PID.TID 0000.0001) %MON trAdv_CFL_w_max              =   1.5827203450427E-02
(PID.TID 0000.0001) %MON advcfl_uvel_max              =   1.9313393542467E-03
(PID.TID 0000.0001) %MON advcfl_vvel_max              =   1.6193379842660E-03
(PID.TID 0000.0001) %MON advcfl_wvel_max              =   3.4688435430112E-02
(PID.TID 0000.0001) %MON advcfl_W_hf_max              =   1.5827203450427E-02
(PID.TID 0000.0001) %MON pe_b_mean                    =   5.5394144968621E-04
(PID.TID 0000.0001) %MON ke_max                       =   1.5978039627431E-01
(PID.TID 0000.0001) %MON ke_mean                      =   1.4790606322595E-04
(PID.TID 0000.0001) %MON ke_vol                       =   1.3398054496684E+18
(PID.TID 0000.0001) %MON vort_r_min                   =  -1.6394452055436E-06
(PID.TID 0000.0001) %MON vort_r_max                   =   1.7132188848189E-06
(PID.TID 0000.0001) %MON vort_a_mean                  =  -2.0549865324846E-05
(PID.TID 0000.0001) %MON vort_a_sd                    =   7.5259520772370E-05
(PID.TID 0000.0001) %MON vort_p_mean                  =  -2.4783431409851E-05
(PID.TID 0000.0001) %MON vort_p_sd                    =   1.2811974235848E-04
(PID.TID 0000.0001) %MON surfExpan_theta_mean         =  -6.1867388625654E-06
(PID.TID 0000.0001) %MON surfExpan_salt_mean          =   6.5608780325710E-07
(PID.TID 0000.0001) // =======================================================
(PID.TID 0000.0001) // End MONITOR dynamic field statistics
(PID.TID 0000.0001) // =======================================================
 cg2d: Sum(rhs),rhsMax =  -4.95216236502243E+00  1.70734557296442E+02
(PID.TID 0000.0001)      cg2d_init_res =   1.95796499354286E-01
(PID.TID 0000.0001)      cg2d_iters(min,last) =      -1       9
(PID.TID 0000.0001)      cg2d_last_res =   4.60774362728284E-08
(PID.TID 0000.0001) // =======================================================
(PID.TID 0000.0001) // Begin MONITOR dynamic field statistics
(PID.TID 0000.0001) // =======================================================
(PID.TID 0000.0001) %MON time_tsnumber                =                 72003
(PID.TID 0000.0001) %MON time_secondsf                =   6.4802700000000E+07
(PID.TID 0000.0001) %MON dynstat_eta_max              =   7.9894059582402E+00
(PID.TID 0000.0001) %MON dynstat_eta_min              =  -1.6205261654999E+00
(PID.TID 0000.0001) %MON dynstat_eta_mean             =   9.8246589047828E-03
(PID.TID 0000.0001) %MON dynstat_eta_sd               =   6.4036448312945E-01
(PID.TID 0000.0001) %MON dynstat_eta_del2             =   7.1430612382946E-03
(PID.TID 0000.0001) %MON dynstat_uvel_max             =   8.2510803362199E-01
(PID.TID 0000.0001) %MON dynstat_uvel_min             =  -4.7288082637210E-01
(PID.TID 0000.0001) %MON dynstat_uvel_mean            =  -4.3049102678772E-04
(PID.TID 0000.0001) %MON dynstat_uvel_sd              =   1.2637886935930E-02
(PID.TID 0000.0001) %MON dynstat_uvel_del2            =   8.8565392353888E-05
(PID.TID 0000.0001) %MON dynstat_vvel_max             =   7.1114589963322E-01
(PID.TID 0000.0001) %MON dynstat_vvel_min             =  -7.1900476134056E-01
(PID.TID 0000.0001) %MON dynstat_vvel_mean            =  -3.8020067322877E-04
(PID.TID 0000.0001) %MON dynstat_vvel_sd              =   1.3236194755660E-02
(PID.TID 0000.0001) %MON dynstat_vvel_del2            =   1.1885768039453E-04
(PID.TID 0000.0001) %MON dynstat_wvel_max             =   1.0359931948193E-04
(PID.TID 0000.0001) %MON dynstat_wvel_min             =  -8.2196860370414E-04
(PID.TID 0000.0001) %MON dynstat_wvel_mean            =  -2.2460008157941E-07
(PID.TID 0000.0001) %MON dynstat_wvel_sd              =   9.6352366477399E-06
(PID.TID 0000.0001) %MON dynstat_wvel_del2            =   9.3070961494310E-08
(PID.TID 0000.0001) %MON dynstat_theta_max            =   3.0925310175903E+01
(PID.TID 0000.0001) %MON dynstat_theta_min            =  -3.0163138768102E+00
(PID.TID 0000.0001) %MON dynstat_theta_mean           =   3.9089445202311E+00
(PID.TID 0000.0001) %MON dynstat_theta_sd             =   4.5706410306572E+00
(PID.TID 0000.0001) %MON dynstat_theta_del2           =   2.6540383849400E-03
(PID.TID 0000.0001) %MON dynstat_salt_max             =   4.1376508805581E+01
(PID.TID 0000.0001) %MON dynstat_salt_min             =   1.8518404077819E+01
(PID.TID 0000.0001) %MON dynstat_salt_mean            =   3.4772185921061E+01
(PID.TID 0000.0001) %MON dynstat_salt_sd              =   5.3094714279278E-01
(PID.TID 0000.0001) %MON dynstat_salt_del2            =   8.0380671528530E-04
(PID.TID 0000.0001) %MON dynstat_sst_max              =   3.0925310175903E+01
(PID.TID 0000.0001) %MON dynstat_sst_min              =  -1.8998676800826E+00
(PID.TID 0000.0001) %MON dynstat_sst_mean             =   1.8099795891556E+01
(PID.TID 0000.0001) %MON dynstat_sst_sd               =   9.8009324162575E+00
(PID.TID 0000.0001) %MON dynstat_sst_del2             =   1.5314891568227E-02
(PID.TID 0000.0001) %MON dynstat_sss_max              =   4.1376508805581E+01
(PID.TID 0000.0001) %MON dynstat_sss_min              =   1.8753325386150E+01
(PID.TID 0000.0001) %MON dynstat_sss_mean             =   3.4641139170225E+01
(PID.TID 0000.0001) %MON dynstat_sss_sd               =   1.4573534397164E+00
(PID.TID 0000.0001) %MON dynstat_sss_del2             =   8.0292420905142E-03
(PID.TID 0000.0001) %MON forcing_qnet_max             =   4.1592980468750E+04
(PID.TID 0000.0001) %MON forcing_qnet_min             =  -1.6906220703125E+04
(PID.TID 0000.0001) %MON forcing_qnet_mean            =  -1.5473534779619E+02
(PID.TID 0000.0001) %MON forcing_qnet_sd              =   1.3970247543033E+03
(PID.TID 0000.0001) %MON forcing_qnet_del2            =   4.9398014763975E+01
(PID.TID 0000.0001) %MON forcing_qsw_max              =   0.0000000000000E+00
(PID.TID 0000.0001) %MON forcing_qsw_min              =   0.0000000000000E+00
(PID.TID 0000.0001) %MON forcing_qsw_mean             =   0.0000000000000E+00
(PID.TID 0000.0001) %MON forcing_qsw_sd               =   0.0000000000000E+00
(PID.TID 0000.0001) %MON forcing_qsw_del2             =   0.0000000000000E+00
(PID.TID 0000.0001) %MON forcing_empmr_max            =   7.5694836676121E-02
(PID.TID 0000.0001) %MON forcing_empmr_min            =  -7.3506230115891E-01
(PID.TID 0000.0001) %MON forcing_empmr_mean           =  -6.6420888173588E-04
(PID.TID 0000.0001) %MON forcing_empmr_sd             =   1.3743091016464E-02
(PID.TID 0000.0001) %MON forcing_empmr_del2           =   5.3521935064101E-04
(PID.TID 0000.0001) %MON forcing_fu_max               =   5.5437868792075E-01
(PID.TID 0000.0001) %MON forcing_fu_min               =  -4.9051829269810E-01
(PID.TID 0000.0001) %MON forcing_fu_mean              =  -5.6820460791676E-03
(PID.TID 0000.0001) %MON forcing_fu_sd                =   7.6283978124238E-02
(PID.TID 0000.0001) %MON forcing_fu_del2              =   7.7240570319029E-04
(PID.TID 0000.0001) %MON forcing_fv_max               =   3.3975742164066E-01
(PID.TID 0000.0001) %MON forcing_fv_min               =  -5.0081419758575E-01
(PID.TID 0000.0001) %MON forcing_fv_mean              =  -1.4036297821665E-02
(PID.TID 0000.0001) %MON forcing_fv_sd                =   7.3149920085575E-02
(PID.TID 0000.0001) %MON forcing_fv_del2              =   6.4673472805922E-04
(PID.TID 0000.0001) %MON trAdv_CFL_u_max              =   2.5788546519649E-03
(PID.TID 0000.0001) %MON trAdv_CFL_v_max              =   4.0594065549353E-03
(PID.TID 0000.0001) %MON trAdv_CFL_w_max              =   1.1423448814960E-02
(PID.TID 0000.0001) %MON advcfl_uvel_max              =   2.7515427391191E-03
(PID.TID 0000.0001) %MON advcfl_vvel_max              =   2.3207284753670E-03
(PID.TID 0000.0001) %MON advcfl_wvel_max              =   2.5567384388136E-02
(PID.TID 0000.0001) %MON advcfl_W_hf_max              =   1.1423448814960E-02
(PID.TID 0000.0001) %MON pe_b_mean                    =   5.4641180022550E-04
(PID.TID 0000.0001) %MON ke_max                       =   3.2621493224605E-01
(PID.TID 0000.0001) %MON ke_mean                      =   1.5480401556651E-04
(PID.TID 0000.0001) %MON ke_vol                       =   1.3398058102547E+18
(PID.TID 0000.0001) %MON vort_r_min                   =  -2.4218015253588E-06
(PID.TID 0000.0001) %MON vort_r_max                   =   2.4457364369200E-06
(PID.TID 0000.0001) %MON vort_a_mean                  =  -2.0549865324846E-05
(PID.TID 0000.0001) %MON vort_a_sd                    =   7.5259523319687E-05
(PID.TID 0000.0001) %MON vort_p_mean                  =  -2.4783425083555E-05
(PID.TID 0000.0001) %MON vort_p_sd                    =   1.2811962718208E-04
(PID.TID 0000.0001) %MON surfExpan_theta_mean         =  -6.7878033701856E-06
(PID.TID 0000.0001) %MON surfExpan_salt_mean          =   7.2158664082979E-07
(PID.TID 0000.0001) // =======================================================
(PID.TID 0000.0001) // End MONITOR dynamic field statistics
(PID.TID 0000.0001) // =======================================================
 Computing Diagnostic #     81  oceTAUX      Counter:       1   Parms: UU      U1      
           Vector  Mate for  oceTAUX      Diagnostic #     82  oceTAUY  exists 
 Computing Diagnostic #     82  oceTAUY      Counter:       1   Parms: VV      U1      
           Vector  Mate for  oceTAUY      Diagnostic #     81  oceTAUX  exists 
 Computing Diagnostic #     85  oceFWflx     Counter:       1   Parms: SM      U1      
 Computing Diagnostic #     86  oceSflux     Counter:       1   Parms: SM      U1      
 Computing Diagnostic #     87  oceQnet      Counter:       1   Parms: SM      U1      
 Computing Diagnostic #     88  oceQsw       Counter:       1   Parms: SM      U1      
 Computing Diagnostic #     27  SALT         Counter:       1   Parms: SMR     MR      
 Computing Diagnostic #     26  THETA        Counter:       1   Parms: SMR     MR      
 Computing Diagnostic #     45  UVELMASS     Counter:       1   Parms: UUr     MR      
           Vector  Mate for  UVELMASS     Diagnostic #     46  VVELMASS exists 
 Computing Diagnostic #     46  VVELMASS     Counter:       1   Parms: VVr     MR      
           Vector  Mate for  VVELMASS     Diagnostic #     45  UVELMASS exists 
 cg2d: Sum(rhs),rhsMax =  -5.51590735631440E+00  1.61497861974426E+02
(PID.TID 0000.0001)      cg2d_init_res =   2.22655176089491E-01
(PID.TID 0000.0001)      cg2d_iters(min,last) =      -1       9
(PID.TID 0000.0001)      cg2d_last_res =   4.88346931275924E-08
(PID.TID 0000.0001) // =======================================================
(PID.TID 0000.0001) // Begin MONITOR dynamic field statistics
(PID.TID 0000.0001) // =======================================================
(PID.TID 0000.0001) %MON time_tsnumber                =                 72004
(PID.TID 0000.0001) %MON time_secondsf                =   6.4803600000000E+07
(PID.TID 0000.0001) %MON dynstat_eta_max              =   7.5595013297572E+00
(PID.TID 0000.0001) %MON dynstat_eta_min              =  -1.6221923155555E+00
(PID.TID 0000.0001) %MON dynstat_eta_mean             =   1.0351062090745E-02
(PID.TID 0000.0001) %MON dynstat_eta_sd               =   6.3556026003964E-01
(PID.TID 0000.0001) %MON dynstat_eta_del2             =   6.3790156336941E-03
(PID.TID 0000.0001) %MON dynstat_uvel_max             =   1.0592074956510E+00
(PID.TID 0000.0001) %MON dynstat_uvel_min             =  -5.6495467376609E-01
(PID.TID 0000.0001) %MON dynstat_uvel_mean            =  -4.0234253029121E-04
(PID.TID 0000.0001) %MON dynstat_uvel_sd              =   1.2939913260090E-02
(PID.TID 0000.0001) %MON dynstat_uvel_del2            =   1.0358276431364E-04
(PID.TID 0000.0001) %MON dynstat_vvel_max             =   8.9811646637204E-01
(PID.TID 0000.0001) %MON dynstat_vvel_min             =  -9.2310434494098E-01
(PID.TID 0000.0001) %MON dynstat_vvel_mean            =  -3.7530653751547E-04
(PID.TID 0000.0001) %MON dynstat_vvel_sd              =   1.3513745147502E-02
(PID.TID 0000.0001) %MON dynstat_vvel_del2            =   1.4238379829667E-04
(PID.TID 0000.0001) %MON dynstat_wvel_max             =   1.0372049209439E-04
(PID.TID 0000.0001) %MON dynstat_wvel_min             =  -8.6329134153697E-04
(PID.TID 0000.0001) %MON dynstat_wvel_mean            =  -2.8618037323493E-07
(PID.TID 0000.0001) %MON dynstat_wvel_sd              =   1.0329108318847E-05
(PID.TID 0000.0001) %MON dynstat_wvel_del2            =   9.4112290745715E-08
(PID.TID 0000.0001) %MON dynstat_theta_max            =   3.0925084085012E+01
(PID.TID 0000.0001) %MON dynstat_theta_min            =  -3.0154699311993E+00
(PID.TID 0000.0001) %MON dynstat_theta_mean           =   3.9089544047323E+00
(PID.TID 0000.0001) %MON dynstat_theta_sd             =   4.5706736352063E+00
(PID.TID 0000.0001) %MON dynstat_theta_del2           =   2.6533358706851E-03
(PID.TID 0000.0001) %MON dynstat_salt_max             =   4.1375918233963E+01
(PID.TID 0000.0001) %MON dynstat_salt_min             =   1.8518413784638E+01
(PID.TID 0000.0001) %MON dynstat_salt_mean            =   3.4772178162648E+01
(PID.TID 0000.0001) %MON dynstat_salt_sd              =   5.3096020431817E-01
(PID.TID 0000.0001) %MON dynstat_salt_del2            =   8.0533310095241E-04
(PID.TID 0000.0001) %MON dynstat_sst_max              =   3.0925084085012E+01
(PID.TID 0000.0001) %MON dynstat_sst_min              =  -1.8998265939351E+00
(PID.TID 0000.0001) %MON dynstat_sst_mean             =   1.8100305623376E+01
(PID.TID 0000.0001) %MON dynstat_sst_sd               =   9.8011248014045E+00
(PID.TID 0000.0001) %MON dynstat_sst_del2             =   1.5295452231051E-02
(PID.TID 0000.0001) %MON dynstat_sss_max              =   4.1375918233963E+01
(PID.TID 0000.0001) %MON dynstat_sss_min              =   1.8752722977221E+01
(PID.TID 0000.0001) %MON dynstat_sss_mean             =   3.4640582442956E+01
(PID.TID 0000.0001) %MON dynstat_sss_sd               =   1.4576958980999E+00
(PID.TID 0000.0001) %MON dynstat_sss_del2             =   8.0530032302527E-03
(PID.TID 0000.0001) %MON forcing_qnet_max             =   1.4830107421875E+04
(PID.TID 0000.0001) %MON forcing_qnet_min             =  -9.6826816406250E+03
(PID.TID 0000.0001) %MON forcing_qnet_mean            =  -1.1468365472683E+02
(PID.TID 0000.0001) %MON forcing_qnet_sd              =   9.6888784298186E+02
(PID.TID 0000.0001) %MON forcing_qnet_del2            =   3.1883324867800E+01
(PID.TID 0000.0001) %MON forcing_qsw_max              =   0.0000000000000E+00
(PID.TID 0000.0001) %MON forcing_qsw_min              =   0.0000000000000E+00
(PID.TID 0000.0001) %MON forcing_qsw_mean             =   0.0000000000000E+00
(PID.TID 0000.0001) %MON forcing_qsw_sd               =   0.0000000000000E+00
(PID.TID 0000.0001) %MON forcing_qsw_del2             =   0.0000000000000E+00
(PID.TID 0000.0001) %MON forcing_empmr_max            =   7.7713735401630E-02
(PID.TID 0000.0001) %MON forcing_empmr_min            =  -5.9912520647049E-01
(PID.TID 0000.0001) %MON forcing_empmr_mean           =  -6.0536366385688E-04
(PID.TID 0000.0001) %MON forcing_empmr_sd             =   1.1974255854378E-02
(PID.TID 0000.0001) %MON forcing_empmr_del2           =   4.6934693374336E-04
(PID.TID 0000.0001) %MON forcing_fu_max               =   5.6988325498921E-01
(PID.TID 0000.0001) %MON forcing_fu_min               =  -4.8732271549795E-01
(PID.TID 0000.0001) %MON forcing_fu_mean              =  -5.5088059907135E-03
(PID.TID 0000.0001) %MON forcing_fu_sd                =   7.6401740215736E-02
(PID.TID 0000.0001) %MON forcing_fu_del2              =   7.7604833794431E-04
(PID.TID 0000.0001) %MON forcing_fv_max               =   3.5995131788446E-01
(PID.TID 0000.0001) %MON forcing_fv_min               =  -4.6828551157200E-01
(PID.TID 0000.0001) %MON forcing_fv_mean              =  -1.3754490488411E-02
(PID.TID 0000.0001) %MON forcing_fv_sd                =   7.3671589412248E-02
(PID.TID 0000.0001) %MON forcing_fv_del2              =   6.5387295339796E-04
(PID.TID 0000.0001) %MON trAdv_CFL_u_max              =   3.3231744119659E-03
(PID.TID 0000.0001) %MON trAdv_CFL_v_max              =   5.0136839828347E-03
(PID.TID 0000.0001) %MON trAdv_CFL_w_max              =   9.0854054811791E-03
(PID.TID 0000.0001) %MON advcfl_uvel_max              =   3.5322098138900E-03
(PID.TID 0000.0001) %MON advcfl_vvel_max              =   2.9308816359351E-03
(PID.TID 0000.0001) %MON advcfl_wvel_max              =   2.0839137616365E-02
(PID.TID 0000.0001) %MON advcfl_W_hf_max              =   9.0854054811791E-03
(PID.TID 0000.0001) %MON pe_b_mean                    =   5.3825982233609E-04
(PID.TID 0000.0001) %MON ke_max                       =   5.4146050471902E-01
(PID.TID 0000.0001) %MON ke_mean                      =   1.6178483000646E-04
(PID.TID 0000.0001) %MON ke_vol                       =   1.3398060204258E+18
(PID.TID 0000.0001) %MON vort_r_min                   =  -3.1025741130451E-06
(PID.TID 0000.0001) %MON vort_r_max                   =   3.0682155688851E-06
(PID.TID 0000.0001) %MON vort_a_mean                  =  -2.0549865324846E-05
(PID.TID 0000.0001) %MON vort_a_sd                    =   7.5259525555923E-05
(PID.TID 0000.0001) %MON vort_p_mean                  =  -2.4783420360552E-05
(PID.TID 0000.0001) %MON vort_p_sd                    =   1.2811956577860E-04
(PID.TID 0000.0001) %MON surfExpan_theta_mean         =  -7.1931400338130E-06
(PID.TID 0000.0001) %MON surfExpan_salt_mean          =   8.3115181660712E-07
(PID.TID 0000.0001) // =======================================================
(PID.TID 0000.0001) // End MONITOR dynamic field statistics
(PID.TID 0000.0001) // =======================================================
 cg2d: Sum(rhs),rhsMax =  -6.20921149451948E+00  1.50484867728402E+02
(PID.TID 0000.0001)      cg2d_init_res =   2.42901448666672E-01
(PID.TID 0000.0001)      cg2d_iters(min,last) =      -1       9
(PID.TID 0000.0001)      cg2d_last_res =   5.64829769347423E-08
(PID.TID 0000.0001) // =======================================================
(PID.TID 0000.0001) // Begin MONITOR dynamic field statistics
(PID.TID 0000.0001) // =======================================================
(PID.TID 0000.0001) %MON time_tsnumber                =                 72005
(PID.TID 0000.0001) %MON time_secondsf                =   6.4804500000000E+07
(PID.TID 0000.0001) %MON dynstat_eta_max              =   7.0467667679062E+00
(PID.TID 0000.0001) %MON dynstat_eta_min              =  -1.6237232916514E+00
(PID.TID 0000.0001) %MON dynstat_eta_mean             =   1.0857515471604E-02
(PID.TID 0000.0001) %MON dynstat_eta_sd               =   6.3098199303711E-01
(PID.TID 0000.0001) %MON dynstat_eta_del2             =   5.5764390420835E-03
(PID.TID 0000.0001) %MON dynstat_uvel_max             =   1.2700205229651E+00
(PID.TID 0000.0001) %MON dynstat_uvel_min             =  -6.4907057131053E-01
(PID.TID 0000.0001) %MON dynstat_uvel_mean            =  -3.7162763199949E-04
(PID.TID 0000.0001) %MON dynstat_uvel_sd              =   1.3209694315536E-02
(PID.TID 0000.0001) %MON dynstat_uvel_del2            =   1.1612356045772E-04
(PID.TID 0000.0001) %MON dynstat_vvel_max             =   1.0562096124304E+00
(PID.TID 0000.0001) %MON dynstat_vvel_min             =  -1.1056272104791E+00
(PID.TID 0000.0001) %MON dynstat_vvel_mean            =  -3.7302676050607E-04
(PID.TID 0000.0001) %MON dynstat_vvel_sd              =   1.3756674501502E-02
(PID.TID 0000.0001) %MON dynstat_vvel_del2            =   1.6092735822529E-04
(PID.TID 0000.0001) %MON dynstat_wvel_max             =   1.0379459613030E-04
(PID.TID 0000.0001) %MON dynstat_wvel_min             =  -8.1067761561692E-04
(PID.TID 0000.0001) %MON dynstat_wvel_mean            =  -3.4375735351610E-07
(PID.TID 0000.0001) %MON dynstat_wvel_sd              =   1.0494892116081E-05
(PID.TID 0000.0001) %MON dynstat_wvel_del2            =   9.3929267501298E-08
(PID.TID 0000.0001) %MON dynstat_theta_max            =   3.0924851327238E+01
(PID.TID 0000.0001) %MON dynstat_theta_min            =  -3.0145559951056E+00
(PID.TID 0000.0001) %MON dynstat_theta_mean           =   3.9089678603486E+00
(PID.TID 0000.0001) %MON dynstat_theta_sd             =   4.5707245679616E+00
(PID.TID 0000.0001) %MON dynstat_theta_del2           =   2.6525052807444E-03
(PID.TID 0000.0001) %MON dynstat_salt_max             =   4.1375234653790E+01
(PID.TID 0000.0001) %MON dynstat_salt_min             =   1.8518423378707E+01
(PID.TID 0000.0001) %MON dynstat_salt_mean            =   3.4772170589234E+01
(PID.TID 0000.0001) %MON dynstat_salt_sd              =   5.3097413137350E-01
(PID.TID 0000.0001) %MON dynstat_salt_del2            =   8.0727119319978E-04
(PID.TID 0000.0001) %MON dynstat_sst_max              =   3.0924851327238E+01
(PID.TID 0000.0001) %MON dynstat_sst_min              =  -1.8997863673070E+00
(PID.TID 0000.0001) %MON dynstat_sst_mean             =   1.8101079286215E+01
(PID.TID 0000.0001) %MON dynstat_sst_sd               =   9.8015608199731E+00
(PID.TID 0000.0001) %MON dynstat_sst_del2             =   1.5273527113333E-02
(PID.TID 0000.0001) %MON dynstat_sss_max              =   4.1375234653790E+01
(PID.TID 0000.0001) %MON dynstat_sss_min              =   1.8751621624910E+01
(PID.TID 0000.0001) %MON dynstat_sss_mean             =   3.4640040603175E+01
(PID.TID 0000.0001) %MON dynstat_sss_sd               =   1.4580224880013E+00
(PID.TID 0000.0001) %MON dynstat_sss_del2             =   8.0833815025641E-03
(PID.TID 0000.0001) %MON forcing_qnet_max             =   1.3193404987741E+04
(PID.TID 0000.0001) %MON forcing_qnet_min             =  -1.6052734375000E+04
(PID.TID 0000.0001) %MON forcing_qnet_mean            =  -1.7696924873579E+02
(PID.TID 0000.0001) %MON forcing_qnet_sd              =   8.7529821193942E+02
(PID.TID 0000.0001) %MON forcing_qnet_del2            =   3.1963170573404E+01
(PID.TID 0000.0001) %MON forcing_qsw_max              =   0.0000000000000E+00
(PID.TID 0000.0001) %MON forcing_qsw_min              =  -1.0735261806416E+02
(PID.TID 0000.0001) %MON forcing_qsw_mean             =  -2.1959944126799E+01
(PID.TID 0000.0001) %MON forcing_qsw_sd               =   2.9870467814138E+01
(PID.TID 0000.0001) %MON forcing_qsw_del2             =   2.2286775471058E-01
(PID.TID 0000.0001) %MON forcing_empmr_max            =   4.6309471130371E-02
(PID.TID 0000.0001) %MON forcing_empmr_min            =  -5.0658059120178E-01
(PID.TID 0000.0001) %MON forcing_empmr_mean           =  -5.8242138798767E-04
(PID.TID 0000.0001) %MON forcing_empmr_sd             =   1.0801670190572E-02
(PID.TID 0000.0001) %MON forcing_empmr_del2           =   4.2637651243883E-04
(PID.TID 0000.0001) %MON forcing_fu_max               =   5.8806092767931E-01
(PID.TID 0000.0001) %MON forcing_fu_min               =  -4.6984390302197E-01
(PID.TID 0000.0001) %MON forcing_fu_mean              =  -5.3659170046686E-03
(PID.TID 0000.0001) %MON forcing_fu_sd                =   7.6315046843027E-02
(PID.TID 0000.0001) %MON forcing_fu_del2              =   7.7683501562559E-04
(PID.TID 0000.0001) %MON forcing_fv_max               =   3.6930268330209E-01
(PID.TID 0000.0001) %MON forcing_fv_min               =  -4.3060964700887E-01
(PID.TID 0000.0001) %MON forcing_fv_mean              =  -1.3589213475821E-02
(PID.TID 0000.0001) %MON forcing_fv_sd                =   7.3898715530274E-02
(PID.TID 0000.0001) %MON forcing_fv_del2              =   6.5624281833344E-04
(PID.TID 0000.0001) %MON trAdv_CFL_u_max              =   4.0027611207245E-03
(PID.TID 0000.0001) %MON trAdv_CFL_v_max              =   5.8721510961824E-03
(PID.TID 0000.0001) %MON trAdv_CFL_w_max              =   7.4926598340727E-03
(PID.TID 0000.0001) %MON advcfl_uvel_max              =   4.2352220631726E-03
(PID.TID 0000.0001) %MON advcfl_vvel_max              =   3.4467972391993E-03
(PID.TID 0000.0001) %MON advcfl_wvel_max              =   1.7620194476584E-02
(PID.TID 0000.0001) %MON advcfl_W_hf_max              =   7.4926598340727E-03
(PID.TID 0000.0001) %MON pe_b_mean                    =   5.3054931132833E-04
(PID.TID 0000.0001) %MON ke_max                       =   7.7856855479757E-01
(PID.TID 0000.0001) %MON ke_mean                      =   1.6808784514975E-04
(PID.TID 0000.0001) %MON ke_vol                       =   1.3398062119770E+18
(PID.TID 0000.0001) %MON vort_r_min                   =  -3.6576919524331E-06
(PID.TID 0000.0001) %MON vort_r_max                   =   3.5779047013692E-06
(PID.TID 0000.0001) %MON vort_a_mean                  =  -2.0549865324846E-05
(PID.TID 0000.0001) %MON vort_a_sd                    =   7.5259527190710E-05
(PID.TID 0000.0001) %MON vort_p_mean                  =  -2.4783415654172E-05
(PID.TID 0000.0001) %MON vort_p_sd                    =   1.2811950772056E-04
(PID.TID 0000.0001) %MON surfExpan_theta_mean         =  -7.5064746142524E-06
(PID.TID 0000.0001) %MON surfExpan_salt_mean          =   9.5648728578824E-07
(PID.TID 0000.0001) // =======================================================
(PID.TID 0000.0001) // End MONITOR dynamic field statistics
(PID.TID 0000.0001) // =======================================================
 cg2d: Sum(rhs),rhsMax =  -7.07879028964373E+00  1.37978543203964E+02
(PID.TID 0000.0001)      cg2d_init_res =   2.61392177983848E-01
(PID.TID 0000.0001)      cg2d_iters(min,last) =      -1       9
(PID.TID 0000.0001)      cg2d_last_res =   6.89282407403045E-08
(PID.TID 0000.0001) // =======================================================
(PID.TID 0000.0001) // Begin MONITOR dynamic field statistics
(PID.TID 0000.0001) // =======================================================
(PID.TID 0000.0001) %MON time_tsnumber                =                 72006
(PID.TID 0000.0001) %MON time_secondsf                =   6.4805400000000E+07
(PID.TID 0000.0001) %MON dynstat_eta_max              =   6.4642750688759E+00
(PID.TID 0000.0001) %MON dynstat_eta_min              =  -1.6246989683597E+00
(PID.TID 0000.0001) %MON dynstat_eta_mean             =   1.1349370531861E-02
(PID.TID 0000.0001) %MON dynstat_eta_sd               =   6.2681524849585E-01
(PID.TID 0000.0001) %MON dynstat_eta_del2             =   4.7929976886518E-03
(PID.TID 0000.0001) %MON dynstat_uvel_max             =   1.4551053932647E+00
(PID.TID 0000.0001) %MON dynstat_uvel_min             =  -7.2448000819236E-01
(PID.TID 0000.0001) %MON dynstat_uvel_mean            =  -3.3957140883732E-04
(PID.TID 0000.0001) %MON dynstat_uvel_sd              =   1.3437349325846E-02
(PID.TID 0000.0001) %MON dynstat_uvel_del2            =   1.2590315640865E-04
(PID.TID 0000.0001) %MON dynstat_vvel_max             =   1.1843276871306E+00
(PID.TID 0000.0001) %MON dynstat_vvel_min             =  -1.2636818099229E+00
(PID.TID 0000.0001) %MON dynstat_vvel_mean            =  -3.7353656008416E-04
(PID.TID 0000.0001) %MON dynstat_vvel_sd              =   1.3956876736211E-02
(PID.TID 0000.0001) %MON dynstat_vvel_del2            =   1.7439651950514E-04
(PID.TID 0000.0001) %MON dynstat_wvel_max             =   1.0375122278102E-04
(PID.TID 0000.0001) %MON dynstat_wvel_min             =  -6.9155045764281E-04
(PID.TID 0000.0001) %MON dynstat_wvel_mean            =  -3.9331380361360E-07
(PID.TID 0000.0001) %MON dynstat_wvel_sd              =   1.0266354807461E-05
(PID.TID 0000.0001) %MON dynstat_wvel_del2            =   9.2393258608137E-08
(PID.TID 0000.0001) %MON dynstat_theta_max            =   3.0924611251033E+01
(PID.TID 0000.0001) %MON dynstat_theta_min            =  -3.0136663020000E+00
(PID.TID 0000.0001) %MON dynstat_theta_mean           =   3.9089803100874E+00
(PID.TID 0000.0001) %MON dynstat_theta_sd             =   4.5707724686994E+00
(PID.TID 0000.0001) %MON dynstat_theta_del2           =   2.6517029266053E-03
(PID.TID 0000.0001) %MON dynstat_salt_max             =   4.1374469140608E+01
(PID.TID 0000.0001) %MON dynstat_salt_min             =   1.8518432930874E+01
(PID.TID 0000.0001) %MON dynstat_salt_mean            =   3.4772163179281E+01
(PID.TID 0000.0001) %MON dynstat_salt_sd              =   5.3098858020435E-01
(PID.TID 0000.0001) %MON dynstat_salt_del2            =   8.0962402550207E-04
(PID.TID 0000.0001) %MON dynstat_sst_max              =   3.0924611251033E+01
(PID.TID 0000.0001) %MON dynstat_sst_min              =  -1.8997475354850E+00
(PID.TID 0000.0001) %MON dynstat_sst_mean             =   1.8101789649048E+01
(PID.TID 0000.0001) %MON dynstat_sst_sd               =   9.8019913674551E+00
(PID.TID 0000.0001) %MON dynstat_sst_del2             =   1.5252667726063E-02
(PID.TID 0000.0001) %MON dynstat_sss_max              =   4.1374469140608E+01
(PID.TID 0000.0001) %MON dynstat_sss_min              =   1.8751421386055E+01
(PID.TID 0000.0001) %MON dynstat_sss_mean             =   3.4639511433892E+01
(PID.TID 0000.0001) %MON dynstat_sss_sd               =   1.4583572606701E+00
(PID.TID 0000.0001) %MON dynstat_sss_del2             =   8.1202590218101E-03
(PID.TID 0000.0001) %MON forcing_qnet_max             =   1.4082193359375E+04
(PID.TID 0000.0001) %MON forcing_qnet_min             =  -3.3347585937500E+04
(PID.TID 0000.0001) %MON forcing_qnet_mean            =  -1.6147169215988E+02
(PID.TID 0000.0001) %MON forcing_qnet_sd              =   8.5889431642156E+02
(PID.TID 0000.0001) %MON forcing_qnet_del2            =   3.6008944818165E+01
(PID.TID 0000.0001) %MON forcing_qsw_max              =   0.0000000000000E+00
(PID.TID 0000.0001) %MON forcing_qsw_min              =  -1.0668019156965E+02
(PID.TID 0000.0001) %MON forcing_qsw_mean             =  -2.2001821994752E+01
(PID.TID 0000.0001) %MON forcing_qsw_sd               =   2.9888975892567E+01
(PID.TID 0000.0001) %MON forcing_qsw_del2             =   2.2351022335558E-01
(PID.TID 0000.0001) %MON forcing_empmr_max            =   4.6476628631353E-02
(PID.TID 0000.0001) %MON forcing_empmr_min            =  -4.3649598956108E-01
(PID.TID 0000.0001) %MON forcing_empmr_mean           =  -5.6563331929511E-04
(PID.TID 0000.0001) %MON forcing_empmr_sd             =   9.9524798457280E-03
(PID.TID 0000.0001) %MON forcing_empmr_del2           =   3.9562247879052E-04
(PID.TID 0000.0001) %MON forcing_fu_max               =   6.1003739475024E-01
(PID.TID 0000.0001) %MON forcing_fu_min               =  -4.4551914752555E-01
(PID.TID 0000.0001) %MON forcing_fu_mean              =  -5.2773273882345E-03
(PID.TID 0000.0001) %MON forcing_fu_sd                =   7.6230119194903E-02
(PID.TID 0000.0001) %MON forcing_fu_del2              =   7.7655341127701E-04
(PID.TID 0000.0001) %MON forcing_fv_max               =   3.6921676086477E-01
(PID.TID 0000.0001) %MON forcing_fv_min               =  -3.9410025067041E-01
(PID.TID 0000.0001) %MON forcing_fv_mean              =  -1.3492453416550E-02
(PID.TID 0000.0001) %MON forcing_fv_sd                =   7.4056969643340E-02
(PID.TID 0000.0001) %MON forcing_fv_del2              =   6.5602784286199E-04
(PID.TID 0000.0001) %MON trAdv_CFL_u_max              =   4.6091220998971E-03
(PID.TID 0000.0001) %MON trAdv_CFL_v_max              =   6.7167831692392E-03
(PID.TID 0000.0001) %MON trAdv_CFL_w_max              =   6.4855788120604E-03
(PID.TID 0000.0001) %MON advcfl_uvel_max              =   4.8524369129154E-03
(PID.TID 0000.0001) %MON advcfl_vvel_max              =   3.8648932506073E-03
(PID.TID 0000.0001) %MON advcfl_wvel_max              =   1.5182469202125E-02
(PID.TID 0000.0001) %MON advcfl_W_hf_max              =   6.4855788120604E-03
(PID.TID 0000.0001) %MON pe_b_mean                    =   5.2358193611515E-04
(PID.TID 0000.0001) %MON ke_max                       =   1.0180485087694E+00
(PID.TID 0000.0001) %MON ke_mean                      =   1.7343912981153E-04
(PID.TID 0000.0001) %MON ke_vol                       =   1.3398063962686E+18
(PID.TID 0000.0001) %MON vort_r_min                   =  -4.1709974888452E-06
(PID.TID 0000.0001) %MON vort_r_max                   =   3.9712907764675E-06
(PID.TID 0000.0001) %MON vort_a_mean                  =  -2.0549865324846E-05
(PID.TID 0000.0001) %MON vort_a_sd                    =   7.5259528107850E-05
(PID.TID 0000.0001) %MON vort_p_mean                  =  -2.4783410925082E-05
(PID.TID 0000.0001) %MON vort_p_sd                    =   1.2811945015664E-04
(PID.TID 0000.0001) %MON surfExpan_theta_mean         =  -7.7439504682759E-06
(PID.TID 0000.0001) %MON surfExpan_salt_mean          =   1.0855124741950E-06
(PID.TID 0000.0001) // =======================================================
(PID.TID 0000.0001) // End MONITOR dynamic field statistics
(PID.TID 0000.0001) // =======================================================
 cg2d: Sum(rhs),rhsMax =  -8.19096712341759E+00  1.24273901043942E+02
(PID.TID 0000.0001)      cg2d_init_res =   2.81547417770926E-01
(PID.TID 0000.0001)      cg2d_iters(min,last) =      -1       9
(PID.TID 0000.0001)      cg2d_last_res =   8.14119911139527E-08
(PID.TID 0000.0001) // =======================================================
(PID.TID 0000.0001) // Begin MONITOR dynamic field statistics
(PID.TID 0000.0001) // =======================================================
(PID.TID 0000.0001) %MON time_tsnumber                =                 72007
(PID.TID 0000.0001) %MON time_secondsf                =   6.4806300000000E+07
(PID.TID 0000.0001) %MON dynstat_eta_max              =   5.8257108862040E+00
(PID.TID 0000.0001) %MON dynstat_eta_min              =  -2.3302998823498E+00
(PID.TID 0000.0001) %MON dynstat_eta_mean             =   1.1828135399853E-02
(PID.TID 0000.0001) %MON dynstat_eta_sd               =   6.2308715022403E-01
(PID.TID 0000.0001) %MON dynstat_eta_del2             =   4.0816107160280E-03
(PID.TID 0000.0001) %MON dynstat_uvel_max             =   1.6131432864879E+00
(PID.TID 0000.0001) %MON dynstat_uvel_min             =  -7.9058409923584E-01
(PID.TID 0000.0001) %MON dynstat_uvel_mean            =  -3.0728283485391E-04
(PID.TID 0000.0001) %MON dynstat_uvel_sd              =   1.3628691319594E-02
(PID.TID 0000.0001) %MON dynstat_uvel_del2            =   1.3308585096434E-04
(PID.TID 0000.0001) %MON dynstat_vvel_max             =   1.2818847364948E+00
(PID.TID 0000.0001) %MON dynstat_vvel_min             =  -1.3949682248916E+00
(PID.TID 0000.0001) %MON dynstat_vvel_mean            =  -3.7666965276103E-04
(PID.TID 0000.0001) %MON dynstat_vvel_sd              =   1.4113684235296E-02
(PID.TID 0000.0001) %MON dynstat_vvel_del2            =   1.8307496171255E-04
(PID.TID 0000.0001) %MON dynstat_wvel_max             =   1.0369152177800E-04
(PID.TID 0000.0001) %MON dynstat_wvel_min             =  -5.3447030289532E-04
(PID.TID 0000.0001) %MON dynstat_wvel_mean            =  -4.3045252281911E-07
(PID.TID 0000.0001) %MON dynstat_wvel_sd              =   9.8202217599688E-06
(PID.TID 0000.0001) %MON dynstat_wvel_del2            =   8.9801556233630E-08
(PID.TID 0000.0001) %MON dynstat_theta_max            =   3.0924369270796E+01
(PID.TID 0000.0001) %MON dynstat_theta_min            =  -3.0128716744070E+00
(PID.TID 0000.0001) %MON dynstat_theta_mean           =   3.9089914919221E+00
(PID.TID 0000.0001) %MON dynstat_theta_sd             =   4.5708166827048E+00
(PID.TID 0000.0001) %MON dynstat_theta_del2           =   2.6511967642665E-03
(PID.TID 0000.0001) %MON dynstat_salt_max             =   4.1373639682998E+01
(PID.TID 0000.0001) %MON dynstat_salt_min             =   1.8518442467218E+01
(PID.TID 0000.0001) %MON dynstat_salt_mean            =   3.4772155847452E+01
(PID.TID 0000.0001) %MON dynstat_salt_sd              =   5.3100351722281E-01
(PID.TID 0000.0001) %MON dynstat_salt_del2            =   8.1247414223257E-04
(PID.TID 0000.0001) %MON dynstat_sst_max              =   3.0924369270796E+01
(PID.TID 0000.0001) %MON dynstat_sst_min              =  -1.8997091783817E+00
(PID.TID 0000.0001) %MON dynstat_sst_mean             =   1.8102444250680E+01
(PID.TID 0000.0001) %MON dynstat_sst_sd               =   9.8024065214451E+00
(PID.TID 0000.0001) %MON dynstat_sst_del2             =   1.5239798155205E-02
(PID.TID 0000.0001) %MON dynstat_sss_max              =   4.1373639682998E+01
(PID.TID 0000.0001) %MON dynstat_sss_min              =   1.8751385404441E+01
(PID.TID 0000.0001) %MON dynstat_sss_mean             =   3.4638993683813E+01
(PID.TID 0000.0001) %MON dynstat_sss_sd               =   1.4587106433808E+00
(PID.TID 0000.0001) %MON dynstat_sss_del2             =   8.1648201681973E-03
(PID.TID 0000.0001) %MON forcing_qnet_max             =   4.3338019531250E+04
(PID.TID 0000.0001) %MON forcing_qnet_min             =  -9.6035947265625E+03
(PID.TID 0000.0001) %MON forcing_qnet_mean            =  -1.4185204173130E+02
(PID.TID 0000.0001) %MON forcing_qnet_sd              =   9.6710032707522E+02
(PID.TID 0000.0001) %MON forcing_qnet_del2            =   3.8561855295328E+01
(PID.TID 0000.0001) %MON forcing_qsw_max              =   0.0000000000000E+00
(PID.TID 0000.0001) %MON forcing_qsw_min              =  -1.0555561558135E+02
(PID.TID 0000.0001) %MON forcing_qsw_mean             =  -2.1967893903690E+01
(PID.TID 0000.0001) %MON forcing_qsw_sd               =   2.9859389465086E+01
(PID.TID 0000.0001) %MON forcing_qsw_del2             =   2.2389414935372E-01
(PID.TID 0000.0001) %MON forcing_empmr_max            =   4.4973324984312E-02
(PID.TID 0000.0001) %MON forcing_empmr_min            =  -3.7781035900116E-01
(PID.TID 0000.0001) %MON forcing_empmr_mean           =  -5.5057959819051E-04
(PID.TID 0000.0001) %MON forcing_empmr_sd             =   9.2697372372197E-03
(PID.TID 0000.0001) %MON forcing_empmr_del2           =   3.7094642467260E-04
(PID.TID 0000.0001) %MON forcing_fu_max               =   6.3563679225948E-01
(PID.TID 0000.0001) %MON forcing_fu_min               =  -4.1703654243145E-01
(PID.TID 0000.0001) %MON forcing_fu_mean              =  -5.2407882880340E-03
(PID.TID 0000.0001) %MON forcing_fu_sd                =   7.6201136824498E-02
(PID.TID 0000.0001) %MON forcing_fu_del2              =   7.7656360956847E-04
(PID.TID 0000.0001) %MON forcing_fv_max               =   3.6433382677291E-01
(PID.TID 0000.0001) %MON forcing_fv_min               =  -3.6234582948978E-01
(PID.TID 0000.0001) %MON forcing_fv_mean              =  -1.3393906419299E-02
(PID.TID 0000.0001) %MON forcing_fv_sd                =   7.4180414540886E-02
(PID.TID 0000.0001) %MON forcing_fv_del2              =   6.5554695856118E-04
(PID.TID 0000.0001) %MON trAdv_CFL_u_max              =   5.1364473373716E-03
(PID.TID 0000.0001) %MON trAdv_CFL_v_max              =   7.4261640718316E-03
(PID.TID 0000.0001) %MON trAdv_CFL_w_max              =   6.8559367077220E-03
(PID.TID 0000.0001) %MON advcfl_uvel_max              =   5.3794564059814E-03
(PID.TID 0000.0001) %MON advcfl_vvel_max              =   4.1832574885916E-03
(PID.TID 0000.0001) %MON advcfl_wvel_max              =   1.3141229878301E-02
(PID.TID 0000.0001) %MON advcfl_W_hf_max              =   6.8559367077220E-03
(PID.TID 0000.0001) %MON pe_b_mean                    =   5.1738900789360E-04
(PID.TID 0000.0001) %MON ke_max                       =   1.2419385435518E+00
(PID.TID 0000.0001) %MON ke_mean                      =   1.7785264729477E-04
(PID.TID 0000.0001) %MON ke_vol                       =   1.3398065752482E+18
(PID.TID 0000.0001) %MON vort_r_min                   =  -4.6043307083741E-06
(PID.TID 0000.0001) %MON vort_r_max                   =   4.2472920750386E-06
(PID.TID 0000.0001) %MON vort_a_mean                  =  -2.0549865324846E-05
(PID.TID 0000.0001) %MON vort_a_sd                    =   7.5259528324451E-05
(PID.TID 0000.0001) %MON vort_p_mean                  =  -2.4783406217641E-05
(PID.TID 0000.0001) %MON vort_p_sd                    =   1.2811939401467E-04
(PID.TID 0000.0001) %MON surfExpan_theta_mean         =  -7.8604448505349E-06
(PID.TID 0000.0001) %MON surfExpan_salt_mean          =   1.2069896218682E-06
(PID.TID 0000.0001) // =======================================================
(PID.TID 0000.0001) // End MONITOR dynamic field statistics
(PID.TID 0000.0001) // =======================================================
 Computing Diagnostic #     81  oceTAUX      Counter:       1   Parms: UU      U1      
           Vector  Mate for  oceTAUX      Diagnostic #     82  oceTAUY  exists 
 Computing Diagnostic #     82  oceTAUY      Counter:       1   Parms: VV      U1      
           Vector  Mate for  oceTAUY      Diagnostic #     81  oceTAUX  exists 
 Computing Diagnostic #     85  oceFWflx     Counter:       1   Parms: SM      U1      
 Computing Diagnostic #     86  oceSflux     Counter:       1   Parms: SM      U1      
 Computing Diagnostic #     87  oceQnet      Counter:       1   Parms: SM      U1      
 Computing Diagnostic #     88  oceQsw       Counter:       1   Parms: SM      U1      
 Computing Diagnostic #     27  SALT         Counter:       1   Parms: SMR     MR      
 Computing Diagnostic #     26  THETA        Counter:       1   Parms: SMR     MR      
 Computing Diagnostic #     45  UVELMASS     Counter:       1   Parms: UUr     MR      
           Vector  Mate for  UVELMASS     Diagnostic #     46  VVELMASS exists 
 Computing Diagnostic #     46  VVELMASS     Counter:       1   Parms: VVr     MR      
           Vector  Mate for  VVELMASS     Diagnostic #     45  UVELMASS exists 
 cg2d: Sum(rhs),rhsMax =  -9.64716053663133E+00  1.09671458782950E+02
(PID.TID 0000.0001)      cg2d_init_res =   3.07849536437647E-01
(PID.TID 0000.0001)      cg2d_iters(min,last) =      -1       9
(PID.TID 0000.0001)      cg2d_last_res =   9.29297379227297E-08
(PID.TID 0000.0001) // =======================================================
(PID.TID 0000.0001) // Begin MONITOR dynamic field statistics
(PID.TID 0000.0001) // =======================================================
(PID.TID 0000.0001) %MON time_tsnumber                =                 72008
(PID.TID 0000.0001) %MON time_secondsf                =   6.4807200000000E+07
(PID.TID 0000.0001) %MON dynstat_eta_max              =   5.1450329735541E+00
(PID.TID 0000.0001) %MON dynstat_eta_min              =  -2.6957156142737E+00
(PID.TID 0000.0001) %MON dynstat_eta_mean             =   1.2294030863519E-02
(PID.TID 0000.0001) %MON dynstat_eta_sd               =   6.1977819599883E-01
(PID.TID 0000.0001) %MON dynstat_eta_del2             =   3.4821969827646E-03
(PID.TID 0000.0001) %MON dynstat_uvel_max             =   1.7437747498984E+00
(PID.TID 0000.0001) %MON dynstat_uvel_min             =  -8.4695845871541E-01
(PID.TID 0000.0001) %MON dynstat_uvel_mean            =  -2.7565852022909E-04
(PID.TID 0000.0001) %MON dynstat_uvel_sd              =   1.3794805370905E-02
(PID.TID 0000.0001) %MON dynstat_uvel_del2            =   1.3806732301475E-04
(PID.TID 0000.0001) %MON dynstat_vvel_max             =   1.3487745341458E+00
(PID.TID 0000.0001) %MON dynstat_vvel_min             =  -1.4978125789509E+00
(PID.TID 0000.0001) %MON dynstat_vvel_mean            =  -3.8207387070510E-04
(PID.TID 0000.0001) %MON dynstat_vvel_sd              =   1.4228110277812E-02
(PID.TID 0000.0001) %MON dynstat_vvel_del2            =   1.8744075435960E-04
(PID.TID 0000.0001) %MON dynstat_wvel_max             =   1.0382343673956E-04
(PID.TID 0000.0001) %MON dynstat_wvel_min             =  -5.5025739632244E-04
(PID.TID 0000.0001) %MON dynstat_wvel_mean            =  -4.5379764074504E-07
(PID.TID 0000.0001) %MON dynstat_wvel_sd              =   9.3319593540440E-06
(PID.TID 0000.0001) %MON dynstat_wvel_del2            =   8.6710582014358E-08
(PID.TID 0000.0001) %MON dynstat_theta_max            =   3.0924126164627E+01
(PID.TID 0000.0001) %MON dynstat_theta_min            =  -3.0122109749507E+00
(PID.TID 0000.0001) %MON dynstat_theta_mean           =   3.9090024302081E+00
(PID.TID 0000.0001) %MON dynstat_theta_sd             =   4.5708592314049E+00
(PID.TID 0000.0001) %MON dynstat_theta_del2           =   2.6507110649616E-03
(PID.TID 0000.0001) %MON dynstat_salt_max             =   4.1372762315075E+01
(PID.TID 0000.0001) %MON dynstat_salt_min             =   1.8518452010179E+01
(PID.TID 0000.0001) %MON dynstat_salt_mean            =   3.4772148801930E+01
(PID.TID 0000.0001) %MON dynstat_salt_sd              =   5.3101922918323E-01
(PID.TID 0000.0001) %MON dynstat_salt_del2            =   8.1569320231607E-04
(PID.TID 0000.0001) %MON dynstat_sst_max              =   3.0924126164627E+01
(PID.TID 0000.0001) %MON dynstat_sst_min              =  -1.8996726329199E+00
(PID.TID 0000.0001) %MON dynstat_sst_mean             =   1.8103072147330E+01
(PID.TID 0000.0001) %MON dynstat_sst_sd               =   9.8027914673491E+00
(PID.TID 0000.0001) %MON dynstat_sst_del2             =   1.5227274616625E-02
(PID.TID 0000.0001) %MON dynstat_sss_max              =   4.1372762315075E+01
(PID.TID 0000.0001) %MON dynstat_sss_min              =   1.8751379291323E+01
(PID.TID 0000.0001) %MON dynstat_sss_mean             =   3.4638492428346E+01
(PID.TID 0000.0001) %MON dynstat_sss_sd               =   1.4590828326906E+00
(PID.TID 0000.0001) %MON dynstat_sss_del2             =   8.2150952805906E-03
(PID.TID 0000.0001) %MON forcing_qnet_max             =   1.4142915039062E+04
(PID.TID 0000.0001) %MON forcing_qnet_min             =  -1.1383537109375E+04
(PID.TID 0000.0001) %MON forcing_qnet_mean            =  -1.3935010218554E+02
(PID.TID 0000.0001) %MON forcing_qnet_sd              =   6.9798288844391E+02
(PID.TID 0000.0001) %MON forcing_qnet_del2            =   2.2632811781050E+01
(PID.TID 0000.0001) %MON forcing_qsw_max              =   0.0000000000000E+00
(PID.TID 0000.0001) %MON forcing_qsw_min              =  -1.0456636180988E+02
(PID.TID 0000.0001) %MON forcing_qsw_mean             =  -2.1863602427083E+01
(PID.TID 0000.0001) %MON forcing_qsw_sd               =   2.9777888614835E+01
(PID.TID 0000.0001) %MON forcing_qsw_del2             =   2.2400385013066E-01
(PID.TID 0000.0001) %MON forcing_empmr_max            =   4.1802898049355E-02
(PID.TID 0000.0001) %MON forcing_empmr_min            =  -3.2989081740379E-01
(PID.TID 0000.0001) %MON forcing_empmr_mean           =  -5.3577978321676E-04
(PID.TID 0000.0001) %MON forcing_empmr_sd             =   8.7286057284617E-03
(PID.TID 0000.0001) %MON forcing_empmr_del2           =   3.5101219046977E-04
(PID.TID 0000.0001) %MON forcing_fu_max               =   6.5935684153227E-01
(PID.TID 0000.0001) %MON forcing_fu_min               =  -3.9724672656095E-01
(PID.TID 0000.0001) %MON forcing_fu_mean              =  -5.2603036480431E-03
(PID.TID 0000.0001) %MON forcing_fu_sd                =   7.6244410683619E-02
(PID.TID 0000.0001) %MON forcing_fu_del2              =   7.7748724096416E-04
(PID.TID 0000.0001) %MON forcing_fv_max               =   3.5885277466484E-01
(PID.TID 0000.0001) %MON forcing_fv_min               =  -3.3688346564272E-01
(PID.TID 0000.0001) %MON forcing_fv_mean              =  -1.3296363757562E-02
(PID.TID 0000.0001) %MON forcing_fv_sd                =   7.4317224608380E-02
(PID.TID 0000.0001) %MON forcing_fv_del2              =   6.5555940834009E-04
(PID.TID 0000.0001) %MON trAdv_CFL_u_max              =   5.5813946852886E-03
(PID.TID 0000.0001) %MON trAdv_CFL_v_max              =   7.9940763648758E-03
(PID.TID 0000.0001) %MON trAdv_CFL_w_max              =   7.0564438849149E-03
(PID.TID 0000.0001) %MON advcfl_uvel_max              =   5.8150818513788E-03
(PID.TID 0000.0001) %MON advcfl_vvel_max              =   4.4885989182464E-03
(PID.TID 0000.0001) %MON advcfl_wvel_max              =   1.1474463214045E-02
(PID.TID 0000.0001) %MON advcfl_W_hf_max              =   7.0564438849149E-03
(PID.TID 0000.0001) %MON pe_b_mean                    =   5.1192520721017E-04
(PID.TID 0000.0001) %MON ke_max                       =   1.4347141566148E+00
(PID.TID 0000.0001) %MON ke_mean                      =   1.8144409390180E-04
(PID.TID 0000.0001) %MON ke_vol                       =   1.3398067494644E+18
(PID.TID 0000.0001) %MON vort_r_min                   =  -4.9437860516058E-06
(PID.TID 0000.0001) %MON vort_r_max                   =   4.4071300619177E-06
(PID.TID 0000.0001) %MON vort_a_mean                  =  -2.0549865324846E-05
(PID.TID 0000.0001) %MON vort_a_sd                    =   7.5259527927382E-05
(PID.TID 0000.0001) %MON vort_p_mean                  =  -2.4783401582715E-05
(PID.TID 0000.0001) %MON vort_p_sd                    =   1.2811934055466E-04
(PID.TID 0000.0001) %MON surfExpan_theta_mean         =  -7.8970201252597E-06
(PID.TID 0000.0001) %MON surfExpan_salt_mean          =   1.3139705408958E-06
(PID.TID 0000.0001) // =======================================================
(PID.TID 0000.0001) // End MONITOR dynamic field statistics
(PID.TID 0000.0001) // =======================================================
 cg2d: Sum(rhs),rhsMax =  -1.16119955169253E+01  9.44702180359427E+01
(PID.TID 0000.0001)      cg2d_init_res =   3.47242829570077E-01
(PID.TID 0000.0001)      cg2d_iters(min,last) =      -1      10
(PID.TID 0000.0001)      cg2d_last_res =   2.26447544186508E-08
(PID.TID 0000.0001) // =======================================================
(PID.TID 0000.0001) // Begin MONITOR dynamic field statistics
(PID.TID 0000.0001) // =======================================================
(PID.TID 0000.0001) %MON time_tsnumber                =                 72009
(PID.TID 0000.0001) %MON time_secondsf                =   6.4808100000000E+07
(PID.TID 0000.0001) %MON dynstat_eta_max              =   4.4361451233511E+00
(PID.TID 0000.0001) %MON dynstat_eta_min              =  -2.6956131315425E+00
(PID.TID 0000.0001) %MON dynstat_eta_mean             =   1.2746852207026E-02
(PID.TID 0000.0001) %MON dynstat_eta_sd               =   6.1688691269811E-01
(PID.TID 0000.0001) %MON dynstat_eta_del2             =   3.0158948317300E-03
(PID.TID 0000.0001) %MON dynstat_uvel_max             =   1.8473244432508E+00
(PID.TID 0000.0001) %MON dynstat_uvel_min             =  -8.9334131536445E-01
(PID.TID 0000.0001) %MON dynstat_uvel_mean            =  -2.4530787324119E-04
(PID.TID 0000.0001) %MON dynstat_uvel_sd              =   1.3942988418664E-02
(PID.TID 0000.0001) %MON dynstat_uvel_del2            =   1.4128537243491E-04
(PID.TID 0000.0001) %MON dynstat_vvel_max             =   1.3853108263600E+00
(PID.TID 0000.0001) %MON dynstat_vvel_min             =  -1.5711774739029E+00
(PID.TID 0000.0001) %MON dynstat_vvel_mean            =  -3.8919769713776E-04
(PID.TID 0000.0001) %MON dynstat_vvel_sd              =   1.4300900291819E-02
(PID.TID 0000.0001) %MON dynstat_vvel_del2            =   1.8806519840099E-04
(PID.TID 0000.0001) %MON dynstat_wvel_max             =   1.0399154352515E-04
(PID.TID 0000.0001) %MON dynstat_wvel_min             =  -5.5476166642772E-04
(PID.TID 0000.0001) %MON dynstat_wvel_mean            =  -4.6458048448623E-07
(PID.TID 0000.0001) %MON dynstat_wvel_sd              =   8.9363261554492E-06
(PID.TID 0000.0001) %MON dynstat_wvel_del2            =   8.3745000659089E-08
(PID.TID 0000.0001) %MON dynstat_theta_max            =   3.0923893006032E+01
(PID.TID 0000.0001) %MON dynstat_theta_min            =  -3.0116903785830E+00
(PID.TID 0000.0001) %MON dynstat_theta_mean           =   3.9090127375776E+00
(PID.TID 0000.0001) %MON dynstat_theta_sd             =   4.5709000669733E+00
(PID.TID 0000.0001) %MON dynstat_theta_del2           =   2.6502576131083E-03
(PID.TID 0000.0001) %MON dynstat_salt_max             =   4.1371845295223E+01
(PID.TID 0000.0001) %MON dynstat_salt_min             =   1.8518461582419E+01
(PID.TID 0000.0001) %MON dynstat_salt_mean            =   3.4772141900824E+01
(PID.TID 0000.0001) %MON dynstat_salt_sd              =   5.3103564168013E-01
(PID.TID 0000.0001) %MON dynstat_salt_del2            =   8.1923643942622E-04
(PID.TID 0000.0001) %MON dynstat_sst_max              =   3.0923893006032E+01
(PID.TID 0000.0001) %MON dynstat_sst_min              =  -1.8996380638717E+00
(PID.TID 0000.0001) %MON dynstat_sst_mean             =   1.8103647115144E+01
(PID.TID 0000.0001) %MON dynstat_sst_sd               =   9.8031893544909E+00
(PID.TID 0000.0001) %MON dynstat_sst_del2             =   1.5215595507467E-02
(PID.TID 0000.0001) %MON dynstat_sss_max              =   4.1371845295223E+01
(PID.TID 0000.0001) %MON dynstat_sss_min              =   1.8751378681640E+01
(PID.TID 0000.0001) %MON dynstat_sss_mean             =   3.4637998599709E+01
(PID.TID 0000.0001) %MON dynstat_sss_sd               =   1.4594732476419E+00
(PID.TID 0000.0001) %MON dynstat_sss_del2             =   8.2703466804221E-03
(PID.TID 0000.0001) %MON forcing_qnet_max             =   1.5001546875000E+04
(PID.TID 0000.0001) %MON forcing_qnet_min             =  -1.0735583984375E+04
(PID.TID 0000.0001) %MON forcing_qnet_mean            =  -1.2994538297204E+02
(PID.TID 0000.0001) %MON forcing_qnet_sd              =   6.4712771374164E+02
(PID.TID 0000.0001) %MON forcing_qnet_del2            =   2.0125039551022E+01
(PID.TID 0000.0001) %MON forcing_qsw_max              =   0.0000000000000E+00
(PID.TID 0000.0001) %MON forcing_qsw_min              =  -1.0778236443968E+02
(PID.TID 0000.0001) %MON forcing_qsw_mean             =  -2.2311071304683E+01
(PID.TID 0000.0001) %MON forcing_qsw_sd               =   3.0320800102465E+01
(PID.TID 0000.0001) %MON forcing_qsw_del2             =   2.2549144702799E-01
(PID.TID 0000.0001) %MON forcing_empmr_max            =   3.6669768393040E-02
(PID.TID 0000.0001) %MON forcing_empmr_min            =  -2.9130330681801E-01
(PID.TID 0000.0001) %MON forcing_empmr_mean           =  -5.2074454503331E-04
(PID.TID 0000.0001) %MON forcing_empmr_sd             =   8.2952128735473E-03
(PID.TID 0000.0001) %MON forcing_empmr_del2           =   3.3464496190944E-04
(PID.TID 0000.0001) %MON forcing_fu_max               =   6.8020312103047E-01
(PID.TID 0000.0001) %MON forcing_fu_min               =  -4.2460323887012E-01
(PID.TID 0000.0001) %MON forcing_fu_mean              =  -5.3185547387181E-03
(PID.TID 0000.0001) %MON forcing_fu_sd                =   7.6400720396487E-02
(PID.TID 0000.0001) %MON forcing_fu_del2              =   7.8029180656465E-04
(PID.TID 0000.0001) %MON forcing_fv_max               =   3.5504417876696E-01
(PID.TID 0000.0001) %MON forcing_fv_min               =  -3.2620530654270E-01
(PID.TID 0000.0001) %MON forcing_fv_mean              =  -1.3071455830021E-02
(PID.TID 0000.0001) %MON forcing_fv_sd                =   7.4680711813809E-02
(PID.TID 0000.0001) %MON forcing_fv_del2              =   6.5755942201450E-04
(PID.TID 0000.0001) %MON trAdv_CFL_u_max              =   5.9426114508959E-03
(PID.TID 0000.0001) %MON trAdv_CFL_v_max              =   8.4159537530063E-03
(PID.TID 0000.0001) %MON trAdv_CFL_w_max              =   7.1133579967366E-03
(PID.TID 0000.0001) %MON advcfl_uvel_max              =   6.1603959136247E-03
(PID.TID 0000.0001) %MON advcfl_vvel_max              =   4.7084565911934E-03
(PID.TID 0000.0001) %MON advcfl_wvel_max              =   1.0132288932800E-02
(PID.TID 0000.0001) %MON advcfl_W_hf_max              =   7.1133579967366E-03
(PID.TID 0000.0001) %MON pe_b_mean                    =   5.0717697174106E-04
(PID.TID 0000.0001) %MON ke_max                       =   1.5840879637399E+00
(PID.TID 0000.0001) %MON ke_mean                      =   1.8429157294441E-04
(PID.TID 0000.0001) %MON ke_vol                       =   1.3398069189975E+18
(PID.TID 0000.0001) %MON vort_r_min                   =  -5.1859394087337E-06
(PID.TID 0000.0001) %MON vort_r_max                   =   4.4539015788418E-06
(PID.TID 0000.0001) %MON vort_a_mean                  =  -2.0549865324846E-05
(PID.TID 0000.0001) %MON vort_a_sd                    =   7.5259527030641E-05
(PID.TID 0000.0001) %MON vort_p_mean                  =  -2.4783397061630E-05
(PID.TID 0000.0001) %MON vort_p_sd                    =   1.2811929120283E-04
(PID.TID 0000.0001) %MON surfExpan_theta_mean         =  -7.8864473670766E-06
(PID.TID 0000.0001) %MON surfExpan_salt_mean          =   1.4042686357262E-06
(PID.TID 0000.0001) // =======================================================
(PID.TID 0000.0001) // End MONITOR dynamic field statistics
(PID.TID 0000.0001) // =======================================================
 cg2d: Sum(rhs),rhsMax =  -1.43744420696975E+01  7.89615559454618E+01
(PID.TID 0000.0001)      cg2d_init_res =   4.08976156988009E-01
(PID.TID 0000.0001)      cg2d_iters(min,last) =      -1      10
(PID.TID 0000.0001)      cg2d_last_res =   2.82574682765867E-08
(PID.TID 0000.0001) // =======================================================
(PID.TID 0000.0001) // Begin MONITOR dynamic field statistics
(PID.TID 0000.0001) // =======================================================
(PID.TID 0000.0001) %MON time_tsnumber                =                 72010
(PID.TID 0000.0001) %MON time_secondsf                =   6.4809000000000E+07
(PID.TID 0000.0001) %MON dynstat_eta_max              =   3.7126092891578E+00
(PID.TID 0000.0001) %MON dynstat_eta_min              =  -2.3912705205871E+00
(PID.TID 0000.0001) %MON dynstat_eta_mean             =   1.3188878510147E-02
(PID.TID 0000.0001) %MON dynstat_eta_sd               =   6.1446496347210E-01
(PID.TID 0000.0001) %MON dynstat_eta_del2             =   2.6889110384079E-03
(PID.TID 0000.0001) %MON dynstat_uvel_max             =   1.9245964154165E+00
(PID.TID 0000.0001) %MON dynstat_uvel_min             =  -9.2961576752868E-01
(PID.TID 0000.0001) %MON dynstat_uvel_mean            =  -2.1647950702331E-04
(PID.TID 0000.0001) %MON dynstat_uvel_sd              =   1.4071954381054E-02
(PID.TID 0000.0001) %MON dynstat_uvel_del2            =   1.4307411786996E-04
(PID.TID 0000.0001) %MON dynstat_vvel_max             =   1.3922655934503E+00
(PID.TID 0000.0001) %MON dynstat_vvel_min             =  -1.6146573281895E+00
(PID.TID 0000.0001) %MON dynstat_vvel_mean            =  -3.9735489635769E-04
(PID.TID 0000.0001) %MON dynstat_vvel_sd              =   1.4332567835518E-02
(PID.TID 0000.0001) %MON dynstat_vvel_del2            =   1.8554674544773E-04
(PID.TID 0000.0001) %MON dynstat_wvel_max             =   1.0416566643900E-04
(PID.TID 0000.0001) %MON dynstat_wvel_min             =  -5.5014075605052E-04
(PID.TID 0000.0001) %MON dynstat_wvel_mean            =  -4.6606674666789E-07
(PID.TID 0000.0001) %MON dynstat_wvel_sd              =   8.6967813022113E-06
(PID.TID 0000.0001) %MON dynstat_wvel_del2            =   8.1459259399857E-08
(PID.TID 0000.0001) %MON dynstat_theta_max            =   3.0923665551618E+01
(PID.TID 0000.0001) %MON dynstat_theta_min            =  -3.0112888916544E+00
(PID.TID 0000.0001) %MON dynstat_theta_mean           =   3.9090223269277E+00
(PID.TID 0000.0001) %MON dynstat_theta_sd             =   4.5709389749653E+00
(PID.TID 0000.0001) %MON dynstat_theta_del2           =   2.6498282338410E-03
(PID.TID 0000.0001) %MON dynstat_salt_max             =   4.1370901605802E+01
(PID.TID 0000.0001) %MON dynstat_salt_min             =   1.8518471201778E+01
(PID.TID 0000.0001) %MON dynstat_salt_mean            =   3.4772135177595E+01
(PID.TID 0000.0001) %MON dynstat_salt_sd              =   5.3105257100757E-01
(PID.TID 0000.0001) %MON dynstat_salt_del2            =   8.2306649677868E-04
(PID.TID 0000.0001) %MON dynstat_sst_max              =   3.0923665551618E+01
(PID.TID 0000.0001) %MON dynstat_sst_min              =  -1.8996044644586E+00
(PID.TID 0000.0001) %MON dynstat_sst_mean             =   1.8104168994076E+01
(PID.TID 0000.0001) %MON dynstat_sst_sd               =   9.8036074823711E+00
(PID.TID 0000.0001) %MON dynstat_sst_del2             =   1.5204434125900E-02
(PID.TID 0000.0001) %MON dynstat_sss_max              =   4.1370901605802E+01
(PID.TID 0000.0001) %MON dynstat_sss_min              =   1.8751379169105E+01
(PID.TID 0000.0001) %MON dynstat_sss_mean             =   3.4637517062356E+01
(PID.TID 0000.0001) %MON dynstat_sss_sd               =   1.4598810977545E+00
(PID.TID 0000.0001) %MON dynstat_sss_del2             =   8.3299591669730E-03
(PID.TID 0000.0001) %MON forcing_qnet_max             =   9.1091259765625E+03
(PID.TID 0000.0001) %MON forcing_qnet_min             =  -1.3268717773438E+04
(PID.TID 0000.0001) %MON forcing_qnet_mean            =  -1.1887455162435E+02
(PID.TID 0000.0001) %MON forcing_qnet_sd              =   6.0167441419832E+02
(PID.TID 0000.0001) %MON forcing_qnet_del2            =   1.8686204473361E+01
(PID.TID 0000.0001) %MON forcing_qsw_max              =   0.0000000000000E+00
(PID.TID 0000.0001) %MON forcing_qsw_min              =  -1.0697003159554E+02
(PID.TID 0000.0001) %MON forcing_qsw_mean             =  -2.2221721742561E+01
(PID.TID 0000.0001) %MON forcing_qsw_sd               =   3.0268257745890E+01
(PID.TID 0000.0001) %MON forcing_qsw_del2             =   2.2686486284081E-01
(PID.TID 0000.0001) %MON forcing_empmr_max            =   2.8423801064491E-02
(PID.TID 0000.0001) %MON forcing_empmr_min            =  -2.6047787070274E-01
(PID.TID 0000.0001) %MON forcing_empmr_mean           =  -5.0833024858855E-04
(PID.TID 0000.0001) %MON forcing_empmr_sd             =   7.9508215234582E-03
(PID.TID 0000.0001) %MON forcing_empmr_del2           =   3.2134660721262E-04
(PID.TID 0000.0001) %MON forcing_fu_max               =   6.9333309303240E-01
(PID.TID 0000.0001) %MON forcing_fu_min               =  -4.4969335627089E-01
(PID.TID 0000.0001) %MON forcing_fu_mean              =  -5.3043264495295E-03
(PID.TID 0000.0001) %MON forcing_fu_sd                =   7.6490168734835E-02
(PID.TID 0000.0001) %MON forcing_fu_del2              =   7.8305565367847E-04
(PID.TID 0000.0001) %MON forcing_fv_max               =   3.6340707262693E-01
(PID.TID 0000.0001) %MON forcing_fv_min               =  -3.3076340620360E-01
(PID.TID 0000.0001) %MON forcing_fv_mean              =  -1.2778771946044E-02
(PID.TID 0000.0001) %MON forcing_fv_sd                =   7.5055693939065E-02
(PID.TID 0000.0001) %MON forcing_fv_del2              =   6.6036060324675E-04
(PID.TID 0000.0001) %MON trAdv_CFL_u_max              =   6.2204769823403E-03
(PID.TID 0000.0001) %MON trAdv_CFL_v_max              =   8.6889663041579E-03
(PID.TID 0000.0001) %MON trAdv_CFL_w_max              =   7.0544871215284E-03
(PID.TID 0000.0001) %MON advcfl_uvel_max              =   6.4180799080669E-03
(PID.TID 0000.0001) %MON advcfl_vvel_max              =   4.8387556884630E-03
(PID.TID 0000.0001) %MON advcfl_wvel_max              =   9.0600998505302E-03
(PID.TID 0000.0001) %MON advcfl_W_hf_max              =   7.0544871215284E-03
(PID.TID 0000.0001) %MON pe_b_mean                    =   5.0321925855283E-04
(PID.TID 0000.0001) %MON ke_max                       =   1.6815527480910E+00
(PID.TID 0000.0001) %MON ke_mean                      =   1.8636921889598E-04
(PID.TID 0000.0001) %MON ke_vol                       =   1.3398070837732E+18
(PID.TID 0000.0001) %MON vort_r_min                   =  -5.6709669610468E-06
(PID.TID 0000.0001) %MON vort_r_max                   =   4.3924139473135E-06
(PID.TID 0000.0001) %MON vort_a_mean                  =  -2.0549865324846E-05
(PID.TID 0000.0001) %MON vort_a_sd                    =   7.5259525747332E-05
(PID.TID 0000.0001) %MON vort_p_mean                  =  -2.4783392683789E-05
(PID.TID 0000.0001) %MON vort_p_sd                    =   1.2811924739077E-04
(PID.TID 0000.0001) %MON surfExpan_theta_mean         =  -7.8362364200072E-06
(PID.TID 0000.0001) %MON surfExpan_salt_mean          =   1.4773871036362E-06
(PID.TID 0000.0001) // =======================================================
(PID.TID 0000.0001) // End MONITOR dynamic field statistics
(PID.TID 0000.0001) // =======================================================
 cg2d: Sum(rhs),rhsMax =  -1.84854927505998E+01  6.34234361937714E+01
(PID.TID 0000.0001)      cg2d_init_res =   5.05670677228040E-01
(PID.TID 0000.0001)      cg2d_iters(min,last) =      -1      10
(PID.TID 0000.0001)      cg2d_last_res =   4.03271464141415E-08
(PID.TID 0000.0001) // =======================================================
(PID.TID 0000.0001) // Begin MONITOR dynamic field statistics
(PID.TID 0000.0001) // =======================================================
(PID.TID 0000.0001) %MON time_tsnumber                =                 72011
(PID.TID 0000.0001) %MON time_secondsf                =   6.4809900000000E+07
(PID.TID 0000.0001) %MON dynstat_eta_max              =   2.9873738516740E+00
(PID.TID 0000.0001) %MON dynstat_eta_min              =  -1.8627285309208E+00
(PID.TID 0000.0001) %MON dynstat_eta_mean             =   1.3623289093497E-02
(PID.TID 0000.0001) %MON dynstat_eta_sd               =   6.1261230547782E-01
(PID.TID 0000.0001) %MON dynstat_eta_del2             =   2.5012900005579E-03
(PID.TID 0000.0001) %MON dynstat_uvel_max             =   1.9766747838146E+00
(PID.TID 0000.0001) %MON dynstat_uvel_min             =  -9.5580885276014E-01
(PID.TID 0000.0001) %MON dynstat_uvel_mean            =  -1.8914840371143E-04
(PID.TID 0000.0001) %MON dynstat_uvel_sd              =   1.4172719318313E-02
(PID.TID 0000.0001) %MON dynstat_uvel_del2            =   1.4360605953455E-04
(PID.TID 0000.0001) %MON dynstat_vvel_max             =   1.3708942239566E+00
(PID.TID 0000.0001) %MON dynstat_vvel_min             =  -1.6284525797640E+00
(PID.TID 0000.0001) %MON dynstat_vvel_mean            =  -4.0579190201031E-04
(PID.TID 0000.0001) %MON dynstat_vvel_sd              =   1.4324613709359E-02
(PID.TID 0000.0001) %MON dynstat_vvel_del2            =   1.8046942004960E-04
(PID.TID 0000.0001) %MON dynstat_wvel_max             =   1.0433975095694E-04
(PID.TID 0000.0001) %MON dynstat_wvel_min             =  -5.3852334957277E-04
(PID.TID 0000.0001) %MON dynstat_wvel_mean            =  -4.6171360174278E-07
(PID.TID 0000.0001) %MON dynstat_wvel_sd              =   8.5966188055782E-06
(PID.TID 0000.0001) %MON dynstat_wvel_del2            =   8.0095120455033E-08
(PID.TID 0000.0001) %MON dynstat_theta_max            =   3.0923445084248E+01
(PID.TID 0000.0001) %MON dynstat_theta_min            =  -3.0109677264528E+00
(PID.TID 0000.0001) %MON dynstat_theta_mean           =   3.9090308626451E+00
(PID.TID 0000.0001) %MON dynstat_theta_sd             =   4.5709746131039E+00
(PID.TID 0000.0001) %MON dynstat_theta_del2           =   2.6493612423502E-03
(PID.TID 0000.0001) %MON dynstat_salt_max             =   4.1369943950443E+01
(PID.TID 0000.0001) %MON dynstat_salt_min             =   1.8518480877352E+01
(PID.TID 0000.0001) %MON dynstat_salt_mean            =   3.4772128513710E+01
(PID.TID 0000.0001) %MON dynstat_salt_sd              =   5.3106982038273E-01
(PID.TID 0000.0001) %MON dynstat_salt_del2            =   8.2713329388414E-04
(PID.TID 0000.0001) %MON dynstat_sst_max              =   3.0923445084248E+01
(PID.TID 0000.0001) %MON dynstat_sst_min              =  -1.8995729918645E+00
(PID.TID 0000.0001) %MON dynstat_sst_mean             =   1.8104604717604E+01
(PID.TID 0000.0001) %MON dynstat_sst_sd               =   9.8040300504544E+00
(PID.TID 0000.0001) %MON dynstat_sst_del2             =   1.5192401131040E-02
(PID.TID 0000.0001) %MON dynstat_sss_max              =   4.1369943950443E+01
(PID.TID 0000.0001) %MON dynstat_sss_min              =   1.8751379928626E+01
(PID.TID 0000.0001) %MON dynstat_sss_mean             =   3.4637035904635E+01
(PID.TID 0000.0001) %MON dynstat_sss_sd               =   1.4602949432625E+00
(PID.TID 0000.0001) %MON dynstat_sss_del2             =   8.3931288943257E-03
(PID.TID 0000.0001) %MON forcing_qnet_max             =   9.3301816406250E+03
(PID.TID 0000.0001) %MON forcing_qnet_min             =  -6.5755097656250E+03
(PID.TID 0000.0001) %MON forcing_qnet_mean            =  -1.0184485356236E+02
(PID.TID 0000.0001) %MON forcing_qnet_sd              =   5.6192564279622E+02
(PID.TID 0000.0001) %MON forcing_qnet_del2            =   1.6681062350749E+01
(PID.TID 0000.0001) %MON forcing_qsw_max              =   0.0000000000000E+00
(PID.TID 0000.0001) %MON forcing_qsw_min              =  -1.0735234282806E+02
(PID.TID 0000.0001) %MON forcing_qsw_mean             =  -2.2063995351495E+01
(PID.TID 0000.0001) %MON forcing_qsw_sd               =   3.0158660435220E+01
(PID.TID 0000.0001) %MON forcing_qsw_del2             =   2.2805268832894E-01
(PID.TID 0000.0001) %MON forcing_empmr_max            =   1.6643665730953E-02
(PID.TID 0000.0001) %MON forcing_empmr_min            =  -2.3741450905800E-01
(PID.TID 0000.0001) %MON forcing_empmr_mean           =  -4.9957217085237E-04
(PID.TID 0000.0001) %MON forcing_empmr_sd             =   7.6822136567564E-03
(PID.TID 0000.0001) %MON forcing_empmr_del2           =   3.1092857806343E-04
(PID.TID 0000.0001) %MON forcing_fu_max               =   6.9933307410176E-01
(PID.TID 0000.0001) %MON forcing_fu_min               =  -4.6213859599886E-01
(PID.TID 0000.0001) %MON forcing_fu_mean              =  -5.2116666217233E-03
(PID.TID 0000.0001) %MON forcing_fu_sd                =   7.6353677628284E-02
(PID.TID 0000.0001) %MON forcing_fu_del2              =   7.8382927214542E-04
(PID.TID 0000.0001) %MON forcing_fv_max               =   3.6008590261875E-01
(PID.TID 0000.0001) %MON forcing_fv_min               =  -3.3670158108172E-01
(PID.TID 0000.0001) %MON forcing_fv_mean              =  -1.2522701670645E-02
(PID.TID 0000.0001) %MON forcing_fv_sd                =   7.5127628147379E-02
(PID.TID 0000.0001) %MON forcing_fv_del2              =   6.6246906528122E-04
(PID.TID 0000.0001) %MON trAdv_CFL_u_max              =   6.4166108288612E-03
(PID.TID 0000.0001) %MON trAdv_CFL_v_max              =   8.8121643872941E-03
(PID.TID 0000.0001) %MON trAdv_CFL_w_max              =   6.9070407837803E-03
(PID.TID 0000.0001) %MON advcfl_uvel_max              =   6.5917491133003E-03
(PID.TID 0000.0001) %MON advcfl_vvel_max              =   4.8800968763824E-03
(PID.TID 0000.0001) %MON advcfl_wvel_max              =   8.2578959672347E-03
(PID.TID 0000.0001) %MON advcfl_W_hf_max              =   6.9070407837803E-03
(PID.TID 0000.0001) %MON pe_b_mean                    =   5.0020619722409E-04
(PID.TID 0000.0001) %MON ke_max                       =   1.7226649522416E+00
(PID.TID 0000.0001) %MON ke_mean                      =   1.8756914075762E-04
(PID.TID 0000.0001) %MON ke_vol                       =   1.3398072446207E+18
(PID.TID 0000.0001) %MON vort_r_min                   =  -6.3615345768262E-06
(PID.TID 0000.0001) %MON vort_r_max                   =   4.2290052928486E-06
(PID.TID 0000.0001) %MON vort_a_mean                  =  -2.0549865324846E-05
(PID.TID 0000.0001) %MON vort_a_sd                    =   7.5259524188942E-05
(PID.TID 0000.0001) %MON vort_p_mean                  =  -2.4783388456421E-05
(PID.TID 0000.0001) %MON vort_p_sd                    =   1.2811920998564E-04
(PID.TID 0000.0001) %MON surfExpan_theta_mean         =  -7.7866171749144E-06
(PID.TID 0000.0001) %MON surfExpan_salt_mean          =   1.5343354977231E-06
(PID.TID 0000.0001) // =======================================================
(PID.TID 0000.0001) // End MONITOR dynamic field statistics
(PID.TID 0000.0001) // =======================================================
 Computing Diagnostic #     81  oceTAUX      Counter:       1   Parms: UU      U1      
           Vector  Mate for  oceTAUX      Diagnostic #     82  oceTAUY  exists 
 Computing Diagnostic #     82  oceTAUY      Counter:       1   Parms: VV      U1      
           Vector  Mate for  oceTAUY      Diagnostic #     81  oceTAUX  exists 
 Computing Diagnostic #     85  oceFWflx     Counter:       1   Parms: SM      U1      
 Computing Diagnostic #     86  oceSflux     Counter:       1   Parms: SM      U1      
 Computing Diagnostic #     87  oceQnet      Counter:       1   Parms: SM      U1      
 Computing Diagnostic #     88  oceQsw       Counter:       1   Parms: SM      U1      
 Computing Diagnostic #     27  SALT         Counter:       1   Parms: SMR     MR      
 Computing Diagnostic #     26  THETA        Counter:       1   Parms: SMR     MR      
 Computing Diagnostic #     45  UVELMASS     Counter:       1   Parms: UUr     MR      
           Vector  Mate for  UVELMASS     Diagnostic #     46  VVELMASS exists 
 Computing Diagnostic #     46  VVELMASS     Counter:       1   Parms: VVr     MR      
           Vector  Mate for  VVELMASS     Diagnostic #     45  UVELMASS exists 
 cg2d: Sum(rhs),rhsMax =  -1.93715149587257E+01  6.24289882990440E+01
(PID.TID 0000.0001)      cg2d_init_res =   5.08665772075249E-01
(PID.TID 0000.0001)      cg2d_iters(min,last) =      -1      10
(PID.TID 0000.0001)      cg2d_last_res =   5.02719548611598E-08
(PID.TID 0000.0001) // =======================================================
(PID.TID 0000.0001) // Begin MONITOR dynamic field statistics
(PID.TID 0000.0001) // =======================================================
(PID.TID 0000.0001) %MON time_tsnumber                =                 72012
(PID.TID 0000.0001) %MON time_secondsf                =   6.4810800000000E+07
(PID.TID 0000.0001) %MON dynstat_eta_max              =   2.8695203510571E+00
(PID.TID 0000.0001) %MON dynstat_eta_min              =  -1.6139654481655E+00
(PID.TID 0000.0001) %MON dynstat_eta_mean             =   1.4052417894088E-02
(PID.TID 0000.0001) %MON dynstat_eta_sd               =   6.1143157921671E-01
(PID.TID 0000.0001) %MON dynstat_eta_del2             =   2.4498216906595E-03
(PID.TID 0000.0001) %MON dynstat_uvel_max             =   2.0047458840752E+00
(PID.TID 0000.0001) %MON dynstat_uvel_min             =  -9.7212960320495E-01
(PID.TID 0000.0001) %MON dynstat_uvel_mean            =  -1.6313075701493E-04
(PID.TID 0000.0001) %MON dynstat_uvel_sd              =   1.4233778131630E-02
(PID.TID 0000.0001) %MON dynstat_uvel_del2            =   1.4293060519427E-04
(PID.TID 0000.0001) %MON dynstat_vvel_max             =   1.3425883941847E+00
(PID.TID 0000.0001) %MON dynstat_vvel_min             =  -1.6133387016789E+00
(PID.TID 0000.0001) %MON dynstat_vvel_mean            =  -4.1376194525123E-04
(PID.TID 0000.0001) %MON dynstat_vvel_sd              =   1.4280827628900E-02
(PID.TID 0000.0001) %MON dynstat_vvel_del2            =   1.7338565066958E-04
(PID.TID 0000.0001) %MON dynstat_wvel_max             =   1.0452401983625E-04
(PID.TID 0000.0001) %MON dynstat_wvel_min             =  -5.3614081250437E-04
(PID.TID 0000.0001) %MON dynstat_wvel_mean            =  -4.5336928612244E-07
(PID.TID 0000.0001) %MON dynstat_wvel_sd              =   8.5746365086808E-06
(PID.TID 0000.0001) %MON dynstat_wvel_del2            =   7.9562099133509E-08
(PID.TID 0000.0001) %MON dynstat_theta_max            =   3.0923231593980E+01
(PID.TID 0000.0001) %MON dynstat_theta_min            =  -3.0106812333229E+00
(PID.TID 0000.0001) %MON dynstat_theta_mean           =   3.9090385884041E+00
(PID.TID 0000.0001) %MON dynstat_theta_sd             =   4.5710078135114E+00
(PID.TID 0000.0001) %MON dynstat_theta_del2           =   2.6489437947118E-03
(PID.TID 0000.0001) %MON dynstat_salt_max             =   4.1368983830206E+01
(PID.TID 0000.0001) %MON dynstat_salt_min             =   1.8518490610404E+01
(PID.TID 0000.0001) %MON dynstat_salt_mean            =   3.4772121992389E+01
(PID.TID 0000.0001) %MON dynstat_salt_sd              =   5.3108740240616E-01
(PID.TID 0000.0001) %MON dynstat_salt_del2            =   8.3143143144742E-04
(PID.TID 0000.0001) %MON dynstat_sst_max              =   3.0923231593980E+01
(PID.TID 0000.0001) %MON dynstat_sst_min              =  -1.8995424521849E+00
(PID.TID 0000.0001) %MON dynstat_sst_mean             =   1.8104984269495E+01
(PID.TID 0000.0001) %MON dynstat_sst_sd               =   9.8044541483677E+00
(PID.TID 0000.0001) %MON dynstat_sst_del2             =   1.5180979909828E-02
(PID.TID 0000.0001) %MON dynstat_sss_max              =   4.1368983830206E+01
(PID.TID 0000.0001) %MON dynstat_sss_min              =   1.8751380799347E+01
(PID.TID 0000.0001) %MON dynstat_sss_mean             =   3.4636564393176E+01
(PID.TID 0000.0001) %MON dynstat_sss_sd               =   1.4607188918485E+00
(PID.TID 0000.0001) %MON dynstat_sss_del2             =   8.4596697661061E-03
(PID.TID 0000.0001) %MON forcing_qnet_max             =   9.9338027343750E+03
(PID.TID 0000.0001) %MON forcing_qnet_min             =  -5.8678237304688E+03
(PID.TID 0000.0001) %MON forcing_qnet_mean            =  -8.8827186981018E+01
(PID.TID 0000.0001) %MON forcing_qnet_sd              =   5.5834631993836E+02
(PID.TID 0000.0001) %MON forcing_qnet_del2            =   1.6406796924256E+01
(PID.TID 0000.0001) %MON forcing_qsw_max              =   0.0000000000000E+00
(PID.TID 0000.0001) %MON forcing_qsw_min              =  -1.0752197168263E+02
(PID.TID 0000.0001) %MON forcing_qsw_mean             =  -2.1841316370402E+01
(PID.TID 0000.0001) %MON forcing_qsw_sd               =   2.9991781967683E+01
(PID.TID 0000.0001) %MON forcing_qsw_del2             =   2.2903959388549E-01
(PID.TID 0000.0001) %MON forcing_empmr_max            =   1.3263986445963E-02
(PID.TID 0000.0001) %MON forcing_empmr_min            =  -2.2189147770405E-01
(PID.TID 0000.0001) %MON forcing_empmr_mean           =  -4.9349812068037E-04
(PID.TID 0000.0001) %MON forcing_empmr_sd             =   7.4900213210294E-03
(PID.TID 0000.0001) %MON forcing_empmr_del2           =   3.0349930012115E-04
(PID.TID 0000.0001) %MON forcing_fu_max               =   7.0549142242789E-01
(PID.TID 0000.0001) %MON forcing_fu_min               =  -4.6730989854799E-01
(PID.TID 0000.0001) %MON forcing_fu_mean              =  -5.1003396875200E-03
(PID.TID 0000.0001) %MON forcing_fu_sd                =   7.6226996982612E-02
(PID.TID 0000.0001) %MON forcing_fu_del2              =   7.8538171041145E-04
(PID.TID 0000.0001) %MON forcing_fv_max               =   3.5465421680307E-01
(PID.TID 0000.0001) %MON forcing_fv_min               =  -3.4079976292122E-01
(PID.TID 0000.0001) %MON forcing_fv_mean              =  -1.2341068293369E-02
(PID.TID 0000.0001) %MON forcing_fv_sd                =   7.4910145399939E-02
(PID.TID 0000.0001) %MON forcing_fv_del2              =   6.6234473288378E-04
(PID.TID 0000.0001) %MON trAdv_CFL_u_max              =   6.5334186576999E-03
(PID.TID 0000.0001) %MON trAdv_CFL_v_max              =   8.7866661023094E-03
(PID.TID 0000.0001) %MON trAdv_CFL_w_max              =   6.6958690957287E-03
(PID.TID 0000.0001) %MON advcfl_uvel_max              =   6.6853596818002E-03
(PID.TID 0000.0001) %MON advcfl_vvel_max              =   4.8348040688730E-03
(PID.TID 0000.0001) %MON advcfl_wvel_max              =   7.7179644418799E-03
(PID.TID 0000.0001) %MON advcfl_W_hf_max              =   6.6958690957287E-03
(PID.TID 0000.0001) %MON pe_b_mean                    =   4.9829661247959E-04
(PID.TID 0000.0001) %MON ke_max                       =   1.7070619425691E+00
(PID.TID 0000.0001) %MON ke_mean                      =   1.8778370774110E-04
(PID.TID 0000.0001) %MON ke_vol                       =   1.3398074026970E+18
(PID.TID 0000.0001) %MON vort_r_min                   =  -6.9949997280390E-06
(PID.TID 0000.0001) %MON vort_r_max                   =   3.9713865769976E-06
(PID.TID 0000.0001) %MON vort_a_mean                  =  -2.0549865324846E-05
(PID.TID 0000.0001) %MON vort_a_sd                    =   7.5259522484466E-05
(PID.TID 0000.0001) %MON vort_p_mean                  =  -2.4783384372247E-05
(PID.TID 0000.0001) %MON vort_p_sd                    =   1.2811917977190E-04
(PID.TID 0000.0001) %MON surfExpan_theta_mean         =  -7.7366080208153E-06
(PID.TID 0000.0001) %MON surfExpan_salt_mean          =   1.5758286883756E-06
(PID.TID 0000.0001) // =======================================================
(PID.TID 0000.0001) // End MONITOR dynamic field statistics
(PID.TID 0000.0001) // =======================================================
 cg2d: Sum(rhs),rhsMax =  -1.81722786801294E+01  6.85569901952527E+01
(PID.TID 0000.0001)      cg2d_init_res =   4.51697036216739E-01
(PID.TID 0000.0001)      cg2d_iters(min,last) =      -1      10
(PID.TID 0000.0001)      cg2d_last_res =   5.13082996683909E-08
(PID.TID 0000.0001) // =======================================================
(PID.TID 0000.0001) // Begin MONITOR dynamic field statistics
(PID.TID 0000.0001) // =======================================================
(PID.TID 0000.0001) %MON time_tsnumber                =                 72013
(PID.TID 0000.0001) %MON time_secondsf                =   6.4811700000000E+07
(PID.TID 0000.0001) %MON dynstat_eta_max              =   3.1460396368923E+00
(PID.TID 0000.0001) %MON dynstat_eta_min              =  -1.6103484590924E+00
(PID.TID 0000.0001) %MON dynstat_eta_mean             =   1.4476457656275E-02
(PID.TID 0000.0001) %MON dynstat_eta_sd               =   6.1097680331797E-01
(PID.TID 0000.0001) %MON dynstat_eta_del2             =   2.5212324580626E-03
(PID.TID 0000.0001) %MON dynstat_uvel_max             =   2.0099627670077E+00
(PID.TID 0000.0001) %MON dynstat_uvel_min             =  -9.7886750972064E-01
(PID.TID 0000.0001) %MON dynstat_uvel_mean            =  -1.3815926126907E-04
(PID.TID 0000.0001) %MON dynstat_uvel_sd              =   1.4246702470924E-02
(PID.TID 0000.0001) %MON dynstat_uvel_del2            =   1.4106013656327E-04
(PID.TID 0000.0001) %MON dynstat_vvel_max             =   1.3042490768381E+00
(PID.TID 0000.0001) %MON dynstat_vvel_min             =  -1.5706218273688E+00
(PID.TID 0000.0001) %MON dynstat_vvel_mean            =  -4.2061424373548E-04
(PID.TID 0000.0001) %MON dynstat_vvel_sd              =   1.4207900428549E-02
(PID.TID 0000.0001) %MON dynstat_vvel_del2            =   1.6481803066174E-04
(PID.TID 0000.0001) %MON dynstat_wvel_max             =   1.0825612527754E-04
(PID.TID 0000.0001) %MON dynstat_wvel_min             =  -5.5353513336406E-04
(PID.TID 0000.0001) %MON dynstat_wvel_mean            =  -4.4198337354793E-07
(PID.TID 0000.0001) %MON dynstat_wvel_sd              =   8.5718436811094E-06
(PID.TID 0000.0001) %MON dynstat_wvel_del2            =   7.9496044868922E-08
(PID.TID 0000.0001) %MON dynstat_theta_max            =   3.0923044701056E+01
(PID.TID 0000.0001) %MON dynstat_theta_min            =  -3.0103877443517E+00
(PID.TID 0000.0001) %MON dynstat_theta_mean           =   3.9090457519733E+00
(PID.TID 0000.0001) %MON dynstat_theta_sd             =   4.5710391614789E+00
(PID.TID 0000.0001) %MON dynstat_theta_del2           =   2.6485766232064E-03
(PID.TID 0000.0001) %MON dynstat_salt_max             =   4.1368032082306E+01
(PID.TID 0000.0001) %MON dynstat_salt_min             =   1.8518500393553E+01
(PID.TID 0000.0001) %MON dynstat_salt_mean            =   3.4772115634721E+01
(PID.TID 0000.0001) %MON dynstat_salt_sd              =   5.3110550760146E-01
(PID.TID 0000.0001) %MON dynstat_salt_del2            =   8.3594106947756E-04
(PID.TID 0000.0001) %MON dynstat_sst_max              =   3.0923044701056E+01
(PID.TID 0000.0001) %MON dynstat_sst_min              =  -1.8995137801489E+00
(PID.TID 0000.0001) %MON dynstat_sst_mean             =   1.8105330059479E+01
(PID.TID 0000.0001) %MON dynstat_sst_sd               =   9.8048770626526E+00
(PID.TID 0000.0001) %MON dynstat_sst_del2             =   1.5171439467700E-02
(PID.TID 0000.0001) %MON dynstat_sss_max              =   4.1368032082306E+01
(PID.TID 0000.0001) %MON dynstat_sss_min              =   1.8751381613241E+01
(PID.TID 0000.0001) %MON dynstat_sss_mean             =   3.4636105924291E+01
(PID.TID 0000.0001) %MON dynstat_sss_sd               =   1.4611614187093E+00
(PID.TID 0000.0001) %MON dynstat_sss_del2             =   8.5293983648621E-03
(PID.TID 0000.0001) %MON forcing_qnet_max             =   1.0017113281250E+04
(PID.TID 0000.0001) %MON forcing_qnet_min             =  -3.0881113268226E+03
(PID.TID 0000.0001) %MON forcing_qnet_mean            =  -7.9887740195423E+01
(PID.TID 0000.0001) %MON forcing_qnet_sd              =   5.2878875548149E+02
(PID.TID 0000.0001) %MON forcing_qnet_del2            =   1.4957161286311E+01
(PID.TID 0000.0001) %MON forcing_qsw_max              =   0.0000000000000E+00
(PID.TID 0000.0001) %MON forcing_qsw_min              =  -1.0743642452071E+02
(PID.TID 0000.0001) %MON forcing_qsw_mean             =  -2.1703394254504E+01
(PID.TID 0000.0001) %MON forcing_qsw_sd               =   3.0084519410673E+01
(PID.TID 0000.0001) %MON forcing_qsw_del2             =   2.3705007701302E-01
(PID.TID 0000.0001) %MON forcing_empmr_max            =   1.3380255550146E-02
(PID.TID 0000.0001) %MON forcing_empmr_min            =  -2.0921929180622E-01
(PID.TID 0000.0001) %MON forcing_empmr_mean           =  -4.8764572651436E-04
(PID.TID 0000.0001) %MON forcing_empmr_sd             =   7.3349594564952E-03
(PID.TID 0000.0001) %MON forcing_empmr_del2           =   2.9751277012048E-04
(PID.TID 0000.0001) %MON forcing_fu_max               =   6.9618359832692E-01
(PID.TID 0000.0001) %MON forcing_fu_min               =  -4.6658178698639E-01
(PID.TID 0000.0001) %MON forcing_fu_mean              =  -4.9170014008938E-03
(PID.TID 0000.0001) %MON forcing_fu_sd                =   7.6188390347895E-02
(PID.TID 0000.0001) %MON forcing_fu_del2              =   7.8136135785865E-04
(PID.TID 0000.0001) %MON forcing_fv_max               =   3.4837794648233E-01
(PID.TID 0000.0001) %MON forcing_fv_min               =  -3.4364180151787E-01
(PID.TID 0000.0001) %MON forcing_fv_mean              =  -1.2150447975462E-02
(PID.TID 0000.0001) %MON forcing_fv_sd                =   7.4677623814340E-02
(PID.TID 0000.0001) %MON forcing_fv_del2              =   6.6146623303102E-04
(PID.TID 0000.0001) %MON trAdv_CFL_u_max              =   6.5736855447000E-03
(PID.TID 0000.0001) %MON trAdv_CFL_v_max              =   8.6158514199916E-03
(PID.TID 0000.0001) %MON trAdv_CFL_w_max              =   6.4422036160786E-03
(PID.TID 0000.0001) %MON advcfl_uvel_max              =   6.7027567689317E-03
(PID.TID 0000.0001) %MON advcfl_vvel_max              =   4.7067914466575E-03
(PID.TID 0000.0001) %MON advcfl_wvel_max              =   7.2771927584773E-03
(PID.TID 0000.0001) %MON advcfl_W_hf_max              =   6.4422036160786E-03
(PID.TID 0000.0001) %MON pe_b_mean                    =   4.9757208244667E-04
(PID.TID 0000.0001) %MON ke_max                       =   1.6382127975158E+00
(PID.TID 0000.0001) %MON ke_mean                      =   1.8698810043866E-04
(PID.TID 0000.0001) %MON ke_vol                       =   1.3398075588513E+18
(PID.TID 0000.0001) %MON vort_r_min                   =  -7.5540894417206E-06
(PID.TID 0000.0001) %MON vort_r_max                   =   3.6285268600308E-06
(PID.TID 0000.0001) %MON vort_a_mean                  =  -2.0549865324846E-05
(PID.TID 0000.0001) %MON vort_a_sd                    =   7.5259520779512E-05
(PID.TID 0000.0001) %MON vort_p_mean                  =  -2.4783380425056E-05
(PID.TID 0000.0001) %MON vort_p_sd                    =   1.2811915735611E-04
(PID.TID 0000.0001) %MON surfExpan_theta_mean         =  -7.6927717381159E-06
(PID.TID 0000.0001) %MON surfExpan_salt_mean          =   1.6016948191148E-06
(PID.TID 0000.0001) // =======================================================
(PID.TID 0000.0001) // End MONITOR dynamic field statistics
(PID.TID 0000.0001) // =======================================================
 cg2d: Sum(rhs),rhsMax =  -1.72968546387167E+01  7.41137344653168E+01
(PID.TID 0000.0001)      cg2d_init_res =   3.98092867321110E-01
(PID.TID 0000.0001)      cg2d_iters(min,last) =      -1      10
(PID.TID 0000.0001)      cg2d_last_res =   4.62108033691084E-08
(PID.TID 0000.0001) // =======================================================
(PID.TID 0000.0001) // Begin MONITOR dynamic field statistics
(PID.TID 0000.0001) // =======================================================
(PID.TID 0000.0001) %MON time_tsnumber                =                 72014
(PID.TID 0000.0001) %MON time_secondsf                =   6.4812600000000E+07
(PID.TID 0000.0001) %MON dynstat_eta_max              =   3.3967605735177E+00
(PID.TID 0000.0001) %MON dynstat_eta_min              =  -1.6069549999447E+00
(PID.TID 0000.0001) %MON dynstat_eta_mean             =   1.4895908847548E-02
(PID.TID 0000.0001) %MON dynstat_eta_sd               =   6.1121233006101E-01
(PID.TID 0000.0001) %MON dynstat_eta_del2             =   2.6856237791947E-03
(PID.TID 0000.0001) %MON dynstat_uvel_max             =   1.9933410483560E+00
(PID.TID 0000.0001) %MON dynstat_uvel_min             =  -9.7648817107506E-01
(PID.TID 0000.0001) %MON dynstat_uvel_mean            =  -1.1403684063629E-04
(PID.TID 0000.0001) %MON dynstat_uvel_sd              =   1.4209862692094E-02
(PID.TID 0000.0001) %MON dynstat_uvel_del2            =   1.3805874452113E-04
(PID.TID 0000.0001) %MON dynstat_vvel_max             =   1.2470871561211E+00
(PID.TID 0000.0001) %MON dynstat_vvel_min             =  -1.5020837097167E+00
(PID.TID 0000.0001) %MON dynstat_vvel_mean            =  -4.2591679051689E-04
(PID.TID 0000.0001) %MON dynstat_vvel_sd              =   1.4115106083889E-02
(PID.TID 0000.0001) %MON dynstat_vvel_del2            =   1.5527365548328E-04
(PID.TID 0000.0001) %MON dynstat_wvel_max             =   1.0492396279243E-04
(PID.TID 0000.0001) %MON dynstat_wvel_min             =  -5.6110862910797E-04
(PID.TID 0000.0001) %MON dynstat_wvel_mean            =  -4.2892505357054E-07
(PID.TID 0000.0001) %MON dynstat_wvel_sd              =   8.5658590158972E-06
(PID.TID 0000.0001) %MON dynstat_wvel_del2            =   7.9649200911293E-08
(PID.TID 0000.0001) %MON dynstat_theta_max            =   3.0922869369200E+01
(PID.TID 0000.0001) %MON dynstat_theta_min            =  -3.0100565812250E+00
(PID.TID 0000.0001) %MON dynstat_theta_mean           =   3.9090525503940E+00
(PID.TID 0000.0001) %MON dynstat_theta_sd             =   4.5710687955079E+00
(PID.TID 0000.0001) %MON dynstat_theta_del2           =   2.6482471998199E-03
(PID.TID 0000.0001) %MON dynstat_salt_max             =   4.1367098099168E+01
(PID.TID 0000.0001) %MON dynstat_salt_min             =   1.8518510215399E+01
(PID.TID 0000.0001) %MON dynstat_salt_mean            =   3.4772109450636E+01
(PID.TID 0000.0001) %MON dynstat_salt_sd              =   5.3112397477783E-01
(PID.TID 0000.0001) %MON dynstat_salt_del2            =   8.4063235861047E-04
(PID.TID 0000.0001) %MON dynstat_sst_max              =   3.0922869369200E+01
(PID.TID 0000.0001) %MON dynstat_sst_min              =  -1.8994866813819E+00
(PID.TID 0000.0001) %MON dynstat_sst_mean             =   1.8105653144259E+01
(PID.TID 0000.0001) %MON dynstat_sst_sd               =   9.8052798152515E+00
(PID.TID 0000.0001) %MON dynstat_sst_del2             =   1.5162959435442E-02
(PID.TID 0000.0001) %MON dynstat_sss_max              =   4.1367098099168E+01
(PID.TID 0000.0001) %MON dynstat_sss_min              =   1.8751382474305E+01
(PID.TID 0000.0001) %MON dynstat_sss_mean             =   3.4635659870930E+01
(PID.TID 0000.0001) %MON dynstat_sss_sd               =   1.4616158468607E+00
(PID.TID 0000.0001) %MON dynstat_sss_del2             =   8.6017181183943E-03
(PID.TID 0000.0001) %MON forcing_qnet_max             =   8.3821435546875E+03
(PID.TID 0000.0001) %MON forcing_qnet_min             =  -3.5485219726562E+03
(PID.TID 0000.0001) %MON forcing_qnet_mean            =  -7.4193445108812E+01
(PID.TID 0000.0001) %MON forcing_qnet_sd              =   4.9355450268475E+02
(PID.TID 0000.0001) %MON forcing_qnet_del2            =   1.4125848607687E+01
(PID.TID 0000.0001) %MON forcing_qsw_max              =   0.0000000000000E+00
(PID.TID 0000.0001) %MON forcing_qsw_min              =  -1.0669601166665E+02
(PID.TID 0000.0001) %MON forcing_qsw_mean             =  -2.1514169048654E+01
(PID.TID 0000.0001) %MON forcing_qsw_sd               =   2.9934960344651E+01
(PID.TID 0000.0001) %MON forcing_qsw_del2             =   2.3937380352734E-01
(PID.TID 0000.0001) %MON forcing_empmr_max            =   1.3299798592925E-02
(PID.TID 0000.0001) %MON forcing_empmr_min            =  -1.9894824922085E-01
(PID.TID 0000.0001) %MON forcing_empmr_mean           =  -4.8236886996404E-04
(PID.TID 0000.0001) %MON forcing_empmr_sd             =   7.2118980093432E-03
(PID.TID 0000.0001) %MON forcing_empmr_del2           =   2.9290100763458E-04
(PID.TID 0000.0001) %MON forcing_fu_max               =   6.8737236363230E-01
(PID.TID 0000.0001) %MON forcing_fu_min               =  -4.6038342332173E-01
(PID.TID 0000.0001) %MON forcing_fu_mean              =  -4.7184854358947E-03
(PID.TID 0000.0001) %MON forcing_fu_sd                =   7.6139541480637E-02
(PID.TID 0000.0001) %MON forcing_fu_del2              =   7.7717424888625E-04
(PID.TID 0000.0001) %MON forcing_fv_max               =   3.3873516432719E-01
(PID.TID 0000.0001) %MON forcing_fv_min               =  -3.4602054432734E-01
(PID.TID 0000.0001) %MON forcing_fv_mean              =  -1.1967762042960E-02
(PID.TID 0000.0001) %MON forcing_fv_sd                =   7.4382671588334E-02
(PID.TID 0000.0001) %MON forcing_fv_del2              =   6.5948028485784E-04
(PID.TID 0000.0001) %MON trAdv_CFL_u_max              =   6.5401790850285E-03
(PID.TID 0000.0001) %MON trAdv_CFL_v_max              =   8.3055044233250E-03
(PID.TID 0000.0001) %MON trAdv_CFL_w_max              =   6.1628918916282E-03
(PID.TID 0000.0001) %MON advcfl_uvel_max              =   6.6473272161895E-03
(PID.TID 0000.0001) %MON advcfl_vvel_max              =   4.5013985122709E-03
(PID.TID 0000.0001) %MON advcfl_wvel_max              =   6.9199391033338E-03
(PID.TID 0000.0001) %MON advcfl_W_hf_max              =   6.1628918916282E-03
(PID.TID 0000.0001) %MON pe_b_mean                    =   4.9797191680414E-04
(PID.TID 0000.0001) %MON ke_max                       =   1.5229134680098E+00
(PID.TID 0000.0001) %MON ke_mean                      =   1.8528642351522E-04
(PID.TID 0000.0001) %MON ke_vol                       =   1.3398077131537E+18
(PID.TID 0000.0001) %MON vort_r_min                   =  -8.0240447400669E-06
(PID.TID 0000.0001) %MON vort_r_max                   =   3.2104792398590E-06
(PID.TID 0000.0001) %MON vort_a_mean                  =  -2.0549865324846E-05
(PID.TID 0000.0001) %MON vort_a_sd                    =   7.5259519212046E-05
(PID.TID 0000.0001) %MON vort_p_mean                  =  -2.4783376620320E-05
(PID.TID 0000.0001) %MON vort_p_sd                    =   1.2811914308395E-04
(PID.TID 0000.0001) %MON surfExpan_theta_mean         =  -7.6571666770978E-06
(PID.TID 0000.0001) %MON surfExpan_salt_mean          =   1.6152838780793E-06
(PID.TID 0000.0001) // =======================================================
(PID.TID 0000.0001) // End MONITOR dynamic field statistics
(PID.TID 0000.0001) // =======================================================
 cg2d: Sum(rhs),rhsMax =  -1.66828882991027E+01  7.89839470981059E+01
(PID.TID 0000.0001)      cg2d_init_res =   3.46929522841439E-01
(PID.TID 0000.0001)      cg2d_iters(min,last) =      -1      10
(PID.TID 0000.0001)      cg2d_last_res =   4.17583573190023E-08
(PID.TID 0000.0001) // =======================================================
(PID.TID 0000.0001) // Begin MONITOR dynamic field statistics
(PID.TID 0000.0001) // =======================================================
(PID.TID 0000.0001) %MON time_tsnumber                =                 72015
(PID.TID 0000.0001) %MON time_secondsf                =   6.4813500000000E+07
(PID.TID 0000.0001) %MON dynstat_eta_max              =   3.6164583843115E+00
(PID.TID 0000.0001) %MON dynstat_eta_min              =  -1.7981115022688E+00
(PID.TID 0000.0001) %MON dynstat_eta_mean             =   1.5311271177133E-02
(PID.TID 0000.0001) %MON dynstat_eta_sd               =   6.1201305250828E-01
(PID.TID 0000.0001) %MON dynstat_eta_del2             =   2.9027924475096E-03
(PID.TID 0000.0001) %MON dynstat_uvel_max             =   1.9557206809665E+00
(PID.TID 0000.0001) %MON dynstat_uvel_min             =  -9.6553460564482E-01
(PID.TID 0000.0001) %MON dynstat_uvel_mean            =  -9.0702678739173E-05
(PID.TID 0000.0001) %MON dynstat_uvel_sd              =   1.4129020854039E-02
(PID.TID 0000.0001) %MON dynstat_uvel_del2            =   1.3408051404289E-04
(PID.TID 0000.0001) %MON dynstat_vvel_max             =   1.1730478655359E+00
(PID.TID 0000.0001) %MON dynstat_vvel_min             =  -1.4099224649871E+00
(PID.TID 0000.0001) %MON dynstat_vvel_mean            =  -4.2946998774081E-04
(PID.TID 0000.0001) %MON dynstat_vvel_sd              =   1.4013529406300E-02
(PID.TID 0000.0001) %MON dynstat_vvel_del2            =   1.4526075857957E-04
(PID.TID 0000.0001) %MON dynstat_wvel_max             =   1.1698470466437E-04
(PID.TID 0000.0001) %MON dynstat_wvel_min             =  -5.5783026519685E-04
(PID.TID 0000.0001) %MON dynstat_wvel_mean            =  -4.1534569538635E-07
(PID.TID 0000.0001) %MON dynstat_wvel_sd              =   8.5688939464790E-06
(PID.TID 0000.0001) %MON dynstat_wvel_del2            =   7.9864503079319E-08
(PID.TID 0000.0001) %MON dynstat_theta_max            =   3.0922706533059E+01
(PID.TID 0000.0001) %MON dynstat_theta_min            =  -3.0096727449458E+00
(PID.TID 0000.0001) %MON dynstat_theta_mean           =   3.9090590744074E+00
(PID.TID 0000.0001) %MON dynstat_theta_sd             =   4.5710965223771E+00
(PID.TID 0000.0001) %MON dynstat_theta_del2           =   2.6479815929966E-03
(PID.TID 0000.0001) %MON dynstat_salt_max             =   4.1366190071703E+01
(PID.TID 0000.0001) %MON dynstat_salt_min             =   1.8518520062775E+01
(PID.TID 0000.0001) %MON dynstat_salt_mean            =   3.4772103447558E+01
(PID.TID 0000.0001) %MON dynstat_salt_sd              =   5.3114276319658E-01
(PID.TID 0000.0001) %MON dynstat_salt_del2            =   8.4547998402301E-04
(PID.TID 0000.0001) %MON dynstat_sst_max              =   3.0922706533059E+01
(PID.TID 0000.0001) %MON dynstat_sst_min              =  -1.8994595944412E+00
(PID.TID 0000.0001) %MON dynstat_sst_mean             =   1.8105956642803E+01
(PID.TID 0000.0001) %MON dynstat_sst_sd               =   9.8056424223671E+00
(PID.TID 0000.0001) %MON dynstat_sst_del2             =   1.5156335510157E-02
(PID.TID 0000.0001) %MON dynstat_sss_max              =   4.1366190071703E+01
(PID.TID 0000.0001) %MON dynstat_sss_min              =   1.8751383222403E+01
(PID.TID 0000.0001) %MON dynstat_sss_mean             =   3.4635225281489E+01
(PID.TID 0000.0001) %MON dynstat_sss_sd               =   1.4620776510346E+00
(PID.TID 0000.0001) %MON dynstat_sss_del2             =   8.6762748031525E-03
(PID.TID 0000.0001) %MON forcing_qnet_max             =   7.4669404296875E+03
(PID.TID 0000.0001) %MON forcing_qnet_min             =  -4.3779853515625E+03
(PID.TID 0000.0001) %MON forcing_qnet_mean            =  -7.0009028698464E+01
(PID.TID 0000.0001) %MON forcing_qnet_sd              =   4.4693794317939E+02
(PID.TID 0000.0001) %MON forcing_qnet_del2            =   1.2948595252572E+01
(PID.TID 0000.0001) %MON forcing_qsw_max              =   0.0000000000000E+00
(PID.TID 0000.0001) %MON forcing_qsw_min              =  -1.0550416392831E+02
(PID.TID 0000.0001) %MON forcing_qsw_mean             =  -2.1267357256282E+01
(PID.TID 0000.0001) %MON forcing_qsw_sd               =   2.9723887602631E+01
(PID.TID 0000.0001) %MON forcing_qsw_del2             =   2.4140477267084E-01
(PID.TID 0000.0001) %MON forcing_empmr_max            =   1.3104118406773E-02
(PID.TID 0000.0001) %MON forcing_empmr_min            =  -1.8996815383434E-01
(PID.TID 0000.0001) %MON forcing_empmr_mean           =  -4.7766667902304E-04
(PID.TID 0000.0001) %MON forcing_empmr_sd             =   7.0971521758531E-03
(PID.TID 0000.0001) %MON forcing_empmr_del2           =   2.8852581258257E-04
(PID.TID 0000.0001) %MON forcing_fu_max               =   6.7259847314940E-01
(PID.TID 0000.0001) %MON forcing_fu_min               =  -4.5074888929254E-01
(PID.TID 0000.0001) %MON forcing_fu_mean              =  -4.6130256547262E-03
(PID.TID 0000.0001) %MON forcing_fu_sd                =   7.5747653490035E-02
(PID.TID 0000.0001) %MON forcing_fu_del2              =   7.7084607838776E-04
(PID.TID 0000.0001) %MON forcing_fv_max               =   3.2942676904693E-01
(PID.TID 0000.0001) %MON forcing_fv_min               =  -3.5049856593437E-01
(PID.TID 0000.0001) %MON forcing_fv_mean              =  -1.1773514547017E-02
(PID.TID 0000.0001) %MON forcing_fv_sd                =   7.3984607796836E-02
(PID.TID 0000.0001) %MON forcing_fv_del2              =   6.5682177889424E-04
(PID.TID 0000.0001) %MON trAdv_CFL_u_max              =   6.4354367797926E-03
(PID.TID 0000.0001) %MON trAdv_CFL_v_max              =   7.8639229236842E-03
(PID.TID 0000.0001) %MON trAdv_CFL_w_max              =   5.8701641299084E-03
(PID.TID 0000.0001) %MON advcfl_uvel_max              =   6.5218720702989E-03
(PID.TID 0000.0001) %MON advcfl_vvel_max              =   4.2252125132942E-03
(PID.TID 0000.0001) %MON advcfl_wvel_max              =   6.6075879594554E-03
(PID.TID 0000.0001) %MON advcfl_W_hf_max              =   5.8701641299084E-03
(PID.TID 0000.0001) %MON pe_b_mean                    =   4.9929339662854E-04
(PID.TID 0000.0001) %MON ke_max                       =   1.3705789127235E+00
(PID.TID 0000.0001) %MON ke_mean                      =   1.8290758267431E-04
(PID.TID 0000.0001) %MON ke_vol                       =   1.3398078657864E+18
(PID.TID 0000.0001) %MON vort_r_min                   =  -8.3928487270526E-06
(PID.TID 0000.0001) %MON vort_r_max                   =   3.1274627680455E-06
(PID.TID 0000.0001) %MON vort_a_mean                  =  -2.0549865324846E-05
(PID.TID 0000.0001) %MON vort_a_sd                    =   7.5259517889399E-05
(PID.TID 0000.0001) %MON vort_p_mean                  =  -2.4783372958885E-05
(PID.TID 0000.0001) %MON vort_p_sd                    =   1.2811913631697E-04
(PID.TID 0000.0001) %MON surfExpan_theta_mean         =  -7.6276540703644E-06
(PID.TID 0000.0001) %MON surfExpan_salt_mean          =   1.6169399823686E-06
(PID.TID 0000.0001) // =======================================================
(PID.TID 0000.0001) // End MONITOR dynamic field statistics
(PID.TID 0000.0001) // =======================================================
 Computing Diagnostic #     81  oceTAUX      Counter:       1   Parms: UU      U1      
           Vector  Mate for  oceTAUX      Diagnostic #     82  oceTAUY  exists 
 Computing Diagnostic #     82  oceTAUY      Counter:       1   Parms: VV      U1      
           Vector  Mate for  oceTAUY      Diagnostic #     81  oceTAUX  exists 
 Computing Diagnostic #     85  oceFWflx     Counter:       1   Parms: SM      U1      
 Computing Diagnostic #     86  oceSflux     Counter:       1   Parms: SM      U1      
 Computing Diagnostic #     87  oceQnet      Counter:       1   Parms: SM      U1      
 Computing Diagnostic #     88  oceQsw       Counter:       1   Parms: SM      U1      
 Computing Diagnostic #     27  SALT         Counter:       1   Parms: SMR     MR      
 Computing Diagnostic #     26  THETA        Counter:       1   Parms: SMR     MR      
 Computing Diagnostic #     45  UVELMASS     Counter:       1   Parms: UUr     MR      
           Vector  Mate for  UVELMASS     Diagnostic #     46  VVELMASS exists 
 Computing Diagnostic #     46  VVELMASS     Counter:       1   Parms: VVr     MR      
           Vector  Mate for  VVELMASS     Diagnostic #     45  UVELMASS exists 
 cg2d: Sum(rhs),rhsMax =  -1.62885016056777E+01  8.30709704461491E+01
(PID.TID 0000.0001)      cg2d_init_res =   2.99795981498285E-01
(PID.TID 0000.0001)      cg2d_iters(min,last) =      -1      10
(PID.TID 0000.0001)      cg2d_last_res =   4.21656599995079E-08
(PID.TID 0000.0001) // =======================================================
(PID.TID 0000.0001) // Begin MONITOR dynamic field statistics
(PID.TID 0000.0001) // =======================================================
(PID.TID 0000.0001) %MON time_tsnumber                =                 72016
(PID.TID 0000.0001) %MON time_secondsf                =   6.4814400000000E+07
(PID.TID 0000.0001) %MON dynstat_eta_max              =   3.8007468626135E+00
(PID.TID 0000.0001) %MON dynstat_eta_min              =  -2.0057114372081E+00
(PID.TID 0000.0001) %MON dynstat_eta_mean             =   1.5722861622878E-02
(PID.TID 0000.0001) %MON dynstat_eta_sd               =   6.1319757138230E-01
(PID.TID 0000.0001) %MON dynstat_eta_del2             =   3.1341173104885E-03
(PID.TID 0000.0001) %MON dynstat_uvel_max             =   1.8977908492057E+00
(PID.TID 0000.0001) %MON dynstat_uvel_min             =  -9.4664262403812E-01
(PID.TID 0000.0001) %MON dynstat_uvel_mean            =  -6.8209548986802E-05
(PID.TID 0000.0001) %MON dynstat_uvel_sd              =   1.4015564078961E-02
(PID.TID 0000.0001) %MON dynstat_uvel_del2            =   1.2936251477764E-04
(PID.TID 0000.0001) %MON dynstat_vvel_max             =   1.0842795820374E+00
(PID.TID 0000.0001) %MON dynstat_vvel_min             =  -1.2966855116257E+00
(PID.TID 0000.0001) %MON dynstat_vvel_mean            =  -4.3133188390274E-04
(PID.TID 0000.0001) %MON dynstat_vvel_sd              =   1.3914681601291E-02
(PID.TID 0000.0001) %MON dynstat_vvel_del2            =   1.3529999330045E-04
(PID.TID 0000.0001) %MON dynstat_wvel_max             =   1.2764965963915E-04
(PID.TID 0000.0001) %MON dynstat_wvel_min             =  -5.4333427082787E-04
(PID.TID 0000.0001) %MON dynstat_wvel_mean            =  -4.0131834618301E-07
(PID.TID 0000.0001) %MON dynstat_wvel_sd              =   8.6092340156908E-06
(PID.TID 0000.0001) %MON dynstat_wvel_del2            =   8.0235521023095E-08
(PID.TID 0000.0001) %MON dynstat_theta_max            =   3.0922557117479E+01
(PID.TID 0000.0001) %MON dynstat_theta_min            =  -3.0092371177999E+00
(PID.TID 0000.0001) %MON dynstat_theta_mean           =   3.9090653386960E+00
(PID.TID 0000.0001) %MON dynstat_theta_sd             =   4.5711222108019E+00
(PID.TID 0000.0001) %MON dynstat_theta_del2           =   2.6477648810953E-03
(PID.TID 0000.0001) %MON dynstat_salt_max             =   4.1365314996426E+01
(PID.TID 0000.0001) %MON dynstat_salt_min             =   1.8518529922820E+01
(PID.TID 0000.0001) %MON dynstat_salt_mean            =   3.4772097623101E+01
(PID.TID 0000.0001) %MON dynstat_salt_sd              =   5.3116187435741E-01
(PID.TID 0000.0001) %MON dynstat_salt_del2            =   8.5046781674657E-04
(PID.TID 0000.0001) %MON dynstat_sst_max              =   3.0922557117479E+01
(PID.TID 0000.0001) %MON dynstat_sst_min              =  -1.8994331126965E+00
(PID.TID 0000.0001) %MON dynstat_sst_mean             =   1.8106240903889E+01
(PID.TID 0000.0001) %MON dynstat_sst_sd               =   9.8059612579393E+00
(PID.TID 0000.0001) %MON dynstat_sst_del2             =   1.5151019034859E-02
(PID.TID 0000.0001) %MON dynstat_sss_max              =   4.1365314996426E+01
(PID.TID 0000.0001) %MON dynstat_sss_min              =   1.8751383975952E+01
(PID.TID 0000.0001) %MON dynstat_sss_mean             =   3.4634802197731E+01
(PID.TID 0000.0001) %MON dynstat_sss_sd               =   1.4625483723802E+00
(PID.TID 0000.0001) %MON dynstat_sss_del2             =   8.7527861318108E-03
(PID.TID 0000.0001) %MON forcing_qnet_max             =   8.8314960937500E+03
(PID.TID 0000.0001) %MON forcing_qnet_min             =  -2.1818597141247E+03
(PID.TID 0000.0001) %MON forcing_qnet_mean            =  -6.6053295085633E+01
(PID.TID 0000.0001) %MON forcing_qnet_sd              =   4.0447101029897E+02
(PID.TID 0000.0001) %MON forcing_qnet_del2            =   1.2248615918250E+01
(PID.TID 0000.0001) %MON forcing_qsw_max              =   0.0000000000000E+00
(PID.TID 0000.0001) %MON forcing_qsw_min              =  -1.0475246206973E+02
(PID.TID 0000.0001) %MON forcing_qsw_mean             =  -2.0957842035843E+01
(PID.TID 0000.0001) %MON forcing_qsw_sd               =   2.9458236107915E+01
(PID.TID 0000.0001) %MON forcing_qsw_del2             =   2.4312224512388E-01
(PID.TID 0000.0001) %MON forcing_empmr_max            =   1.2832446023822E-02
(PID.TID 0000.0001) %MON forcing_empmr_min            =  -1.8177358806133E-01
(PID.TID 0000.0001) %MON forcing_empmr_mean           =  -4.7332901260649E-04
(PID.TID 0000.0001) %MON forcing_empmr_sd             =   6.9985111188557E-03
(PID.TID 0000.0001) %MON forcing_empmr_del2           =   2.8499979526012E-04
(PID.TID 0000.0001) %MON forcing_fu_max               =   6.6129571955117E-01
(PID.TID 0000.0001) %MON forcing_fu_min               =  -4.4228789787121E-01
(PID.TID 0000.0001) %MON forcing_fu_mean              =  -4.5035078277850E-03
(PID.TID 0000.0001) %MON forcing_fu_sd                =   7.5318430753124E-02
(PID.TID 0000.0001) %MON forcing_fu_del2              =   7.6399916641405E-04
(PID.TID 0000.0001) %MON forcing_fv_max               =   3.2366218160672E-01
(PID.TID 0000.0001) %MON forcing_fv_min               =  -3.5380377496629E-01
(PID.TID 0000.0001) %MON forcing_fv_mean              =  -1.1551691997494E-02
(PID.TID 0000.0001) %MON forcing_fv_sd                =   7.3700827226115E-02
(PID.TID 0000.0001) %MON forcing_fv_del2              =   6.5425291362706E-04
(PID.TID 0000.0001) %MON trAdv_CFL_u_max              =   6.2616922902264E-03
(PID.TID 0000.0001) %MON trAdv_CFL_v_max              =   7.3018982157982E-03
(PID.TID 0000.0001) %MON trAdv_CFL_w_max              =   5.5719035620838E-03
(PID.TID 0000.0001) %MON advcfl_uvel_max              =   6.3286896002893E-03
(PID.TID 0000.0001) %MON advcfl_vvel_max              =   3.8858674753991E-03
(PID.TID 0000.0001) %MON advcfl_wvel_max              =   6.3225595847420E-03
(PID.TID 0000.0001) %MON advcfl_W_hf_max              =   5.5719035620838E-03
(PID.TID 0000.0001) %MON pe_b_mean                    =   5.0124372861475E-04
(PID.TID 0000.0001) %MON ke_max                       =   1.1923786802445E+00
(PID.TID 0000.0001) %MON ke_mean                      =   1.8015896644184E-04
(PID.TID 0000.0001) %MON ke_vol                       =   1.3398080169313E+18
(PID.TID 0000.0001) %MON vort_r_min                   =  -8.6513439005472E-06
(PID.TID 0000.0001) %MON vort_r_max                   =   3.0977261149111E-06
(PID.TID 0000.0001) %MON vort_a_mean                  =  -2.0549865324846E-05
(PID.TID 0000.0001) %MON vort_a_sd                    =   7.5259516878375E-05
(PID.TID 0000.0001) %MON vort_p_mean                  =  -2.4783369437407E-05
(PID.TID 0000.0001) %MON vort_p_sd                    =   1.2811913561366E-04
(PID.TID 0000.0001) %MON surfExpan_theta_mean         =  -7.6005144363002E-06
(PID.TID 0000.0001) %MON surfExpan_salt_mean          =   1.6087080100717E-06
(PID.TID 0000.0001) // =======================================================
(PID.TID 0000.0001) // End MONITOR dynamic field statistics
(PID.TID 0000.0001) // =======================================================
 cg2d: Sum(rhs),rhsMax =  -1.60848366545298E+01  8.62979709538235E+01
(PID.TID 0000.0001)      cg2d_init_res =   2.59292652111671E-01
(PID.TID 0000.0001)      cg2d_iters(min,last) =      -1      10
(PID.TID 0000.0001)      cg2d_last_res =   3.93957667154760E-08
(PID.TID 0000.0001) // =======================================================
(PID.TID 0000.0001) // Begin MONITOR dynamic field statistics
(PID.TID 0000.0001) // =======================================================
(PID.TID 0000.0001) %MON time_tsnumber                =                 72017
(PID.TID 0000.0001) %MON time_secondsf                =   6.4815300000000E+07
(PID.TID 0000.0001) %MON dynstat_eta_max              =   3.9461338826853E+00
(PID.TID 0000.0001) %MON dynstat_eta_min              =  -2.2821243120560E+00
(PID.TID 0000.0001) %MON dynstat_eta_mean             =   1.6129407445811E-02
(PID.TID 0000.0001) %MON dynstat_eta_sd               =   6.1457543469881E-01
(PID.TID 0000.0001) %MON dynstat_eta_del2             =   3.3503520535221E-03
(PID.TID 0000.0001) %MON dynstat_uvel_max             =   1.8201700935714E+00
(PID.TID 0000.0001) %MON dynstat_uvel_min             =  -9.2052162603683E-01
(PID.TID 0000.0001) %MON dynstat_uvel_mean            =  -4.6827340549688E-05
(PID.TID 0000.0001) %MON dynstat_uvel_sd              =   1.3882618447491E-02
(PID.TID 0000.0001) %MON dynstat_uvel_del2            =   1.2418202685143E-04
(PID.TID 0000.0001) %MON dynstat_vvel_max             =   9.8309518178250E-01
(PID.TID 0000.0001) %MON dynstat_vvel_min             =  -1.1651980057864E+00
(PID.TID 0000.0001) %MON dynstat_vvel_mean            =  -4.3179933747053E-04
(PID.TID 0000.0001) %MON dynstat_vvel_sd              =   1.3828521029310E-02
(PID.TID 0000.0001) %MON dynstat_vvel_del2            =   1.2592020942128E-04
(PID.TID 0000.0001) %MON dynstat_wvel_max             =   1.3008920980807E-04
(PID.TID 0000.0001) %MON dynstat_wvel_min             =  -5.1827199645269E-04
(PID.TID 0000.0001) %MON dynstat_wvel_mean            =  -3.8649891477108E-07
(PID.TID 0000.0001) %MON dynstat_wvel_sd              =   8.7026767294381E-06
(PID.TID 0000.0001) %MON dynstat_wvel_del2            =   8.0741698842810E-08
(PID.TID 0000.0001) %MON dynstat_theta_max            =   3.0922440881666E+01
(PID.TID 0000.0001) %MON dynstat_theta_min            =  -3.0087638457616E+00
(PID.TID 0000.0001) %MON dynstat_theta_mean           =   3.9090713116390E+00
(PID.TID 0000.0001) %MON dynstat_theta_sd             =   4.5711463171237E+00
(PID.TID 0000.0001) %MON dynstat_theta_del2           =   2.6475847294163E-03
(PID.TID 0000.0001) %MON dynstat_salt_max             =   4.1364478374346E+01
(PID.TID 0000.0001) %MON dynstat_salt_min             =   1.8518539786072E+01
(PID.TID 0000.0001) %MON dynstat_salt_mean            =   3.4772092038430E+01
(PID.TID 0000.0001) %MON dynstat_salt_sd              =   5.3118132466890E-01
(PID.TID 0000.0001) %MON dynstat_salt_del2            =   8.5558085746756E-04
(PID.TID 0000.0001) %MON dynstat_sst_max              =   3.0922440881666E+01
(PID.TID 0000.0001) %MON dynstat_sst_min              =  -1.8994054844469E+00
(PID.TID 0000.0001) %MON dynstat_sst_mean             =   1.8106513313890E+01
(PID.TID 0000.0001) %MON dynstat_sst_sd               =   9.8062552587976E+00
(PID.TID 0000.0001) %MON dynstat_sst_del2             =   1.5146714733163E-02
(PID.TID 0000.0001) %MON dynstat_sss_max              =   4.1364478374346E+01
(PID.TID 0000.0001) %MON dynstat_sss_min              =   1.8751384651545E+01
(PID.TID 0000.0001) %MON dynstat_sss_mean             =   3.4634398198971E+01
(PID.TID 0000.0001) %MON dynstat_sss_sd               =   1.4630325942654E+00
(PID.TID 0000.0001) %MON dynstat_sss_del2             =   8.8310076198340E-03
(PID.TID 0000.0001) %MON forcing_qnet_max             =   1.0172735351562E+04
(PID.TID 0000.0001) %MON forcing_qnet_min             =  -2.1824297889220E+03
(PID.TID 0000.0001) %MON forcing_qnet_mean            =  -6.1671035539097E+01
(PID.TID 0000.0001) %MON forcing_qnet_sd              =   3.7982388197030E+02
(PID.TID 0000.0001) %MON forcing_qnet_del2            =   1.2006777214196E+01
(PID.TID 0000.0001) %MON forcing_qsw_max              =   0.0000000000000E+00
(PID.TID 0000.0001) %MON forcing_qsw_min              =  -1.0660235766184E+02
(PID.TID 0000.0001) %MON forcing_qsw_mean             =  -2.0445995023843E+01
(PID.TID 0000.0001) %MON forcing_qsw_sd               =   2.9024191452439E+01
(PID.TID 0000.0001) %MON forcing_qsw_del2             =   2.4973671398919E-01
(PID.TID 0000.0001) %MON forcing_empmr_max            =   1.2641799636185E-02
(PID.TID 0000.0001) %MON forcing_empmr_min            =  -1.7512334883213E-01
(PID.TID 0000.0001) %MON forcing_empmr_mean           =  -4.6752769637280E-04
(PID.TID 0000.0001) %MON forcing_empmr_sd             =   6.9026125982016E-03
(PID.TID 0000.0001) %MON forcing_empmr_del2           =   2.8133641884115E-04
(PID.TID 0000.0001) %MON forcing_fu_max               =   6.4747592553671E-01
(PID.TID 0000.0001) %MON forcing_fu_min               =  -4.3344609259710E-01
(PID.TID 0000.0001) %MON forcing_fu_mean              =  -4.4043116030423E-03
(PID.TID 0000.0001) %MON forcing_fu_sd                =   7.4835435460446E-02
(PID.TID 0000.0001) %MON forcing_fu_del2              =   7.5657790324822E-04
(PID.TID 0000.0001) %MON forcing_fv_max               =   3.1926329149983E-01
(PID.TID 0000.0001) %MON forcing_fv_min               =  -3.5884604367364E-01
(PID.TID 0000.0001) %MON forcing_fv_mean              =  -1.1366727236478E-02
(PID.TID 0000.0001) %MON forcing_fv_sd                =   7.3384295025963E-02
(PID.TID 0000.0001) %MON forcing_fv_del2              =   6.5099736061871E-04
(PID.TID 0000.0001) %MON trAdv_CFL_u_max              =   6.0209837653185E-03
(PID.TID 0000.0001) %MON trAdv_CFL_v_max              =   6.6326047074557E-03
(PID.TID 0000.0001) %MON trAdv_CFL_w_max              =   5.2723047764006E-03
(PID.TID 0000.0001) %MON advcfl_uvel_max              =   6.0698424943740E-03
(PID.TID 0000.0001) %MON advcfl_vvel_max              =   3.4918297401261E-03
(PID.TID 0000.0001) %MON advcfl_wvel_max              =   6.0912469159002E-03
(PID.TID 0000.0001) %MON advcfl_W_hf_max              =   5.2723047764006E-03
(PID.TID 0000.0001) %MON pe_b_mean                    =   5.0351457541861E-04
(PID.TID 0000.0001) %MON ke_max                       =   1.0002982536294E+00
(PID.TID 0000.0001) %MON ke_mean                      =   1.7734516598087E-04
(PID.TID 0000.0001) %MON ke_vol                       =   1.3398081667036E+18
(PID.TID 0000.0001) %MON vort_r_min                   =  -8.7932634252461E-06
(PID.TID 0000.0001) %MON vort_r_max                   =   3.0499957269760E-06
(PID.TID 0000.0001) %MON vort_a_mean                  =  -2.0549865324846E-05
(PID.TID 0000.0001) %MON vort_a_sd                    =   7.5259516176503E-05
(PID.TID 0000.0001) %MON vort_p_mean                  =  -2.4783366050068E-05
(PID.TID 0000.0001) %MON vort_p_sd                    =   1.2811913886780E-04
(PID.TID 0000.0001) %MON surfExpan_theta_mean         =  -7.5536416007126E-06
(PID.TID 0000.0001) %MON surfExpan_salt_mean          =   1.5919276526285E-06
(PID.TID 0000.0001) // =======================================================
(PID.TID 0000.0001) // End MONITOR dynamic field statistics
(PID.TID 0000.0001) // =======================================================
 cg2d: Sum(rhs),rhsMax =  -1.60554702342635E+01  8.86086368447972E+01
(PID.TID 0000.0001)      cg2d_init_res =   2.27681367523433E-01
(PID.TID 0000.0001)      cg2d_iters(min,last) =      -1      10
(PID.TID 0000.0001)      cg2d_last_res =   3.47817354213072E-08
(PID.TID 0000.0001) // =======================================================
(PID.TID 0000.0001) // Begin MONITOR dynamic field statistics
(PID.TID 0000.0001) // =======================================================
(PID.TID 0000.0001) %MON time_tsnumber                =                 72018
(PID.TID 0000.0001) %MON time_secondsf                =   6.4816200000000E+07
(PID.TID 0000.0001) %MON dynstat_eta_max              =   4.0500536659314E+00
(PID.TID 0000.0001) %MON dynstat_eta_min              =  -2.8067207105647E+00
(PID.TID 0000.0001) %MON dynstat_eta_mean             =   1.6531043108290E-02
(PID.TID 0000.0001) %MON dynstat_eta_sd               =   6.1598547252543E-01
(PID.TID 0000.0001) %MON dynstat_eta_del2             =   3.5335520286784E-03
(PID.TID 0000.0001) %MON dynstat_uvel_max             =   1.7235342119622E+00
(PID.TID 0000.0001) %MON dynstat_uvel_min             =  -8.8794636863706E-01
(PID.TID 0000.0001) %MON dynstat_uvel_mean            =  -2.7017002083072E-05
(PID.TID 0000.0001) %MON dynstat_uvel_sd              =   1.3741880932839E-02
(PID.TID 0000.0001) %MON dynstat_uvel_del2            =   1.1880845015370E-04
(PID.TID 0000.0001) %MON dynstat_vvel_max             =   8.7191735827347E-01
(PID.TID 0000.0001) %MON dynstat_vvel_min             =  -1.0184831587371E+00
(PID.TID 0000.0001) %MON dynstat_vvel_mean            =  -4.3134909932396E-04
(PID.TID 0000.0001) %MON dynstat_vvel_sd              =   1.3762106520189E-02
(PID.TID 0000.0001) %MON dynstat_vvel_del2            =   1.1763479281509E-04
(PID.TID 0000.0001) %MON dynstat_wvel_max             =   1.2408878182688E-04
(PID.TID 0000.0001) %MON dynstat_wvel_min             =  -4.8437181463792E-04
(PID.TID 0000.0001) %MON dynstat_wvel_mean            =  -3.7135641908180E-07
(PID.TID 0000.0001) %MON dynstat_wvel_sd              =   8.8407600126258E-06
(PID.TID 0000.0001) %MON dynstat_wvel_del2            =   8.1374030084825E-08
(PID.TID 0000.0001) %MON dynstat_theta_max            =   3.0922340986457E+01
(PID.TID 0000.0001) %MON dynstat_theta_min            =  -3.0082756765439E+00
(PID.TID 0000.0001) %MON dynstat_theta_mean           =   3.9090769597307E+00
(PID.TID 0000.0001) %MON dynstat_theta_sd             =   4.5711689573199E+00
(PID.TID 0000.0001) %MON dynstat_theta_del2           =   2.6474310529841E-03
(PID.TID 0000.0001) %MON dynstat_salt_max             =   4.1363684961129E+01
(PID.TID 0000.0001) %MON dynstat_salt_min             =   1.8518549647030E+01
(PID.TID 0000.0001) %MON dynstat_salt_mean            =   3.4772086630176E+01
(PID.TID 0000.0001) %MON dynstat_salt_sd              =   5.3120098894506E-01
(PID.TID 0000.0001) %MON dynstat_salt_del2            =   8.6079896728504E-04
(PID.TID 0000.0001) %MON dynstat_sst_max              =   3.0922340986457E+01
(PID.TID 0000.0001) %MON dynstat_sst_min              =  -1.8993771162870E+00
(PID.TID 0000.0001) %MON dynstat_sst_mean             =   1.8106762189397E+01
(PID.TID 0000.0001) %MON dynstat_sst_sd               =   9.8065294317382E+00
(PID.TID 0000.0001) %MON dynstat_sst_del2             =   1.5143118338953E-02
(PID.TID 0000.0001) %MON dynstat_sss_max              =   4.1363684961129E+01
(PID.TID 0000.0001) %MON dynstat_sss_min              =   1.8751385361453E+01
(PID.TID 0000.0001) %MON dynstat_sss_mean             =   3.4634005415880E+01
(PID.TID 0000.0001) %MON dynstat_sss_sd               =   1.4635215026625E+00
(PID.TID 0000.0001) %MON dynstat_sss_del2             =   8.9106280054732E-03
(PID.TID 0000.0001) %MON forcing_qnet_max             =   1.0951697265625E+04
(PID.TID 0000.0001) %MON forcing_qnet_min             =  -2.1541031808293E+03
(PID.TID 0000.0001) %MON forcing_qnet_mean            =  -5.6701028496619E+01
(PID.TID 0000.0001) %MON forcing_qnet_sd              =   3.7179845198231E+02
(PID.TID 0000.0001) %MON forcing_qnet_del2            =   1.2099741783888E+01
(PID.TID 0000.0001) %MON forcing_qsw_max              =   0.0000000000000E+00
(PID.TID 0000.0001) %MON forcing_qsw_min              =  -1.0701881324457E+02
(PID.TID 0000.0001) %MON forcing_qsw_mean             =  -2.0197573271473E+01
(PID.TID 0000.0001) %MON forcing_qsw_sd               =   2.8769362496277E+01
(PID.TID 0000.0001) %MON forcing_qsw_del2             =   2.5232844253459E-01
(PID.TID 0000.0001) %MON forcing_empmr_max            =   1.2327381409705E-02
(PID.TID 0000.0001) %MON forcing_empmr_min            =  -1.6882999241352E-01
(PID.TID 0000.0001) %MON forcing_empmr_mean           =  -4.6188101185163E-04
(PID.TID 0000.0001) %MON forcing_empmr_sd             =   6.8093243498084E-03
(PID.TID 0000.0001) %MON forcing_empmr_del2           =   2.7774165017790E-04
(PID.TID 0000.0001) %MON forcing_fu_max               =   6.3122919543137E-01
(PID.TID 0000.0001) %MON forcing_fu_min               =  -4.2719147910769E-01
(PID.TID 0000.0001) %MON forcing_fu_mean              =  -4.3354788940694E-03
(PID.TID 0000.0001) %MON forcing_fu_sd                =   7.4319112899574E-02
(PID.TID 0000.0001) %MON forcing_fu_del2              =   7.4797257412749E-04
(PID.TID 0000.0001) %MON forcing_fv_max               =   3.1394381771624E-01
(PID.TID 0000.0001) %MON forcing_fv_min               =  -3.5976870702164E-01
(PID.TID 0000.0001) %MON forcing_fv_mean              =  -1.1253800513686E-02
(PID.TID 0000.0001) %MON forcing_fv_sd                =   7.2929155963837E-02
(PID.TID 0000.0001) %MON forcing_fv_del2              =   6.4583297592762E-04
(PID.TID 0000.0001) %MON trAdv_CFL_u_max              =   5.7154535415164E-03
(PID.TID 0000.0001) %MON trAdv_CFL_v_max              =   5.8713269519854E-03
(PID.TID 0000.0001) %MON trAdv_CFL_w_max              =   4.9728266506205E-03
(PID.TID 0000.0001) %MON advcfl_uvel_max              =   5.7475843808357E-03
(PID.TID 0000.0001) %MON advcfl_vvel_max              =   3.0521591745222E-03
(PID.TID 0000.0001) %MON advcfl_wvel_max              =   5.8723475622094E-03
(PID.TID 0000.0001) %MON advcfl_W_hf_max              =   4.9728266506205E-03
(PID.TID 0000.0001) %MON pe_b_mean                    =   5.0584350838891E-04
(PID.TID 0000.0001) %MON ke_max                       =   8.3817135386899E-01
(PID.TID 0000.0001) %MON ke_mean                      =   1.7470814520847E-04
(PID.TID 0000.0001) %MON ke_vol                       =   1.3398083146402E+18
(PID.TID 0000.0001) %MON vort_r_min                   =  -8.8152331834755E-06
(PID.TID 0000.0001) %MON vort_r_max                   =   2.9860066066508E-06
(PID.TID 0000.0001) %MON vort_a_mean                  =  -2.0549865324846E-05
(PID.TID 0000.0001) %MON vort_a_sd                    =   7.5259515707681E-05
(PID.TID 0000.0001) %MON vort_p_mean                  =  -2.4783362797243E-05
(PID.TID 0000.0001) %MON vort_p_sd                    =   1.2811914357691E-04
(PID.TID 0000.0001) %MON surfExpan_theta_mean         =  -7.4980027357352E-06
(PID.TID 0000.0001) %MON surfExpan_salt_mean          =   1.5691279513136E-06
(PID.TID 0000.0001) // =======================================================
(PID.TID 0000.0001) // End MONITOR dynamic field statistics
(PID.TID 0000.0001) // =======================================================
 cg2d: Sum(rhs),rhsMax =  -1.61920377725619E+01  8.99673501200491E+01
(PID.TID 0000.0001)      cg2d_init_res =   2.06019392102386E-01
(PID.TID 0000.0001)      cg2d_iters(min,last) =      -1      10
(PID.TID 0000.0001)      cg2d_last_res =   3.11058349819964E-08
(PID.TID 0000.0001) // =======================================================
(PID.TID 0000.0001) // Begin MONITOR dynamic field statistics
(PID.TID 0000.0001) // =======================================================
(PID.TID 0000.0001) %MON time_tsnumber                =                 72019
(PID.TID 0000.0001) %MON time_secondsf                =   6.4817100000000E+07
(PID.TID 0000.0001) %MON dynstat_eta_max              =   4.1108754332243E+00
(PID.TID 0000.0001) %MON dynstat_eta_min              =  -3.2618806237529E+00
(PID.TID 0000.0001) %MON dynstat_eta_mean             =   1.6927296856384E-02
(PID.TID 0000.0001) %MON dynstat_eta_sd               =   6.1731873219943E-01
(PID.TID 0000.0001) %MON dynstat_eta_del2             =   3.6753828989011E-03
(PID.TID 0000.0001) %MON dynstat_uvel_max             =   1.6087371595696E+00
(PID.TID 0000.0001) %MON dynstat_uvel_min             =  -8.4973149167179E-01
(PID.TID 0000.0001) %MON dynstat_uvel_mean            =  -9.3816691988914E-06
(PID.TID 0000.0001) %MON dynstat_uvel_sd              =   1.3601714754316E-02
(PID.TID 0000.0001) %MON dynstat_uvel_del2            =   1.1346730724754E-04
(PID.TID 0000.0001) %MON dynstat_vvel_max             =   7.5321204627058E-01
(PID.TID 0000.0001) %MON dynstat_vvel_min             =  -8.5969474763999E-01
(PID.TID 0000.0001) %MON dynstat_vvel_mean            =  -4.3052717973759E-04
(PID.TID 0000.0001) %MON dynstat_vvel_sd              =   1.3719085127527E-02
(PID.TID 0000.0001) %MON dynstat_vvel_del2            =   1.1089645703863E-04
(PID.TID 0000.0001) %MON dynstat_wvel_max             =   1.1027441805309E-04
(PID.TID 0000.0001) %MON dynstat_wvel_min             =  -4.4421304727797E-04
(PID.TID 0000.0001) %MON dynstat_wvel_mean            =  -3.5567987177936E-07
(PID.TID 0000.0001) %MON dynstat_wvel_sd              =   8.9927458391300E-06
(PID.TID 0000.0001) %MON dynstat_wvel_del2            =   8.1958708962179E-08
(PID.TID 0000.0001) %MON dynstat_theta_max            =   3.0922257984928E+01
(PID.TID 0000.0001) %MON dynstat_theta_min            =  -3.0077987337080E+00
(PID.TID 0000.0001) %MON dynstat_theta_mean           =   3.9090823255648E+00
(PID.TID 0000.0001) %MON dynstat_theta_sd             =   4.5711902587232E+00
(PID.TID 0000.0001) %MON dynstat_theta_del2           =   2.6472989952771E-03
(PID.TID 0000.0001) %MON dynstat_salt_max             =   4.1362937319709E+01
(PID.TID 0000.0001) %MON dynstat_salt_min             =   1.8518559503703E+01
(PID.TID 0000.0001) %MON dynstat_salt_mean            =   3.4772081398167E+01
(PID.TID 0000.0001) %MON dynstat_salt_sd              =   5.3122081284808E-01
(PID.TID 0000.0001) %MON dynstat_salt_del2            =   8.6610350072839E-04
(PID.TID 0000.0001) %MON dynstat_sst_max              =   3.0922257984928E+01
(PID.TID 0000.0001) %MON dynstat_sst_min              =  -1.8993461109092E+00
(PID.TID 0000.0001) %MON dynstat_sst_mean             =   1.8106994535537E+01
(PID.TID 0000.0001) %MON dynstat_sst_sd               =   9.8067840180702E+00
(PID.TID 0000.0001) %MON dynstat_sst_del2             =   1.5140127195893E-02
(PID.TID 0000.0001) %MON dynstat_sss_max              =   4.1362937319709E+01
(PID.TID 0000.0001) %MON dynstat_sss_min              =   1.8751386033423E+01
(PID.TID 0000.0001) %MON dynstat_sss_mean             =   3.4633625195871E+01
(PID.TID 0000.0001) %MON dynstat_sss_sd               =   1.4640153948220E+00
(PID.TID 0000.0001) %MON dynstat_sss_del2             =   8.9913542526441E-03
(PID.TID 0000.0001) %MON forcing_qnet_max             =   9.6630917968750E+03
(PID.TID 0000.0001) %MON forcing_qnet_min             =  -2.0874845450347E+03
(PID.TID 0000.0001) %MON forcing_qnet_mean            =  -5.2477484120477E+01
(PID.TID 0000.0001) %MON forcing_qnet_sd              =   3.5130080345962E+02
(PID.TID 0000.0001) %MON forcing_qnet_del2            =   1.1084733546934E+01
(PID.TID 0000.0001) %MON forcing_qsw_max              =   0.0000000000000E+00
(PID.TID 0000.0001) %MON forcing_qsw_min              =  -1.0700366045560E+02
(PID.TID 0000.0001) %MON forcing_qsw_mean             =  -1.9900165563711E+01
(PID.TID 0000.0001) %MON forcing_qsw_sd               =   2.8460738643331E+01
(PID.TID 0000.0001) %MON forcing_qsw_del2             =   2.5444682716615E-01
(PID.TID 0000.0001) %MON forcing_empmr_max            =   1.1923766694963E-02
(PID.TID 0000.0001) %MON forcing_empmr_min            =  -1.6362006962299E-01
(PID.TID 0000.0001) %MON forcing_empmr_mean           =  -4.5569181030707E-04
(PID.TID 0000.0001) %MON forcing_empmr_sd             =   6.7112025073834E-03
(PID.TID 0000.0001) %MON forcing_empmr_del2           =   2.7362238347686E-04
(PID.TID 0000.0001) %MON forcing_fu_max               =   6.1940843634295E-01
(PID.TID 0000.0001) %MON forcing_fu_min               =  -4.2044017142609E-01
(PID.TID 0000.0001) %MON forcing_fu_mean              =  -4.2811587231135E-03
(PID.TID 0000.0001) %MON forcing_fu_sd                =   7.3834909091127E-02
(PID.TID 0000.0001) %MON forcing_fu_del2              =   7.4036687418870E-04
(PID.TID 0000.0001) %MON forcing_fv_max               =   3.1043958382774E-01
(PID.TID 0000.0001) %MON forcing_fv_min               =  -3.6074051032839E-01
(PID.TID 0000.0001) %MON forcing_fv_mean              =  -1.1179944072598E-02
(PID.TID 0000.0001) %MON forcing_fv_sd                =   7.2446616812809E-02
(PID.TID 0000.0001) %MON forcing_fv_del2              =   6.4103468526004E-04
(PID.TID 0000.0001) %MON trAdv_CFL_u_max              =   5.3476732521539E-03
(PID.TID 0000.0001) %MON trAdv_CFL_v_max              =   5.0350844804486E-03
(PID.TID 0000.0001) %MON trAdv_CFL_w_max              =   4.6731965650339E-03
(PID.TID 0000.0001) %MON advcfl_uvel_max              =   5.3647630009534E-03
(PID.TID 0000.0001) %MON advcfl_vvel_max              =   2.6304643507122E-03
(PID.TID 0000.0001) %MON advcfl_wvel_max              =   5.6911328564519E-03
(PID.TID 0000.0001) %MON advcfl_W_hf_max              =   4.6731965650339E-03
(PID.TID 0000.0001) %MON pe_b_mean                    =   5.0805163651789E-04
(PID.TID 0000.0001) %MON ke_max                       =   7.4235986292213E-01
(PID.TID 0000.0001) %MON ke_mean                      =   1.7239831681462E-04
(PID.TID 0000.0001) %MON ke_vol                       =   1.3398084607901E+18
(PID.TID 0000.0001) %MON vort_r_min                   =  -8.7166426668840E-06
(PID.TID 0000.0001) %MON vort_r_max                   =   2.9075052106566E-06
(PID.TID 0000.0001) %MON vort_a_mean                  =  -2.0549865324846E-05
(PID.TID 0000.0001) %MON vort_a_sd                    =   7.5259515345392E-05
(PID.TID 0000.0001) %MON vort_p_mean                  =  -2.4783359668360E-05
(PID.TID 0000.0001) %MON vort_p_sd                    =   1.2811914722452E-04
(PID.TID 0000.0001) %MON surfExpan_theta_mean         =  -7.4336994727762E-06
(PID.TID 0000.0001) %MON surfExpan_salt_mean          =   1.5407233117072E-06
(PID.TID 0000.0001) // =======================================================
(PID.TID 0000.0001) // End MONITOR dynamic field statistics
(PID.TID 0000.0001) // =======================================================
 Computing Diagnostic #     81  oceTAUX      Counter:       1   Parms: UU      U1      
           Vector  Mate for  oceTAUX      Diagnostic #     82  oceTAUY  exists 
 Computing Diagnostic #     82  oceTAUY      Counter:       1   Parms: VV      U1      
           Vector  Mate for  oceTAUY      Diagnostic #     81  oceTAUX  exists 
 Computing Diagnostic #     85  oceFWflx     Counter:       1   Parms: SM      U1      
 Computing Diagnostic #     86  oceSflux     Counter:       1   Parms: SM      U1      
 Computing Diagnostic #     87  oceQnet      Counter:       1   Parms: SM      U1      
 Computing Diagnostic #     88  oceQsw       Counter:       1   Parms: SM      U1      
 Computing Diagnostic #     27  SALT         Counter:       1   Parms: SMR     MR      
 Computing Diagnostic #     26  THETA        Counter:       1   Parms: SMR     MR      
 Computing Diagnostic #     45  UVELMASS     Counter:       1   Parms: UUr     MR      
           Vector  Mate for  UVELMASS     Diagnostic #     46  VVELMASS exists 
 Computing Diagnostic #     46  VVELMASS     Counter:       1   Parms: VVr     MR      
           Vector  Mate for  VVELMASS     Diagnostic #     45  UVELMASS exists 
 cg2d: Sum(rhs),rhsMax =  -1.64950157187918E+01  9.03588964519251E+01
(PID.TID 0000.0001)      cg2d_init_res =   1.93330823734892E-01
(PID.TID 0000.0001)      cg2d_iters(min,last) =      -1      10
(PID.TID 0000.0001)      cg2d_last_res =   3.08686955811534E-08
(PID.TID 0000.0001) // =======================================================
(PID.TID 0000.0001) // Begin MONITOR dynamic field statistics
(PID.TID 0000.0001) // =======================================================
(PID.TID 0000.0001) %MON time_tsnumber                =                 72020
(PID.TID 0000.0001) %MON time_secondsf                =   6.4818000000000E+07
(PID.TID 0000.0001) %MON dynstat_eta_max              =   4.1278911677626E+00
(PID.TID 0000.0001) %MON dynstat_eta_min              =  -3.6437003814351E+00
(PID.TID 0000.0001) %MON dynstat_eta_mean             =   1.7319080276303E-02
(PID.TID 0000.0001) %MON dynstat_eta_sd               =   6.1851747305606E-01
(PID.TID 0000.0001) %MON dynstat_eta_del2             =   3.7742006752451E-03
(PID.TID 0000.0001) %MON dynstat_uvel_max             =   1.4769454151064E+00
(PID.TID 0000.0001) %MON dynstat_uvel_min             =  -8.0670796659701E-01
(PID.TID 0000.0001) %MON dynstat_uvel_mean            =   5.3913032649569E-06
(PID.TID 0000.0001) %MON dynstat_uvel_sd              =   1.3466988086343E-02
(PID.TID 0000.0001) %MON dynstat_uvel_del2            =   1.0832742370815E-04
(PID.TID 0000.0001) %MON dynstat_vvel_max             =   6.2941913034190E-01
(PID.TID 0000.0001) %MON dynstat_vvel_min             =  -8.4047425717406E-01
(PID.TID 0000.0001) %MON dynstat_vvel_mean            =  -4.2988131043445E-04
(PID.TID 0000.0001) %MON dynstat_vvel_sd              =   1.3699762952044E-02
(PID.TID 0000.0001) %MON dynstat_vvel_del2            =   1.0603293187680E-04
(PID.TID 0000.0001) %MON dynstat_wvel_max             =   1.0743970102517E-04
(PID.TID 0000.0001) %MON dynstat_wvel_min             =  -4.0080771456247E-04
(PID.TID 0000.0001) %MON dynstat_wvel_mean            =  -3.4015665638180E-07
(PID.TID 0000.0001) %MON dynstat_wvel_sd              =   9.1210745731051E-06
(PID.TID 0000.0001) %MON dynstat_wvel_del2            =   8.2352893743461E-08
(PID.TID 0000.0001) %MON dynstat_theta_max            =   3.0922191195314E+01
(PID.TID 0000.0001) %MON dynstat_theta_min            =  -3.0073575658404E+00
(PID.TID 0000.0001) %MON dynstat_theta_mean           =   3.9090873462829E+00
(PID.TID 0000.0001) %MON dynstat_theta_sd             =   4.5712097837059E+00
(PID.TID 0000.0001) %MON dynstat_theta_del2           =   2.6471628983419E-03
(PID.TID 0000.0001) %MON dynstat_salt_max             =   4.1362237630079E+01
(PID.TID 0000.0001) %MON dynstat_salt_min             =   1.8518569358153E+01
(PID.TID 0000.0001) %MON dynstat_salt_mean            =   3.4772076298415E+01
(PID.TID 0000.0001) %MON dynstat_salt_sd              =   5.3124073778653E-01
(PID.TID 0000.0001) %MON dynstat_salt_del2            =   8.7147465142153E-04
(PID.TID 0000.0001) %MON dynstat_sst_max              =   3.0922191195314E+01
(PID.TID 0000.0001) %MON dynstat_sst_min              =  -1.8993127894383E+00
(PID.TID 0000.0001) %MON dynstat_sst_mean             =   1.8107205757600E+01
(PID.TID 0000.0001) %MON dynstat_sst_sd               =   9.8070112236291E+00
(PID.TID 0000.0001) %MON dynstat_sst_del2             =   1.5137021043032E-02
(PID.TID 0000.0001) %MON dynstat_sss_max              =   4.1362237630079E+01
(PID.TID 0000.0001) %MON dynstat_sss_min              =   1.8751386660244E+01
(PID.TID 0000.0001) %MON dynstat_sss_mean             =   3.4633254640134E+01
(PID.TID 0000.0001) %MON dynstat_sss_sd               =   1.4645127219694E+00
(PID.TID 0000.0001) %MON dynstat_sss_del2             =   9.0728786983275E-03
(PID.TID 0000.0001) %MON forcing_qnet_max             =   5.2449560546875E+03
(PID.TID 0000.0001) %MON forcing_qnet_min             =  -2.0583596191406E+03
(PID.TID 0000.0001) %MON forcing_qnet_mean            =  -4.7002820631480E+01
(PID.TID 0000.0001) %MON forcing_qnet_sd              =   3.2117101011342E+02
(PID.TID 0000.0001) %MON forcing_qnet_del2            =   9.4355378560660E+00
(PID.TID 0000.0001) %MON forcing_qsw_max              =   0.0000000000000E+00
(PID.TID 0000.0001) %MON forcing_qsw_min              =  -1.0655691455429E+02
(PID.TID 0000.0001) %MON forcing_qsw_mean             =  -1.9556314944021E+01
(PID.TID 0000.0001) %MON forcing_qsw_sd               =   2.8101663707041E+01
(PID.TID 0000.0001) %MON forcing_qsw_del2             =   2.5606188648243E-01
(PID.TID 0000.0001) %MON forcing_empmr_max            =   1.1545800603926E-02
(PID.TID 0000.0001) %MON forcing_empmr_min            =  -1.5890870988369E-01
(PID.TID 0000.0001) %MON forcing_empmr_mean           =  -4.5055093290751E-04
(PID.TID 0000.0001) %MON forcing_empmr_sd             =   6.6145806114427E-03
(PID.TID 0000.0001) %MON forcing_empmr_del2           =   2.6949458451852E-04
(PID.TID 0000.0001) %MON forcing_fu_max               =   6.0525694117434E-01
(PID.TID 0000.0001) %MON forcing_fu_min               =  -4.1603027075296E-01
(PID.TID 0000.0001) %MON forcing_fu_mean              =  -4.2402853351638E-03
(PID.TID 0000.0001) %MON forcing_fu_sd                =   7.3425279112029E-02
(PID.TID 0000.0001) %MON forcing_fu_del2              =   7.3316587566643E-04
(PID.TID 0000.0001) %MON forcing_fv_max               =   3.0420440234587E-01
(PID.TID 0000.0001) %MON forcing_fv_min               =  -3.5626065023047E-01
(PID.TID 0000.0001) %MON forcing_fv_mean              =  -1.1141358934442E-02
(PID.TID 0000.0001) %MON forcing_fv_sd                =   7.1939042691249E-02
(PID.TID 0000.0001) %MON forcing_fv_del2              =   6.3554765120110E-04
(PID.TID 0000.0001) %MON trAdv_CFL_u_max              =   4.9211246255769E-03
(PID.TID 0000.0001) %MON trAdv_CFL_v_max              =   4.1421850980493E-03
(PID.TID 0000.0001) %MON trAdv_CFL_w_max              =   4.3724573565476E-03
(PID.TID 0000.0001) %MON advcfl_uvel_max              =   4.9252682890167E-03
(PID.TID 0000.0001) %MON advcfl_vvel_max              =   2.8719049517738E-03
(PID.TID 0000.0001) %MON advcfl_wvel_max              =   5.5272594742153E-03
(PID.TID 0000.0001) %MON advcfl_W_hf_max              =   4.3724573565476E-03
(PID.TID 0000.0001) %MON pe_b_mean                    =   5.1004300846339E-04
(PID.TID 0000.0001) %MON ke_max                       =   6.8537379380237E-01
(PID.TID 0000.0001) %MON ke_mean                      =   1.7047688860564E-04
(PID.TID 0000.0001) %MON ke_vol                       =   1.3398086049816E+18
(PID.TID 0000.0001) %MON vort_r_min                   =  -8.4995587934542E-06
(PID.TID 0000.0001) %MON vort_r_max                   =   2.9133360341781E-06
(PID.TID 0000.0001) %MON vort_a_mean                  =  -2.0549865324846E-05
(PID.TID 0000.0001) %MON vort_a_sd                    =   7.5259514934715E-05
(PID.TID 0000.0001) %MON vort_p_mean                  =  -2.4783356655950E-05
(PID.TID 0000.0001) %MON vort_p_sd                    =   1.2811914768265E-04
(PID.TID 0000.0001) %MON surfExpan_theta_mean         =  -7.3903941118782E-06
(PID.TID 0000.0001) %MON surfExpan_salt_mean          =   1.5097659086155E-06
(PID.TID 0000.0001) // =======================================================
(PID.TID 0000.0001) // End MONITOR dynamic field statistics
(PID.TID 0000.0001) // =======================================================
 cg2d: Sum(rhs),rhsMax =  -1.69706056784933E+01  8.97877610530548E+01
(PID.TID 0000.0001)      cg2d_init_res =   1.87167221155985E-01
(PID.TID 0000.0001)      cg2d_iters(min,last) =      -1      10
(PID.TID 0000.0001)      cg2d_last_res =   3.42650627196081E-08
(PID.TID 0000.0001) // =======================================================
(PID.TID 0000.0001) // Begin MONITOR dynamic field statistics
(PID.TID 0000.0001) // =======================================================
(PID.TID 0000.0001) %MON time_tsnumber                =                 72021
(PID.TID 0000.0001) %MON time_secondsf                =   6.4818900000000E+07
(PID.TID 0000.0001) %MON dynstat_eta_max              =   4.1012844797445E+00
(PID.TID 0000.0001) %MON dynstat_eta_min              =  -3.9491089477685E+00
(PID.TID 0000.0001) %MON dynstat_eta_mean             =   1.7705804224825E-02
(PID.TID 0000.0001) %MON dynstat_eta_sd               =   6.1956004329586E-01
(PID.TID 0000.0001) %MON dynstat_eta_del2             =   3.8319763597686E-03
(PID.TID 0000.0001) %MON dynstat_uvel_max             =   1.3297404511278E+00
(PID.TID 0000.0001) %MON dynstat_uvel_min             =  -7.5976953466024E-01
(PID.TID 0000.0001) %MON dynstat_uvel_mean            =   1.6598078518302E-05
(PID.TID 0000.0001) %MON dynstat_uvel_sd              =   1.3339859789585E-02
(PID.TID 0000.0001) %MON dynstat_uvel_del2            =   1.0350829351796E-04
(PID.TID 0000.0001) %MON dynstat_vvel_max             =   5.0290021373853E-01
(PID.TID 0000.0001) %MON dynstat_vvel_min             =  -8.9603022155170E-01
(PID.TID 0000.0001) %MON dynstat_vvel_mean            =  -4.2986436347018E-04
(PID.TID 0000.0001) %MON dynstat_vvel_sd              =   1.3701958323287E-02
(PID.TID 0000.0001) %MON dynstat_vvel_del2            =   1.0318515907533E-04
(PID.TID 0000.0001) %MON dynstat_wvel_max             =   1.0635224430987E-04
(PID.TID 0000.0001) %MON dynstat_wvel_min             =  -3.6937400005868E-04
(PID.TID 0000.0001) %MON dynstat_wvel_mean            =  -3.2389020985445E-07
(PID.TID 0000.0001) %MON dynstat_wvel_sd              =   9.1943537032860E-06
(PID.TID 0000.0001) %MON dynstat_wvel_del2            =   8.2367346539968E-08
(PID.TID 0000.0001) %MON dynstat_theta_max            =   3.0922158336609E+01
(PID.TID 0000.0001) %MON dynstat_theta_min            =  -3.0069713776582E+00
(PID.TID 0000.0001) %MON dynstat_theta_mean           =   3.9090920290427E+00
(PID.TID 0000.0001) %MON dynstat_theta_sd             =   4.5712278958650E+00
(PID.TID 0000.0001) %MON dynstat_theta_del2           =   2.6470149848241E-03
(PID.TID 0000.0001) %MON dynstat_salt_max             =   4.1361586936497E+01
(PID.TID 0000.0001) %MON dynstat_salt_min             =   1.8518579215591E+01
(PID.TID 0000.0001) %MON dynstat_salt_mean            =   3.4772071369726E+01
(PID.TID 0000.0001) %MON dynstat_salt_sd              =   5.3126078885111E-01
(PID.TID 0000.0001) %MON dynstat_salt_del2            =   8.7689811216646E-04
(PID.TID 0000.0001) %MON dynstat_sst_max              =   3.0922158336609E+01
(PID.TID 0000.0001) %MON dynstat_sst_min              =  -1.8992752249189E+00
(PID.TID 0000.0001) %MON dynstat_sst_mean             =   1.8107400243004E+01
(PID.TID 0000.0001) %MON dynstat_sst_sd               =   9.8072239320564E+00
(PID.TID 0000.0001) %MON dynstat_sst_del2             =   1.5133637237919E-02
(PID.TID 0000.0001) %MON dynstat_sss_max              =   4.1361586936497E+01
(PID.TID 0000.0001) %MON dynstat_sss_min              =   1.8751387284568E+01
(PID.TID 0000.0001) %MON dynstat_sss_mean             =   3.4632897934334E+01
(PID.TID 0000.0001) %MON dynstat_sss_sd               =   1.4650161093814E+00
(PID.TID 0000.0001) %MON dynstat_sss_del2             =   9.1549817856821E-03
(PID.TID 0000.0001) %MON forcing_qnet_max             =   3.2228536551716E+03
(PID.TID 0000.0001) %MON forcing_qnet_min             =  -3.0885883789062E+03
(PID.TID 0000.0001) %MON forcing_qnet_mean            =  -4.1738589318989E+01
(PID.TID 0000.0001) %MON forcing_qnet_sd              =   2.9796628222650E+02
(PID.TID 0000.0001) %MON forcing_qnet_del2            =   8.2968560118907E+00
(PID.TID 0000.0001) %MON forcing_qsw_max              =   0.0000000000000E+00
(PID.TID 0000.0001) %MON forcing_qsw_min              =  -1.0896123998875E+02
(PID.TID 0000.0001) %MON forcing_qsw_mean             =  -1.8936585843775E+01
(PID.TID 0000.0001) %MON forcing_qsw_sd               =   2.7434637365667E+01
(PID.TID 0000.0001) %MON forcing_qsw_del2             =   2.6058819388266E-01
(PID.TID 0000.0001) %MON forcing_empmr_max            =   1.1105234734714E-02
(PID.TID 0000.0001) %MON forcing_empmr_min            =  -1.5472295880318E-01
(PID.TID 0000.0001) %MON forcing_empmr_mean           =  -4.4473254079961E-04
(PID.TID 0000.0001) %MON forcing_empmr_sd             =   6.5104637872941E-03
(PID.TID 0000.0001) %MON forcing_empmr_del2           =   2.6478494145554E-04
(PID.TID 0000.0001) %MON forcing_fu_max               =   5.8926495892163E-01
(PID.TID 0000.0001) %MON forcing_fu_min               =  -4.1191504395673E-01
(PID.TID 0000.0001) %MON forcing_fu_mean              =  -4.1980007993267E-03
(PID.TID 0000.0001) %MON forcing_fu_sd                =   7.2923726655333E-02
(PID.TID 0000.0001) %MON forcing_fu_del2              =   7.2439201122688E-04
(PID.TID 0000.0001) %MON forcing_fv_max               =   3.0864771064613E-01
(PID.TID 0000.0001) %MON forcing_fv_min               =  -3.5256939610572E-01
(PID.TID 0000.0001) %MON forcing_fv_mean              =  -1.1127061313411E-02
(PID.TID 0000.0001) %MON forcing_fv_sd                =   7.1431793912150E-02
(PID.TID 0000.0001) %MON forcing_fv_del2              =   6.3009002541627E-04
(PID.TID 0000.0001) %MON trAdv_CFL_u_max              =   4.4405963551264E-03
(PID.TID 0000.0001) %MON trAdv_CFL_v_max              =   3.2116318110378E-03
(PID.TID 0000.0001) %MON trAdv_CFL_w_max              =   4.0698217587580E-03
(PID.TID 0000.0001) %MON advcfl_uvel_max              =   4.4343740869329E-03
(PID.TID 0000.0001) %MON advcfl_vvel_max              =   3.0617399738876E-03
(PID.TID 0000.0001) %MON advcfl_wvel_max              =   5.3816681322844E-03
(PID.TID 0000.0001) %MON advcfl_W_hf_max              =   4.0698217587580E-03
(PID.TID 0000.0001) %MON pe_b_mean                    =   5.1178055159534E-04
(PID.TID 0000.0001) %MON ke_max                       =   6.2718186862882E-01
(PID.TID 0000.0001) %MON ke_mean                      =   1.6893934565442E-04
(PID.TID 0000.0001) %MON ke_vol                       =   1.3398087475464E+18
(PID.TID 0000.0001) %MON vort_r_min                   =  -8.1686011316295E-06
(PID.TID 0000.0001) %MON vort_r_max                   =   2.9413349617908E-06
(PID.TID 0000.0001) %MON vort_a_mean                  =  -2.0549865324846E-05
(PID.TID 0000.0001) %MON vort_a_sd                    =   7.5259514323352E-05
(PID.TID 0000.0001) %MON vort_p_mean                  =  -2.4783353742795E-05
(PID.TID 0000.0001) %MON vort_p_sd                    =   1.2811914352356E-04
(PID.TID 0000.0001) %MON surfExpan_theta_mean         =  -7.3395574973402E-06
(PID.TID 0000.0001) %MON surfExpan_salt_mean          =   1.4762206847906E-06
(PID.TID 0000.0001) // =======================================================
(PID.TID 0000.0001) // End MONITOR dynamic field statistics
(PID.TID 0000.0001) // =======================================================
 cg2d: Sum(rhs),rhsMax =  -1.76323895824535E+01  8.82770202529703E+01
(PID.TID 0000.0001)      cg2d_init_res =   1.84841863615789E-01
(PID.TID 0000.0001)      cg2d_iters(min,last) =      -1       9
(PID.TID 0000.0001)      cg2d_last_res =   8.97731321977753E-08
(PID.TID 0000.0001) // =======================================================
(PID.TID 0000.0001) // Begin MONITOR dynamic field statistics
(PID.TID 0000.0001) // =======================================================
(PID.TID 0000.0001) %MON time_tsnumber                =                 72022
(PID.TID 0000.0001) %MON time_secondsf                =   6.4819800000000E+07
(PID.TID 0000.0001) %MON dynstat_eta_max              =   4.0320813020683E+00
(PID.TID 0000.0001) %MON dynstat_eta_min              =  -4.1760457854593E+00
(PID.TID 0000.0001) %MON dynstat_eta_mean             =   1.8086728167801E-02
(PID.TID 0000.0001) %MON dynstat_eta_sd               =   6.2044143922635E-01
(PID.TID 0000.0001) %MON dynstat_eta_del2             =   3.8518831753991E-03
(PID.TID 0000.0001) %MON dynstat_uvel_max             =   1.1691743133423E+00
(PID.TID 0000.0001) %MON dynstat_uvel_min             =  -7.0978485163267E-01
(PID.TID 0000.0001) %MON dynstat_uvel_mean            =   2.3570073028591E-05
(PID.TID 0000.0001) %MON dynstat_uvel_sd              =   1.3221711338605E-02
(PID.TID 0000.0001) %MON dynstat_uvel_del2            =   9.9102395785558E-05
(PID.TID 0000.0001) %MON dynstat_vvel_max             =   3.7590164069828E-01
(PID.TID 0000.0001) %MON dynstat_vvel_min             =  -9.3636883014642E-01
(PID.TID 0000.0001) %MON dynstat_vvel_mean            =  -4.3076027892853E-04
(PID.TID 0000.0001) %MON dynstat_vvel_sd              =   1.3722114702969E-02
(PID.TID 0000.0001) %MON dynstat_vvel_del2            =   1.0227742032582E-04
(PID.TID 0000.0001) %MON dynstat_wvel_max             =   1.0654039532270E-04
(PID.TID 0000.0001) %MON dynstat_wvel_min             =  -4.0942424603593E-04
(PID.TID 0000.0001) %MON dynstat_wvel_mean            =  -3.0647974262863E-07
(PID.TID 0000.0001) %MON dynstat_wvel_sd              =   9.1980603186480E-06
(PID.TID 0000.0001) %MON dynstat_wvel_del2            =   8.1980416775348E-08
(PID.TID 0000.0001) %MON dynstat_theta_max            =   3.0922143219477E+01
(PID.TID 0000.0001) %MON dynstat_theta_min            =  -3.0066519072371E+00
(PID.TID 0000.0001) %MON dynstat_theta_mean           =   3.9090966212140E+00
(PID.TID 0000.0001) %MON dynstat_theta_sd             =   4.5712457166634E+00
(PID.TID 0000.0001) %MON dynstat_theta_del2           =   2.6468502856012E-03
(PID.TID 0000.0001) %MON dynstat_salt_max             =   4.1360984200095E+01
(PID.TID 0000.0001) %MON dynstat_salt_min             =   1.8518589082708E+01
(PID.TID 0000.0001) %MON dynstat_salt_mean            =   3.4772066648437E+01
(PID.TID 0000.0001) %MON dynstat_salt_sd              =   5.3128089412685E-01
(PID.TID 0000.0001) %MON dynstat_salt_del2            =   8.8237193601771E-04
(PID.TID 0000.0001) %MON dynstat_sst_max              =   3.0922143219477E+01
(PID.TID 0000.0001) %MON dynstat_sst_min              =  -1.8992337140508E+00
(PID.TID 0000.0001) %MON dynstat_sst_mean             =   1.8107591132708E+01
(PID.TID 0000.0001) %MON dynstat_sst_sd               =   9.8074306391774E+00
(PID.TID 0000.0001) %MON dynstat_sst_del2             =   1.5129798219523E-02
(PID.TID 0000.0001) %MON dynstat_sss_max              =   4.1360984200095E+01
(PID.TID 0000.0001) %MON dynstat_sss_min              =   1.8751387879047E+01
(PID.TID 0000.0001) %MON dynstat_sss_mean             =   3.4632555733186E+01
(PID.TID 0000.0001) %MON dynstat_sss_sd               =   1.4655208481690E+00
(PID.TID 0000.0001) %MON dynstat_sss_del2             =   9.2376293555097E-03
(PID.TID 0000.0001) %MON forcing_qnet_max             =   3.1771319134462E+03
(PID.TID 0000.0001) %MON forcing_qnet_min             =  -1.0139362304688E+04
(PID.TID 0000.0001) %MON forcing_qnet_mean            =  -4.0727637998949E+01
(PID.TID 0000.0001) %MON forcing_qnet_sd              =   3.3253715628846E+02
(PID.TID 0000.0001) %MON forcing_qnet_del2            =   1.0399368105653E+01
(PID.TID 0000.0001) %MON forcing_qsw_max              =   0.0000000000000E+00
(PID.TID 0000.0001) %MON forcing_qsw_min              =  -1.0946428480053E+02
(PID.TID 0000.0001) %MON forcing_qsw_mean             =  -1.8706746660620E+01
(PID.TID 0000.0001) %MON forcing_qsw_sd               =   2.7131149611551E+01
(PID.TID 0000.0001) %MON forcing_qsw_del2             =   2.6221360594808E-01
(PID.TID 0000.0001) %MON forcing_empmr_max            =   1.0534058324993E-02
(PID.TID 0000.0001) %MON forcing_empmr_min            =  -1.5110841393471E-01
(PID.TID 0000.0001) %MON forcing_empmr_mean           =  -4.3806253442335E-04
(PID.TID 0000.0001) %MON forcing_empmr_sd             =   6.4095058607060E-03
(PID.TID 0000.0001) %MON forcing_empmr_del2           =   2.6019919683616E-04
(PID.TID 0000.0001) %MON forcing_fu_max               =   5.7623322450395E-01
(PID.TID 0000.0001) %MON forcing_fu_min               =  -4.0785511584714E-01
(PID.TID 0000.0001) %MON forcing_fu_mean              =  -4.1827901558386E-03
(PID.TID 0000.0001) %MON forcing_fu_sd                =   7.2434636183716E-02
(PID.TID 0000.0001) %MON forcing_fu_del2              =   7.1709301672555E-04
(PID.TID 0000.0001) %MON forcing_fv_max               =   3.1231454168790E-01
(PID.TID 0000.0001) %MON forcing_fv_min               =  -3.4398571693831E-01
(PID.TID 0000.0001) %MON forcing_fv_mean              =  -1.1111304430679E-02
(PID.TID 0000.0001) %MON forcing_fv_sd                =   7.0941150905004E-02
(PID.TID 0000.0001) %MON forcing_fv_del2              =   6.2479299369184E-04
(PID.TID 0000.0001) %MON trAdv_CFL_u_max              =   3.9124944415835E-03
(PID.TID 0000.0001) %MON trAdv_CFL_v_max              =   3.0522813524269E-03
(PID.TID 0000.0001) %MON trAdv_CFL_w_max              =   3.7653005700872E-03
(PID.TID 0000.0001) %MON advcfl_uvel_max              =   3.8989234882608E-03
(PID.TID 0000.0001) %MON advcfl_vvel_max              =   3.1995772113544E-03
(PID.TID 0000.0001) %MON advcfl_wvel_max              =   5.2559448325116E-03
(PID.TID 0000.0001) %MON advcfl_W_hf_max              =   3.7653005700872E-03
(PID.TID 0000.0001) %MON pe_b_mean                    =   5.1325464181064E-04
(PID.TID 0000.0001) %MON ke_max                       =   5.6974604662248E-01
(PID.TID 0000.0001) %MON ke_mean                      =   1.6775464545319E-04
(PID.TID 0000.0001) %MON ke_vol                       =   1.3398088882701E+18
(PID.TID 0000.0001) %MON vort_r_min                   =  -7.7307776045429E-06
(PID.TID 0000.0001) %MON vort_r_max                   =   2.9494932330558E-06
(PID.TID 0000.0001) %MON vort_a_mean                  =  -2.0549865324846E-05
(PID.TID 0000.0001) %MON vort_a_sd                    =   7.5259513397428E-05
(PID.TID 0000.0001) %MON vort_p_mean                  =  -2.4783350923389E-05
(PID.TID 0000.0001) %MON vort_p_sd                    =   1.2811913423298E-04
(PID.TID 0000.0001) %MON surfExpan_theta_mean         =  -7.2743443214988E-06
(PID.TID 0000.0001) %MON surfExpan_salt_mean          =   1.4410585112335E-06
(PID.TID 0000.0001) // =======================================================
(PID.TID 0000.0001) // End MONITOR dynamic field statistics
(PID.TID 0000.0001) // =======================================================
 cg2d: Sum(rhs),rhsMax =  -1.85051088230981E+01  8.58669246818275E+01
(PID.TID 0000.0001)      cg2d_init_res =   1.84591003984294E-01
(PID.TID 0000.0001)      cg2d_iters(min,last) =      -1      10
(PID.TID 0000.0001)      cg2d_last_res =   3.83761405627241E-08
(PID.TID 0000.0001) // =======================================================
(PID.TID 0000.0001) // Begin MONITOR dynamic field statistics
(PID.TID 0000.0001) // =======================================================
(PID.TID 0000.0001) %MON time_tsnumber                =                 72023
(PID.TID 0000.0001) %MON time_secondsf                =   6.4820700000000E+07
(PID.TID 0000.0001) %MON dynstat_eta_max              =   3.9220864951389E+00
(PID.TID 0000.0001) %MON dynstat_eta_min              =  -4.3234761581379E+00
(PID.TID 0000.0001) %MON dynstat_eta_mean             =   1.8463699596268E-02
(PID.TID 0000.0001) %MON dynstat_eta_sd               =   6.2115956107296E-01
(PID.TID 0000.0001) %MON dynstat_eta_del2             =   3.8368479617245E-03
(PID.TID 0000.0001) %MON dynstat_uvel_max             =   9.9777442959791E-01
(PID.TID 0000.0001) %MON dynstat_uvel_min             =  -6.5760227432393E-01
(PID.TID 0000.0001) %MON dynstat_uvel_mean            =   2.5771478100961E-05
(PID.TID 0000.0001) %MON dynstat_uvel_sd              =   1.3114171570616E-02
(PID.TID 0000.0001) %MON dynstat_uvel_del2            =   9.5189251813981E-05
(PID.TID 0000.0001) %MON dynstat_vvel_max             =   3.1406650479376E-01
(PID.TID 0000.0001) %MON dynstat_vvel_min             =  -9.6146243001721E-01
(PID.TID 0000.0001) %MON dynstat_vvel_mean            =  -4.3268606739307E-04
(PID.TID 0000.0001) %MON dynstat_vvel_sd              =   1.3756101267363E-02
(PID.TID 0000.0001) %MON dynstat_vvel_del2            =   1.0304208671912E-04
(PID.TID 0000.0001) %MON dynstat_wvel_max             =   1.0822556215135E-04
(PID.TID 0000.0001) %MON dynstat_wvel_min             =  -4.3461274385039E-04
(PID.TID 0000.0001) %MON dynstat_wvel_mean            =  -2.8912227039406E-07
(PID.TID 0000.0001) %MON dynstat_wvel_sd              =   9.1356699753386E-06
(PID.TID 0000.0001) %MON dynstat_wvel_del2            =   8.1211125758585E-08
(PID.TID 0000.0001) %MON dynstat_theta_max            =   3.0922146083722E+01
(PID.TID 0000.0001) %MON dynstat_theta_min            =  -3.0064027849010E+00
(PID.TID 0000.0001) %MON dynstat_theta_mean           =   3.9091007859541E+00
(PID.TID 0000.0001) %MON dynstat_theta_sd             =   4.5712616409111E+00
(PID.TID 0000.0001) %MON dynstat_theta_del2           =   2.6466799545169E-03
(PID.TID 0000.0001) %MON dynstat_salt_max             =   4.1360428569109E+01
(PID.TID 0000.0001) %MON dynstat_salt_min             =   1.8518598967649E+01
(PID.TID 0000.0001) %MON dynstat_salt_mean            =   3.4772061964614E+01
(PID.TID 0000.0001) %MON dynstat_salt_sd              =   5.3130110046178E-01
(PID.TID 0000.0001) %MON dynstat_salt_del2            =   8.8786177164603E-04
(PID.TID 0000.0001) %MON dynstat_sst_max              =   3.0922146083722E+01
(PID.TID 0000.0001) %MON dynstat_sst_min              =  -1.8991863698136E+00
(PID.TID 0000.0001) %MON dynstat_sst_mean             =   1.8107755642574E+01
(PID.TID 0000.0001) %MON dynstat_sst_sd               =   9.8076164921391E+00
(PID.TID 0000.0001) %MON dynstat_sst_del2             =   1.5125872565804E-02
(PID.TID 0000.0001) %MON dynstat_sss_max              =   4.1360428569109E+01
(PID.TID 0000.0001) %MON dynstat_sss_min              =   1.8751388529684E+01
(PID.TID 0000.0001) %MON dynstat_sss_mean             =   3.4632217073587E+01
(PID.TID 0000.0001) %MON dynstat_sss_sd               =   1.4660296565943E+00
(PID.TID 0000.0001) %MON dynstat_sss_del2             =   9.3203073928430E-03
(PID.TID 0000.0001) %MON forcing_qnet_max             =   5.1481526518977E+03
(PID.TID 0000.0001) %MON forcing_qnet_min             =  -4.7283022460938E+03
(PID.TID 0000.0001) %MON forcing_qnet_mean            =  -3.3678629621481E+01
(PID.TID 0000.0001) %MON forcing_qnet_sd              =   2.9681293217382E+02
(PID.TID 0000.0001) %MON forcing_qnet_del2            =   8.9268742578627E+00
(PID.TID 0000.0001) %MON forcing_qsw_max              =   0.0000000000000E+00
(PID.TID 0000.0001) %MON forcing_qsw_min              =  -1.0977342128937E+02
(PID.TID 0000.0001) %MON forcing_qsw_mean             =  -1.8435657096607E+01
(PID.TID 0000.0001) %MON forcing_qsw_sd               =   2.6790268869184E+01
(PID.TID 0000.0001) %MON forcing_qsw_del2             =   2.6312782112915E-01
(PID.TID 0000.0001) %MON forcing_empmr_max            =   9.9174743518233E-03
(PID.TID 0000.0001) %MON forcing_empmr_min            =  -1.4722466468811E-01
(PID.TID 0000.0001) %MON forcing_empmr_mean           =  -4.3351714273700E-04
(PID.TID 0000.0001) %MON forcing_empmr_sd             =   6.3069962186023E-03
(PID.TID 0000.0001) %MON forcing_empmr_del2           =   2.5548827571444E-04
(PID.TID 0000.0001) %MON forcing_fu_max               =   5.6383917714931E-01
(PID.TID 0000.0001) %MON forcing_fu_min               =  -4.0452121898516E-01
(PID.TID 0000.0001) %MON forcing_fu_mean              =  -4.1702004251822E-03
(PID.TID 0000.0001) %MON forcing_fu_sd                =   7.2044426523224E-02
(PID.TID 0000.0001) %MON forcing_fu_del2              =   7.1042415001707E-04
(PID.TID 0000.0001) %MON forcing_fv_max               =   3.1495498121914E-01
(PID.TID 0000.0001) %MON forcing_fv_min               =  -3.3541156292332E-01
(PID.TID 0000.0001) %MON forcing_fv_mean              =  -1.1120686471792E-02
(PID.TID 0000.0001) %MON forcing_fv_sd                =   7.0432988550708E-02
(PID.TID 0000.0001) %MON forcing_fv_del2              =   6.1952555983600E-04
(PID.TID 0000.0001) %MON trAdv_CFL_u_max              =   3.3449996853589E-03
(PID.TID 0000.0001) %MON trAdv_CFL_v_max              =   3.1384576118471E-03
(PID.TID 0000.0001) %MON trAdv_CFL_w_max              =   3.4600846152959E-03
(PID.TID 0000.0001) %MON advcfl_uvel_max              =   3.3273448750549E-03
(PID.TID 0000.0001) %MON advcfl_vvel_max              =   3.2853221739295E-03
(PID.TID 0000.0001) %MON advcfl_wvel_max              =   5.1208579021951E-03
(PID.TID 0000.0001) %MON advcfl_W_hf_max              =   3.4600846152959E-03
(PID.TID 0000.0001) %MON pe_b_mean                    =   5.1446074192761E-04
(PID.TID 0000.0001) %MON ke_max                       =   5.1500596094650E-01
(PID.TID 0000.0001) %MON ke_mean                      =   1.6688772163843E-04
(PID.TID 0000.0001) %MON ke_vol                       =   1.3398090268833E+18
(PID.TID 0000.0001) %MON vort_r_min                   =  -7.1952964353749E-06
(PID.TID 0000.0001) %MON vort_r_max                   =   2.9379432856660E-06
(PID.TID 0000.0001) %MON vort_a_mean                  =  -2.0549865324846E-05
(PID.TID 0000.0001) %MON vort_a_sd                    =   7.5259512096465E-05
(PID.TID 0000.0001) %MON vort_p_mean                  =  -2.4783348195590E-05
(PID.TID 0000.0001) %MON vort_p_sd                    =   1.2811912021023E-04
(PID.TID 0000.0001) %MON surfExpan_theta_mean         =  -7.2561358975794E-06
(PID.TID 0000.0001) %MON surfExpan_salt_mean          =   1.4065426071922E-06
(PID.TID 0000.0001) // =======================================================
(PID.TID 0000.0001) // End MONITOR dynamic field statistics
(PID.TID 0000.0001) // =======================================================
 Computing Diagnostic #     81  oceTAUX      Counter:       1   Parms: UU      U1      
           Vector  Mate for  oceTAUX      Diagnostic #     82  oceTAUY  exists 
 Computing Diagnostic #     82  oceTAUY      Counter:       1   Parms: VV      U1      
           Vector  Mate for  oceTAUY      Diagnostic #     81  oceTAUX  exists 
 Computing Diagnostic #     85  oceFWflx     Counter:       1   Parms: SM      U1      
 Computing Diagnostic #     86  oceSflux     Counter:       1   Parms: SM      U1      
 Computing Diagnostic #     87  oceQnet      Counter:       1   Parms: SM      U1      
 Computing Diagnostic #     88  oceQsw       Counter:       1   Parms: SM      U1      
 Computing Diagnostic #     27  SALT         Counter:       1   Parms: SMR     MR      
 Computing Diagnostic #     26  THETA        Counter:       1   Parms: SMR     MR      
 Computing Diagnostic #     45  UVELMASS     Counter:       1   Parms: UUr     MR      
           Vector  Mate for  UVELMASS     Diagnostic #     46  VVELMASS exists 
 Computing Diagnostic #     46  VVELMASS     Counter:       1   Parms: VVr     MR      
           Vector  Mate for  VVELMASS     Diagnostic #     45  UVELMASS exists 
 cg2d: Sum(rhs),rhsMax =  -1.96207461031444E+01  8.26132244179130E+01
(PID.TID 0000.0001)      cg2d_init_res =   1.86077902053839E-01
(PID.TID 0000.0001)      cg2d_iters(min,last) =      -1      10
(PID.TID 0000.0001)      cg2d_last_res =   5.73873611145500E-08
(PID.TID 0000.0001) // =======================================================
(PID.TID 0000.0001) // Begin MONITOR dynamic field statistics
(PID.TID 0000.0001) // =======================================================
(PID.TID 0000.0001) %MON time_tsnumber                =                 72024
(PID.TID 0000.0001) %MON time_secondsf                =   6.4821600000000E+07
(PID.TID 0000.0001) %MON dynstat_eta_max              =   3.7738087811293E+00
(PID.TID 0000.0001) %MON dynstat_eta_min              =  -4.3915344838794E+00
(PID.TID 0000.0001) %MON dynstat_eta_mean             =   1.8835027746186E-02
(PID.TID 0000.0001) %MON dynstat_eta_sd               =   6.2170627317864E-01
(PID.TID 0000.0001) %MON dynstat_eta_del2             =   3.7891273254272E-03
(PID.TID 0000.0001) %MON dynstat_uvel_max             =   8.1849330520448E-01
(PID.TID 0000.0001) %MON dynstat_uvel_min             =  -6.0405413914257E-01
(PID.TID 0000.0001) %MON dynstat_uvel_mean            =   2.2819041251137E-05
(PID.TID 0000.0001) %MON dynstat_uvel_sd              =   1.3019386532111E-02
(PID.TID 0000.0001) %MON dynstat_uvel_del2            =   9.1840742131417E-05
(PID.TID 0000.0001) %MON dynstat_vvel_max             =   3.2263258854737E-01
(PID.TID 0000.0001) %MON dynstat_vvel_min             =  -9.7136319008934E-01
(PID.TID 0000.0001) %MON dynstat_vvel_mean            =  -4.3556829959633E-04
(PID.TID 0000.0001) %MON dynstat_vvel_sd              =   1.3799891217164E-02
(PID.TID 0000.0001) %MON dynstat_vvel_del2            =   1.0509077584889E-04
(PID.TID 0000.0001) %MON dynstat_wvel_max             =   1.2449843481168E-04
(PID.TID 0000.0001) %MON dynstat_wvel_min             =  -4.4538439958008E-04
(PID.TID 0000.0001) %MON dynstat_wvel_mean            =  -2.7000524999369E-07
(PID.TID 0000.0001) %MON dynstat_wvel_sd              =   9.0248757333227E-06
(PID.TID 0000.0001) %MON dynstat_wvel_del2            =   8.0189901761220E-08
(PID.TID 0000.0001) %MON dynstat_theta_max            =   3.0922164802592E+01
(PID.TID 0000.0001) %MON dynstat_theta_min            =  -3.0062203687759E+00
(PID.TID 0000.0001) %MON dynstat_theta_mean           =   3.9091047721150E+00
(PID.TID 0000.0001) %MON dynstat_theta_sd             =   4.5712771078617E+00
(PID.TID 0000.0001) %MON dynstat_theta_del2           =   2.6465259625041E-03
(PID.TID 0000.0001) %MON dynstat_salt_max             =   4.1359917651865E+01
(PID.TID 0000.0001) %MON dynstat_salt_min             =   1.8518608878392E+01
(PID.TID 0000.0001) %MON dynstat_salt_mean            =   3.4772057430657E+01
(PID.TID 0000.0001) %MON dynstat_salt_sd              =   5.3132139904548E-01
(PID.TID 0000.0001) %MON dynstat_salt_del2            =   8.9337654747427E-04
(PID.TID 0000.0001) %MON dynstat_sst_max              =   3.0922164802592E+01
(PID.TID 0000.0001) %MON dynstat_sst_min              =  -1.8991336285969E+00
(PID.TID 0000.0001) %MON dynstat_sst_mean             =   1.8107910560397E+01
(PID.TID 0000.0001) %MON dynstat_sst_sd               =   9.8077983984889E+00
(PID.TID 0000.0001) %MON dynstat_sst_del2             =   1.5122399787332E-02
(PID.TID 0000.0001) %MON dynstat_sss_max              =   4.1359917651865E+01
(PID.TID 0000.0001) %MON dynstat_sss_min              =   1.8751389224644E+01
(PID.TID 0000.0001) %MON dynstat_sss_mean             =   3.4631888589741E+01
(PID.TID 0000.0001) %MON dynstat_sss_sd               =   1.4665404308661E+00
(PID.TID 0000.0001) %MON dynstat_sss_del2             =   9.4031509832317E-03
(PID.TID 0000.0001) %MON forcing_qnet_max             =   3.0904434951731E+03
(PID.TID 0000.0001) %MON forcing_qnet_min             =  -2.4536916503906E+03
(PID.TID 0000.0001) %MON forcing_qnet_mean            =  -3.1207832960548E+01
(PID.TID 0000.0001) %MON forcing_qnet_sd              =   2.6816598503201E+02
(PID.TID 0000.0001) %MON forcing_qnet_del2            =   7.2051369259105E+00
(PID.TID 0000.0001) %MON forcing_qsw_max              =   0.0000000000000E+00
(PID.TID 0000.0001) %MON forcing_qsw_min              =  -1.1024048130021E+02
(PID.TID 0000.0001) %MON forcing_qsw_mean             =  -1.8122383842933E+01
(PID.TID 0000.0001) %MON forcing_qsw_sd               =   2.6417683322132E+01
(PID.TID 0000.0001) %MON forcing_qsw_del2             =   2.6331330252237E-01
(PID.TID 0000.0001) %MON forcing_empmr_max            =   9.2545365914702E-03
(PID.TID 0000.0001) %MON forcing_empmr_min            =  -1.4394377171993E-01
(PID.TID 0000.0001) %MON forcing_empmr_mean           =  -4.2702737240561E-04
(PID.TID 0000.0001) %MON forcing_empmr_sd             =   6.2113432759723E-03
(PID.TID 0000.0001) %MON forcing_empmr_del2           =   2.5112146147133E-04
(PID.TID 0000.0001) %MON forcing_fu_max               =   5.4273542032825E-01
(PID.TID 0000.0001) %MON forcing_fu_min               =  -4.0005181905119E-01
(PID.TID 0000.0001) %MON forcing_fu_mean              =  -4.1493945818249E-03
(PID.TID 0000.0001) %MON forcing_fu_sd                =   7.1572996788266E-02
(PID.TID 0000.0001) %MON forcing_fu_del2              =   7.0260511131005E-04
(PID.TID 0000.0001) %MON forcing_fv_max               =   3.1719596981530E-01
(PID.TID 0000.0001) %MON forcing_fv_min               =  -3.2779763837910E-01
(PID.TID 0000.0001) %MON forcing_fv_mean              =  -1.1184824166648E-02
(PID.TID 0000.0001) %MON forcing_fv_sd                =   6.9913376399998E-02
(PID.TID 0000.0001) %MON forcing_fv_del2              =   6.1441618475354E-04
(PID.TID 0000.0001) %MON trAdv_CFL_u_max              =   2.7480092106091E-03
(PID.TID 0000.0001) %MON trAdv_CFL_v_max              =   3.1763668804198E-03
(PID.TID 0000.0001) %MON trAdv_CFL_w_max              =   3.1566071294809E-03
(PID.TID 0000.0001) %MON advcfl_uvel_max              =   2.7294841635062E-03
(PID.TID 0000.0001) %MON advcfl_vvel_max              =   3.3191531231047E-03
(PID.TID 0000.0001) %MON advcfl_wvel_max              =   5.0067398859107E-03
(PID.TID 0000.0001) %MON advcfl_W_hf_max              =   3.1566071294809E-03
(PID.TID 0000.0001) %MON pe_b_mean                    =   5.1538434144961E-04
(PID.TID 0000.0001) %MON ke_max                       =   4.6475727284661E-01
(PID.TID 0000.0001) %MON ke_mean                      =   1.6631077513745E-04
(PID.TID 0000.0001) %MON ke_vol                       =   1.3398091640582E+18
(PID.TID 0000.0001) %MON vort_r_min                   =  -6.5733282016999E-06
(PID.TID 0000.0001) %MON vort_r_max                   =   2.9070835600122E-06
(PID.TID 0000.0001) %MON vort_a_mean                  =  -2.0549865324846E-05
(PID.TID 0000.0001) %MON vort_a_sd                    =   7.5259510420072E-05
(PID.TID 0000.0001) %MON vort_p_mean                  =  -2.4783345540761E-05
(PID.TID 0000.0001) %MON vort_p_sd                    =   1.2811910253200E-04
(PID.TID 0000.0001) %MON surfExpan_theta_mean         =  -7.1988931606250E-06
(PID.TID 0000.0001) %MON surfExpan_salt_mean          =   1.3687990336711E-06
(PID.TID 0000.0001) // =======================================================
(PID.TID 0000.0001) // End MONITOR dynamic field statistics
(PID.TID 0000.0001) // =======================================================
 cg2d: Sum(rhs),rhsMax =  -2.10275809253654E+01  7.85852489882074E+01
(PID.TID 0000.0001)      cg2d_init_res =   1.90224157025915E-01
(PID.TID 0000.0001)      cg2d_iters(min,last) =      -1      10
(PID.TID 0000.0001)      cg2d_last_res =   6.59132708852991E-08
(PID.TID 0000.0001) // =======================================================
(PID.TID 0000.0001) // Begin MONITOR dynamic field statistics
(PID.TID 0000.0001) // =======================================================
(PID.TID 0000.0001) %MON time_tsnumber                =                 72025
(PID.TID 0000.0001) %MON time_secondsf                =   6.4822500000000E+07
(PID.TID 0000.0001) %MON dynstat_eta_max              =   3.5903744299814E+00
(PID.TID 0000.0001) %MON dynstat_eta_min              =  -4.3815151922806E+00
(PID.TID 0000.0001) %MON dynstat_eta_mean             =   1.9201339204836E-02
(PID.TID 0000.0001) %MON dynstat_eta_sd               =   6.2207102830320E-01
(PID.TID 0000.0001) %MON dynstat_eta_del2             =   3.7106118902562E-03
(PID.TID 0000.0001) %MON dynstat_uvel_max             =   6.3461524942098E-01
(PID.TID 0000.0001) %MON dynstat_uvel_min             =  -6.2509267422374E-01
(PID.TID 0000.0001) %MON dynstat_uvel_mean            =   1.4504499658980E-05
(PID.TID 0000.0001) %MON dynstat_uvel_sd              =   1.2940066095380E-02
(PID.TID 0000.0001) %MON dynstat_uvel_del2            =   8.9115553685828E-05
(PID.TID 0000.0001) %MON dynstat_vvel_max             =   3.2972851839078E-01
(PID.TID 0000.0001) %MON dynstat_vvel_min             =  -9.6622582117570E-01
(PID.TID 0000.0001) %MON dynstat_vvel_mean            =  -4.3911253046485E-04
(PID.TID 0000.0001) %MON dynstat_vvel_sd              =   1.3849664107758E-02
(PID.TID 0000.0001) %MON dynstat_vvel_del2            =   1.0799792683445E-04
(PID.TID 0000.0001) %MON dynstat_wvel_max             =   1.3876524847224E-04
(PID.TID 0000.0001) %MON dynstat_wvel_min             =  -4.4404921458675E-04
(PID.TID 0000.0001) %MON dynstat_wvel_mean            =  -2.4967168198509E-07
(PID.TID 0000.0001) %MON dynstat_wvel_sd              =   8.8912807288014E-06
(PID.TID 0000.0001) %MON dynstat_wvel_del2            =   7.9066700297342E-08
(PID.TID 0000.0001) %MON dynstat_theta_max            =   3.0922212321326E+01
(PID.TID 0000.0001) %MON dynstat_theta_min            =  -3.0060953586559E+00
(PID.TID 0000.0001) %MON dynstat_theta_mean           =   3.9091085318343E+00
(PID.TID 0000.0001) %MON dynstat_theta_sd             =   4.5712919102063E+00
(PID.TID 0000.0001) %MON dynstat_theta_del2           =   2.6463799683759E-03
(PID.TID 0000.0001) %MON dynstat_salt_max             =   4.1359448804712E+01
(PID.TID 0000.0001) %MON dynstat_salt_min             =   1.8518618822748E+01
(PID.TID 0000.0001) %MON dynstat_salt_mean            =   3.4772053038388E+01
(PID.TID 0000.0001) %MON dynstat_salt_sd              =   5.3134173426153E-01
(PID.TID 0000.0001) %MON dynstat_salt_del2            =   8.9890376120516E-04
(PID.TID 0000.0001) %MON dynstat_sst_max              =   3.0922212321326E+01
(PID.TID 0000.0001) %MON dynstat_sst_min              =  -1.8990737874059E+00
(PID.TID 0000.0001) %MON dynstat_sst_mean             =   1.8108051011313E+01
(PID.TID 0000.0001) %MON dynstat_sst_sd               =   9.8079819489679E+00
(PID.TID 0000.0001) %MON dynstat_sst_del2             =   1.5119167975094E-02
(PID.TID 0000.0001) %MON dynstat_sss_max              =   4.1359448804712E+01
(PID.TID 0000.0001) %MON dynstat_sss_min              =   1.8751389863695E+01
(PID.TID 0000.0001) %MON dynstat_sss_mean             =   3.4631570597480E+01
(PID.TID 0000.0001) %MON dynstat_sss_sd               =   1.4670527420090E+00
(PID.TID 0000.0001) %MON dynstat_sss_del2             =   9.4859743142197E-03
(PID.TID 0000.0001) %MON forcing_qnet_max             =   3.0464507838070E+03
(PID.TID 0000.0001) %MON forcing_qnet_min             =  -2.4521574707031E+03
(PID.TID 0000.0001) %MON forcing_qnet_mean            =  -2.7759343827668E+01
(PID.TID 0000.0001) %MON forcing_qnet_sd              =   2.6215640005840E+02
(PID.TID 0000.0001) %MON forcing_qnet_del2            =   6.9648467658128E+00
(PID.TID 0000.0001) %MON forcing_qsw_max              =   0.0000000000000E+00
(PID.TID 0000.0001) %MON forcing_qsw_min              =  -1.0873407000574E+02
(PID.TID 0000.0001) %MON forcing_qsw_mean             =  -1.7653351385518E+01
(PID.TID 0000.0001) %MON forcing_qsw_sd               =   2.5876193289821E+01
(PID.TID 0000.0001) %MON forcing_qsw_del2             =   2.6440367635457E-01
(PID.TID 0000.0001) %MON forcing_empmr_max            =   8.6518526077271E-03
(PID.TID 0000.0001) %MON forcing_empmr_min            =  -1.4062766730785E-01
(PID.TID 0000.0001) %MON forcing_empmr_mean           =  -4.2125817744743E-04
(PID.TID 0000.0001) %MON forcing_empmr_sd             =   6.1189447732559E-03
(PID.TID 0000.0001) %MON forcing_empmr_del2           =   2.4696398958227E-04
(PID.TID 0000.0001) %MON forcing_fu_max               =   5.2202561600085E-01
(PID.TID 0000.0001) %MON forcing_fu_min               =  -3.9646733014404E-01
(PID.TID 0000.0001) %MON forcing_fu_mean              =  -4.1627870474346E-03
(PID.TID 0000.0001) %MON forcing_fu_sd                =   7.1016799494171E-02
(PID.TID 0000.0001) %MON forcing_fu_del2              =   6.9586243259817E-04
(PID.TID 0000.0001) %MON forcing_fv_max               =   3.1897785357331E-01
(PID.TID 0000.0001) %MON forcing_fv_min               =  -3.2101903180103E-01
(PID.TID 0000.0001) %MON forcing_fv_mean              =  -1.1233215941411E-02
(PID.TID 0000.0001) %MON forcing_fv_sd                =   6.9433771958264E-02
(PID.TID 0000.0001) %MON forcing_fv_del2              =   6.0944552752220E-04
(PID.TID 0000.0001) %MON trAdv_CFL_u_max              =   2.1368524064551E-03
(PID.TID 0000.0001) %MON trAdv_CFL_v_max              =   3.2384708625562E-03
(PID.TID 0000.0001) %MON trAdv_CFL_w_max              =   2.8583849553768E-03
(PID.TID 0000.0001) %MON advcfl_uvel_max              =   2.1162937585438E-03
(PID.TID 0000.0001) %MON advcfl_vvel_max              =   3.3015987065402E-03
(PID.TID 0000.0001) %MON advcfl_wvel_max              =   4.8913971237514E-03
(PID.TID 0000.0001) %MON advcfl_W_hf_max              =   2.8583849553768E-03
(PID.TID 0000.0001) %MON pe_b_mean                    =   5.1600722562352E-04
(PID.TID 0000.0001) %MON ke_max                       =   4.2052036263193E-01
(PID.TID 0000.0001) %MON ke_mean                      =   1.6600470088009E-04
(PID.TID 0000.0001) %MON ke_vol                       =   1.3398092991796E+18
(PID.TID 0000.0001) %MON vort_r_min                   =  -5.8777348187910E-06
(PID.TID 0000.0001) %MON vort_r_max                   =   2.8575950062409E-06
(PID.TID 0000.0001) %MON vort_a_mean                  =  -2.0549865324846E-05
(PID.TID 0000.0001) %MON vort_a_sd                    =   7.5259508432614E-05
(PID.TID 0000.0001) %MON vort_p_mean                  =  -2.4783342967756E-05
(PID.TID 0000.0001) %MON vort_p_sd                    =   1.2811908284769E-04
(PID.TID 0000.0001) %MON surfExpan_theta_mean         =  -7.1550114939668E-06
(PID.TID 0000.0001) %MON surfExpan_salt_mean          =   1.3328177762575E-06
(PID.TID 0000.0001) // =======================================================
(PID.TID 0000.0001) // End MONITOR dynamic field statistics
(PID.TID 0000.0001) // =======================================================
 cg2d: Sum(rhs),rhsMax =  -2.20789036556014E+01  7.62539007521135E+01
(PID.TID 0000.0001)      cg2d_init_res =   1.92584202762965E-01
(PID.TID 0000.0001)      cg2d_iters(min,last) =      -1      10
(PID.TID 0000.0001)      cg2d_last_res =   6.79658113625286E-08
(PID.TID 0000.0001) // =======================================================
(PID.TID 0000.0001) // Begin MONITOR dynamic field statistics
(PID.TID 0000.0001) // =======================================================
(PID.TID 0000.0001) %MON time_tsnumber                =                 72026
(PID.TID 0000.0001) %MON time_secondsf                =   6.4823400000000E+07
(PID.TID 0000.0001) %MON dynstat_eta_max              =   3.3754344370148E+00
(PID.TID 0000.0001) %MON dynstat_eta_min              =  -4.2957116899718E+00
(PID.TID 0000.0001) %MON dynstat_eta_mean             =   1.9563238179841E-02
(PID.TID 0000.0001) %MON dynstat_eta_sd               =   6.2224598069067E-01
(PID.TID 0000.0001) %MON dynstat_eta_del2             =   3.6035012139631E-03
(PID.TID 0000.0001) %MON dynstat_uvel_max             =   4.5576941085221E-01
(PID.TID 0000.0001) %MON dynstat_uvel_min             =  -6.7420373629835E-01
(PID.TID 0000.0001) %MON dynstat_uvel_mean            =   8.5741604097627E-07
(PID.TID 0000.0001) %MON dynstat_uvel_sd              =   1.2878694084515E-02
(PID.TID 0000.0001) %MON dynstat_uvel_del2            =   8.7041698308813E-05
(PID.TID 0000.0001) %MON dynstat_vvel_max             =   3.3534814026932E-01
(PID.TID 0000.0001) %MON dynstat_vvel_min             =  -9.5265301501242E-01
(PID.TID 0000.0001) %MON dynstat_vvel_mean            =  -4.4287558607009E-04
(PID.TID 0000.0001) %MON dynstat_vvel_sd              =   1.3901651313535E-02
(PID.TID 0000.0001) %MON dynstat_vvel_del2            =   1.1136490080230E-04
(PID.TID 0000.0001) %MON dynstat_wvel_max             =   1.5097599410807E-04
(PID.TID 0000.0001) %MON dynstat_wvel_min             =  -4.3318124935073E-04
(PID.TID 0000.0001) %MON dynstat_wvel_mean            =  -2.2837439369183E-07
(PID.TID 0000.0001) %MON dynstat_wvel_sd              =   8.7607788673098E-06
(PID.TID 0000.0001) %MON dynstat_wvel_del2            =   7.7975347442535E-08
(PID.TID 0000.0001) %MON dynstat_theta_max            =   3.0922276336522E+01
(PID.TID 0000.0001) %MON dynstat_theta_min            =  -3.0060148876288E+00
(PID.TID 0000.0001) %MON dynstat_theta_mean           =   3.9091120595083E+00
(PID.TID 0000.0001) %MON dynstat_theta_sd             =   4.5713058835875E+00
(PID.TID 0000.0001) %MON dynstat_theta_del2           =   2.6462340839013E-03
(PID.TID 0000.0001) %MON dynstat_salt_max             =   4.1359018035337E+01
(PID.TID 0000.0001) %MON dynstat_salt_min             =   1.8518628806485E+01
(PID.TID 0000.0001) %MON dynstat_salt_mean            =   3.4772048736728E+01
(PID.TID 0000.0001) %MON dynstat_salt_sd              =   5.3136203205232E-01
(PID.TID 0000.0001) %MON dynstat_salt_del2            =   9.0443348223054E-04
(PID.TID 0000.0001) %MON dynstat_sst_max              =   3.0922276336522E+01
(PID.TID 0000.0001) %MON dynstat_sst_min              =  -1.8990074932317E+00
(PID.TID 0000.0001) %MON dynstat_sst_mean             =   1.8108177506439E+01
(PID.TID 0000.0001) %MON dynstat_sst_sd               =   9.8081597377366E+00
(PID.TID 0000.0001) %MON dynstat_sst_del2             =   1.5115962573410E-02
(PID.TID 0000.0001) %MON dynstat_sss_max              =   4.1359018035337E+01
(PID.TID 0000.0001) %MON dynstat_sss_min              =   1.8751390462971E+01
(PID.TID 0000.0001) %MON dynstat_sss_mean             =   3.4631259424890E+01
(PID.TID 0000.0001) %MON dynstat_sss_sd               =   1.4675644149061E+00
(PID.TID 0000.0001) %MON dynstat_sss_del2             =   9.5686291215387E-03
(PID.TID 0000.0001) %MON forcing_qnet_max             =   3.0045453225343E+03
(PID.TID 0000.0001) %MON forcing_qnet_min             =  -2.3997800292969E+03
(PID.TID 0000.0001) %MON forcing_qnet_mean            =  -2.4170985347971E+01
(PID.TID 0000.0001) %MON forcing_qnet_sd              =   2.5935698980054E+02
(PID.TID 0000.0001) %MON forcing_qnet_del2            =   6.7186336689180E+00
(PID.TID 0000.0001) %MON forcing_qsw_max              =   0.0000000000000E+00
(PID.TID 0000.0001) %MON forcing_qsw_min              =  -1.0829113530645E+02
(PID.TID 0000.0001) %MON forcing_qsw_mean             =  -1.7456908216409E+01
(PID.TID 0000.0001) %MON forcing_qsw_sd               =   2.5637215610262E+01
(PID.TID 0000.0001) %MON forcing_qsw_del2             =   2.6373448130147E-01
(PID.TID 0000.0001) %MON forcing_empmr_max            =   8.5626496002078E-03
(PID.TID 0000.0001) %MON forcing_empmr_min            =  -1.3724167644978E-01
(PID.TID 0000.0001) %MON forcing_empmr_mean           =  -4.1618382125588E-04
(PID.TID 0000.0001) %MON forcing_empmr_sd             =   6.0259765180096E-03
(PID.TID 0000.0001) %MON forcing_empmr_del2           =   2.4277192879750E-04
(PID.TID 0000.0001) %MON forcing_fu_max               =   5.0766765403225E-01
(PID.TID 0000.0001) %MON forcing_fu_min               =  -3.8936359215821E-01
(PID.TID 0000.0001) %MON forcing_fu_mean              =  -4.1331411378963E-03
(PID.TID 0000.0001) %MON forcing_fu_sd                =   7.0349257788289E-02
(PID.TID 0000.0001) %MON forcing_fu_del2              =   6.8789855899701E-04
(PID.TID 0000.0001) %MON forcing_fv_max               =   3.2057326175613E-01
(PID.TID 0000.0001) %MON forcing_fv_min               =  -3.1397666787928E-01
(PID.TID 0000.0001) %MON forcing_fv_mean              =  -1.1264392598382E-02
(PID.TID 0000.0001) %MON forcing_fv_sd                =   6.9005409291813E-02
(PID.TID 0000.0001) %MON forcing_fv_del2              =   6.0454411997323E-04
(PID.TID 0000.0001) %MON trAdv_CFL_u_max              =   1.9825482861321E-03
(PID.TID 0000.0001) %MON trAdv_CFL_v_max              =   3.7115069892515E-03
(PID.TID 0000.0001) %MON trAdv_CFL_w_max              =   2.5696853861251E-03
(PID.TID 0000.0001) %MON advcfl_uvel_max              =   1.9843414145519E-03
(PID.TID 0000.0001) %MON advcfl_vvel_max              =   3.2336992336142E-03
(PID.TID 0000.0001) %MON advcfl_wvel_max              =   4.7736235286879E-03
(PID.TID 0000.0001) %MON advcfl_W_hf_max              =   2.5696853861251E-03
(PID.TID 0000.0001) %MON pe_b_mean                    =   5.1631587332164E-04
(PID.TID 0000.0001) %MON ke_max                       =   3.8341877620112E-01
(PID.TID 0000.0001) %MON ke_mean                      =   1.6594765378806E-04
(PID.TID 0000.0001) %MON ke_vol                       =   1.3398094324754E+18
(PID.TID 0000.0001) %MON vort_r_min                   =  -5.3376037535294E-06
(PID.TID 0000.0001) %MON vort_r_max                   =   2.7904467819381E-06
(PID.TID 0000.0001) %MON vort_a_mean                  =  -2.0549865324846E-05
(PID.TID 0000.0001) %MON vort_a_sd                    =   7.5259506252941E-05
(PID.TID 0000.0001) %MON vort_p_mean                  =  -2.4783340469847E-05
(PID.TID 0000.0001) %MON vort_p_sd                    =   1.2811906301830E-04
(PID.TID 0000.0001) %MON surfExpan_theta_mean         =  -7.1234619673736E-06
(PID.TID 0000.0001) %MON surfExpan_salt_mean          =   1.2975976225826E-06
(PID.TID 0000.0001) // =======================================================
(PID.TID 0000.0001) // End MONITOR dynamic field statistics
(PID.TID 0000.0001) // =======================================================
 cg2d: Sum(rhs),rhsMax =  -2.33353514160444E+01  7.34653581204693E+01
(PID.TID 0000.0001)      cg2d_init_res =   1.99540714553004E-01
(PID.TID 0000.0001)      cg2d_iters(min,last) =      -1      10
(PID.TID 0000.0001)      cg2d_last_res =   6.91095506141395E-08
(PID.TID 0000.0001) // =======================================================
(PID.TID 0000.0001) // Begin MONITOR dynamic field statistics
(PID.TID 0000.0001) // =======================================================
(PID.TID 0000.0001) %MON time_tsnumber                =                 72027
(PID.TID 0000.0001) %MON time_secondsf                =   6.4824300000000E+07
(PID.TID 0000.0001) %MON dynstat_eta_max              =   3.1330670157904E+00
(PID.TID 0000.0001) %MON dynstat_eta_min              =  -4.1379045683821E+00
(PID.TID 0000.0001) %MON dynstat_eta_mean             =   1.9920402932066E-02
(PID.TID 0000.0001) %MON dynstat_eta_sd               =   6.2223364643721E-01
(PID.TID 0000.0001) %MON dynstat_eta_del2             =   3.4709882408255E-03
(PID.TID 0000.0001) %MON dynstat_uvel_max             =   4.1937388796740E-01
(PID.TID 0000.0001) %MON dynstat_uvel_min             =  -7.2177223077156E-01
(PID.TID 0000.0001) %MON dynstat_uvel_mean            =  -1.7905646183103E-05
(PID.TID 0000.0001) %MON dynstat_uvel_sd              =   1.2836984232234E-02
(PID.TID 0000.0001) %MON dynstat_uvel_del2            =   8.5605102871471E-05
(PID.TID 0000.0001) %MON dynstat_vvel_max             =   4.7391775414509E-01
(PID.TID 0000.0001) %MON dynstat_vvel_min             =  -9.5258434006705E-01
(PID.TID 0000.0001) %MON dynstat_vvel_mean            =  -4.4631572274477E-04
(PID.TID 0000.0001) %MON dynstat_vvel_sd              =   1.3952072815235E-02
(PID.TID 0000.0001) %MON dynstat_vvel_del2            =   1.1485540704911E-04
(PID.TID 0000.0001) %MON dynstat_wvel_max             =   1.6122389157640E-04
(PID.TID 0000.0001) %MON dynstat_wvel_min             =  -4.1493889070833E-04
(PID.TID 0000.0001) %MON dynstat_wvel_mean            =  -2.0597356651303E-07
(PID.TID 0000.0001) %MON dynstat_wvel_sd              =   8.6530958631976E-06
(PID.TID 0000.0001) %MON dynstat_wvel_del2            =   7.7025552698838E-08
(PID.TID 0000.0001) %MON dynstat_theta_max            =   3.0922355839601E+01
(PID.TID 0000.0001) %MON dynstat_theta_min            =  -3.0059646499617E+00
(PID.TID 0000.0001) %MON dynstat_theta_mean           =   3.9091154197989E+00
(PID.TID 0000.0001) %MON dynstat_theta_sd             =   4.5713191316148E+00
(PID.TID 0000.0001) %MON dynstat_theta_del2           =   2.6461023767175E-03
(PID.TID 0000.0001) %MON dynstat_salt_max             =   4.1358621927226E+01
(PID.TID 0000.0001) %MON dynstat_salt_min             =   1.8518638835173E+01
(PID.TID 0000.0001) %MON dynstat_salt_mean            =   3.4772044537617E+01
(PID.TID 0000.0001) %MON dynstat_salt_sd              =   5.3138215129794E-01
(PID.TID 0000.0001) %MON dynstat_salt_del2            =   9.0995869415537E-04
(PID.TID 0000.0001) %MON dynstat_sst_max              =   3.0922355839601E+01
(PID.TID 0000.0001) %MON dynstat_sst_min              =  -1.9000373937921E+00
(PID.TID 0000.0001) %MON dynstat_sst_mean             =   1.8108286826136E+01
(PID.TID 0000.0001) %MON dynstat_sst_sd               =   9.8083451365087E+00
(PID.TID 0000.0001) %MON dynstat_sst_del2             =   1.5113143985384E-02
(PID.TID 0000.0001) %MON dynstat_sss_max              =   4.1358621927226E+01
(PID.TID 0000.0001) %MON dynstat_sss_min              =   1.8751391080228E+01
(PID.TID 0000.0001) %MON dynstat_sss_mean             =   3.4630955596201E+01
(PID.TID 0000.0001) %MON dynstat_sss_sd               =   1.4680719363874E+00
(PID.TID 0000.0001) %MON dynstat_sss_del2             =   9.6510158594514E-03
(PID.TID 0000.0001) %MON forcing_qnet_max             =   2.9617754072884E+03
(PID.TID 0000.0001) %MON forcing_qnet_min             =  -1.0575401367188E+04
(PID.TID 0000.0001) %MON forcing_qnet_mean            =  -2.1735606246850E+01
(PID.TID 0000.0001) %MON forcing_qnet_sd              =   2.9646117508618E+02
(PID.TID 0000.0001) %MON forcing_qnet_del2            =   7.4548593667132E+00
(PID.TID 0000.0001) %MON forcing_qsw_max              =   0.0000000000000E+00
(PID.TID 0000.0001) %MON forcing_qsw_min              =  -1.0739838234649E+02
(PID.TID 0000.0001) %MON forcing_qsw_mean             =  -1.7215685996230E+01
(PID.TID 0000.0001) %MON forcing_qsw_sd               =   2.5384862925891E+01
(PID.TID 0000.0001) %MON forcing_qsw_del2             =   2.6227003655626E-01
(PID.TID 0000.0001) %MON forcing_empmr_max            =   8.4743816405535E-03
(PID.TID 0000.0001) %MON forcing_empmr_min            =  -1.3358481228352E-01
(PID.TID 0000.0001) %MON forcing_empmr_mean           =  -4.1073946505787E-04
(PID.TID 0000.0001) %MON forcing_empmr_sd             =   5.9315658589488E-03
(PID.TID 0000.0001) %MON forcing_empmr_del2           =   2.3850890783901E-04
(PID.TID 0000.0001) %MON forcing_fu_max               =   4.8946223733193E-01
(PID.TID 0000.0001) %MON forcing_fu_min               =  -3.8517116426756E-01
(PID.TID 0000.0001) %MON forcing_fu_mean              =  -4.0726182445843E-03
(PID.TID 0000.0001) %MON forcing_fu_sd                =   6.9771392791447E-02
(PID.TID 0000.0001) %MON forcing_fu_del2              =   6.8017618240958E-04
(PID.TID 0000.0001) %MON forcing_fv_max               =   3.2260658548087E-01
(PID.TID 0000.0001) %MON forcing_fv_min               =  -3.0845807352677E-01
(PID.TID 0000.0001) %MON forcing_fv_mean              =  -1.1338650087208E-02
(PID.TID 0000.0001) %MON forcing_fv_sd                =   6.8583108458095E-02
(PID.TID 0000.0001) %MON forcing_fv_del2              =   5.9974936298731E-04
(PID.TID 0000.0001) %MON trAdv_CFL_u_max              =   2.1229165023274E-03
(PID.TID 0000.0001) %MON trAdv_CFL_v_max              =   4.1316169984016E-03
(PID.TID 0000.0001) %MON trAdv_CFL_w_max              =   2.2950458677723E-03
(PID.TID 0000.0001) %MON advcfl_uvel_max              =   2.1243467698015E-03
(PID.TID 0000.0001) %MON advcfl_vvel_max              =   3.1171735278472E-03
(PID.TID 0000.0001) %MON advcfl_wvel_max              =   4.6464282533397E-03
(PID.TID 0000.0001) %MON advcfl_W_hf_max              =   2.2950458677723E-03
(PID.TID 0000.0001) %MON pe_b_mean                    =   5.1631416059817E-04
(PID.TID 0000.0001) %MON ke_max                       =   3.9118472326369E-01
(PID.TID 0000.0001) %MON ke_mean                      =   1.6610815213326E-04
(PID.TID 0000.0001) %MON ke_vol                       =   1.3398095641657E+18
(PID.TID 0000.0001) %MON vort_r_min                   =  -5.4941638911682E-06
(PID.TID 0000.0001) %MON vort_r_max                   =   2.7068913178594E-06
(PID.TID 0000.0001) %MON vort_a_mean                  =  -2.0549865324846E-05
(PID.TID 0000.0001) %MON vort_a_sd                    =   7.5259504039188E-05
(PID.TID 0000.0001) %MON vort_p_mean                  =  -2.4783338041448E-05
(PID.TID 0000.0001) %MON vort_p_sd                    =   1.2811904482400E-04
(PID.TID 0000.0001) %MON surfExpan_theta_mean         =  -7.0875828420123E-06
(PID.TID 0000.0001) %MON surfExpan_salt_mean          =   1.2599864111768E-06
(PID.TID 0000.0001) // =======================================================
(PID.TID 0000.0001) // End MONITOR dynamic field statistics
(PID.TID 0000.0001) // =======================================================
 Computing Diagnostic #     81  oceTAUX      Counter:       1   Parms: UU      U1      
           Vector  Mate for  oceTAUX      Diagnostic #     82  oceTAUY  exists 
 Computing Diagnostic #     82  oceTAUY      Counter:       1   Parms: VV      U1      
           Vector  Mate for  oceTAUY      Diagnostic #     81  oceTAUX  exists 
 Computing Diagnostic #     85  oceFWflx     Counter:       1   Parms: SM      U1      
 Computing Diagnostic #     86  oceSflux     Counter:       1   Parms: SM      U1      
 Computing Diagnostic #     87  oceQnet      Counter:       1   Parms: SM      U1      
 Computing Diagnostic #     88  oceQsw       Counter:       1   Parms: SM      U1      
 Computing Diagnostic #     27  SALT         Counter:       1   Parms: SMR     MR      
 Computing Diagnostic #     26  THETA        Counter:       1   Parms: SMR     MR      
 Computing Diagnostic #     45  UVELMASS     Counter:       1   Parms: UUr     MR      
           Vector  Mate for  UVELMASS     Diagnostic #     46  VVELMASS exists 
 Computing Diagnostic #     46  VVELMASS     Counter:       1   Parms: VVr     MR      
           Vector  Mate for  VVELMASS     Diagnostic #     45  UVELMASS exists 
 cg2d: Sum(rhs),rhsMax =  -2.51084538121579E+01  6.94810440730580E+01
(PID.TID 0000.0001)      cg2d_init_res =   2.14080079891709E-01
(PID.TID 0000.0001)      cg2d_iters(min,last) =      -1      10
(PID.TID 0000.0001)      cg2d_last_res =   7.24301396589565E-08
(PID.TID 0000.0001) // =======================================================
(PID.TID 0000.0001) // Begin MONITOR dynamic field statistics
(PID.TID 0000.0001) // =======================================================
(PID.TID 0000.0001) %MON time_tsnumber                =                 72028
(PID.TID 0000.0001) %MON time_secondsf                =   6.4825200000000E+07
(PID.TID 0000.0001) %MON dynstat_eta_max              =   2.8676781936978E+00
(PID.TID 0000.0001) %MON dynstat_eta_min              =  -3.9128842975590E+00
(PID.TID 0000.0001) %MON dynstat_eta_mean             =   2.0271574350781E-02
(PID.TID 0000.0001) %MON dynstat_eta_sd               =   6.2205060057742E-01
(PID.TID 0000.0001) %MON dynstat_eta_del2             =   3.3175239869612E-03
(PID.TID 0000.0001) %MON dynstat_uvel_max             =   4.0145445995322E-01
(PID.TID 0000.0001) %MON dynstat_uvel_min             =  -7.6700432007833E-01
(PID.TID 0000.0001) %MON dynstat_uvel_mean            =  -4.1419268621615E-05
(PID.TID 0000.0001) %MON dynstat_uvel_sd              =   1.2814925339213E-02
(PID.TID 0000.0001) %MON dynstat_uvel_del2            =   8.4745464792654E-05
(PID.TID 0000.0001) %MON dynstat_vvel_max             =   6.0855653069301E-01
(PID.TID 0000.0001) %MON dynstat_vvel_min             =  -9.4336673545224E-01
(PID.TID 0000.0001) %MON dynstat_vvel_mean            =  -4.4879614723442E-04
(PID.TID 0000.0001) %MON dynstat_vvel_sd              =   1.3997208746884E-02
(PID.TID 0000.0001) %MON dynstat_vvel_del2            =   1.1820666096644E-04
(PID.TID 0000.0001) %MON dynstat_wvel_max             =   1.6968681818455E-04
(PID.TID 0000.0001) %MON dynstat_wvel_min             =  -3.9297372820653E-04
(PID.TID 0000.0001) %MON dynstat_wvel_mean            =  -1.8272965260662E-07
(PID.TID 0000.0001) %MON dynstat_wvel_sd              =   8.5769612651382E-06
(PID.TID 0000.0001) %MON dynstat_wvel_del2            =   7.6234900832277E-08
(PID.TID 0000.0001) %MON dynstat_theta_max            =   3.0922449827024E+01
(PID.TID 0000.0001) %MON dynstat_theta_min            =  -3.0059306992782E+00
(PID.TID 0000.0001) %MON dynstat_theta_mean           =   3.9091182831126E+00
(PID.TID 0000.0001) %MON dynstat_theta_sd             =   4.5713308235068E+00
(PID.TID 0000.0001) %MON dynstat_theta_del2           =   2.6459664893212E-03
(PID.TID 0000.0001) %MON dynstat_salt_max             =   4.1358255844015E+01
(PID.TID 0000.0001) %MON dynstat_salt_min             =   1.8518648912560E+01
(PID.TID 0000.0001) %MON dynstat_salt_mean            =   3.4772040350569E+01
(PID.TID 0000.0001) %MON dynstat_salt_sd              =   5.3140198876736E-01
(PID.TID 0000.0001) %MON dynstat_salt_del2            =   9.1547170876409E-04
(PID.TID 0000.0001) %MON dynstat_sst_max              =   3.0922449827024E+01
(PID.TID 0000.0001) %MON dynstat_sst_min              =  -1.9038919319391E+00
(PID.TID 0000.0001) %MON dynstat_sst_mean             =   1.8108369851289E+01
(PID.TID 0000.0001) %MON dynstat_sst_sd               =   9.8085140994083E+00
(PID.TID 0000.0001) %MON dynstat_sst_del2             =   1.5110275031064E-02
(PID.TID 0000.0001) %MON dynstat_sss_max              =   4.1358255844015E+01
(PID.TID 0000.0001) %MON dynstat_sss_min              =   1.8751391708844E+01
(PID.TID 0000.0001) %MON dynstat_sss_mean             =   3.4630653119912E+01
(PID.TID 0000.0001) %MON dynstat_sss_sd               =   1.4685715794242E+00
(PID.TID 0000.0001) %MON dynstat_sss_del2             =   9.7330237925690E-03
(PID.TID 0000.0001) %MON forcing_qnet_max             =   1.2601999450790E+04
(PID.TID 0000.0001) %MON forcing_qnet_min             =  -2.3587727050781E+03
(PID.TID 0000.0001) %MON forcing_qnet_mean            =  -1.3711695018361E+01
(PID.TID 0000.0001) %MON forcing_qnet_sd              =   3.0831106204023E+02
(PID.TID 0000.0001) %MON forcing_qnet_del2            =   9.6633774573305E+00
(PID.TID 0000.0001) %MON forcing_qsw_max              =   0.0000000000000E+00
(PID.TID 0000.0001) %MON forcing_qsw_min              =  -1.0605953067000E+02
(PID.TID 0000.0001) %MON forcing_qsw_mean             =  -1.6928872714022E+01
(PID.TID 0000.0001) %MON forcing_qsw_sd               =   2.5123151410843E+01
(PID.TID 0000.0001) %MON forcing_qsw_del2             =   2.6002696640137E-01
(PID.TID 0000.0001) %MON forcing_empmr_max            =   8.3870477974415E-03
(PID.TID 0000.0001) %MON forcing_empmr_min            =  -1.2713800370693E-01
(PID.TID 0000.0001) %MON forcing_empmr_mean           =  -4.0384713152344E-04
(PID.TID 0000.0001) %MON forcing_empmr_sd             =   5.8172104217356E-03
(PID.TID 0000.0001) %MON forcing_empmr_del2           =   2.3333773047586E-04
(PID.TID 0000.0001) %MON forcing_fu_max               =   4.6994940891256E-01
(PID.TID 0000.0001) %MON forcing_fu_min               =  -3.8032032179957E-01
(PID.TID 0000.0001) %MON forcing_fu_mean              =  -4.0803901032305E-03
(PID.TID 0000.0001) %MON forcing_fu_sd                =   6.9031845676919E-02
(PID.TID 0000.0001) %MON forcing_fu_del2              =   6.7154689103300E-04
(PID.TID 0000.0001) %MON forcing_fv_max               =   3.2299172426337E-01
(PID.TID 0000.0001) %MON forcing_fv_min               =  -3.0393428501077E-01
(PID.TID 0000.0001) %MON forcing_fv_mean              =  -1.1435596375161E-02
(PID.TID 0000.0001) %MON forcing_fv_sd                =   6.8089055107552E-02
(PID.TID 0000.0001) %MON forcing_fv_del2              =   5.9422961010456E-04
(PID.TID 0000.0001) %MON trAdv_CFL_u_max              =   2.2569058732109E-03
(PID.TID 0000.0001) %MON trAdv_CFL_v_max              =   4.4937138752442E-03
(PID.TID 0000.0001) %MON trAdv_CFL_w_max              =   2.0766891070373E-03
(PID.TID 0000.0001) %MON advcfl_uvel_max              =   2.2574755308062E-03
(PID.TID 0000.0001) %MON advcfl_vvel_max              =   2.9546090596090E-03
(PID.TID 0000.0001) %MON advcfl_wvel_max              =   4.4221914332846E-03
(PID.TID 0000.0001) %MON advcfl_W_hf_max              =   2.0388008197121E-03
(PID.TID 0000.0001) %MON pe_b_mean                    =   5.1602949502639E-04
(PID.TID 0000.0001) %MON ke_max                       =   4.0056710733513E-01
(PID.TID 0000.0001) %MON ke_mean                      =   1.6643523906308E-04
(PID.TID 0000.0001) %MON ke_vol                       =   1.3398096941332E+18
(PID.TID 0000.0001) %MON vort_r_min                   =  -5.6131037188584E-06
(PID.TID 0000.0001) %MON vort_r_max                   =   2.6084430741667E-06
(PID.TID 0000.0001) %MON vort_a_mean                  =  -2.0549865324846E-05
(PID.TID 0000.0001) %MON vort_a_sd                    =   7.5259501967918E-05
(PID.TID 0000.0001) %MON vort_p_mean                  =  -2.4783335683290E-05
(PID.TID 0000.0001) %MON vort_p_sd                    =   1.2811902979921E-04
(PID.TID 0000.0001) %MON surfExpan_theta_mean         =  -7.0527674648658E-06
(PID.TID 0000.0001) %MON surfExpan_salt_mean          =   1.2215112858753E-06
(PID.TID 0000.0001) // =======================================================
(PID.TID 0000.0001) // End MONITOR dynamic field statistics
(PID.TID 0000.0001) // =======================================================
 cg2d: Sum(rhs),rhsMax =  -2.75491886595138E+01  6.44013045839185E+01
(PID.TID 0000.0001)      cg2d_init_res =   2.36938489361710E-01
(PID.TID 0000.0001)      cg2d_iters(min,last) =      -1      10
(PID.TID 0000.0001)      cg2d_last_res =   7.84855747858750E-08
(PID.TID 0000.0001) // =======================================================
(PID.TID 0000.0001) // Begin MONITOR dynamic field statistics
(PID.TID 0000.0001) // =======================================================
(PID.TID 0000.0001) %MON time_tsnumber                =                 72029
(PID.TID 0000.0001) %MON time_secondsf                =   6.4826100000000E+07
(PID.TID 0000.0001) %MON dynstat_eta_max              =   2.5839003436572E+00
(PID.TID 0000.0001) %MON dynstat_eta_min              =  -3.6263457584842E+00
(PID.TID 0000.0001) %MON dynstat_eta_mean             =   2.0616011669266E-02
(PID.TID 0000.0001) %MON dynstat_eta_sd               =   6.2172714945544E-01
(PID.TID 0000.0001) %MON dynstat_eta_del2             =   3.1488554111290E-03
(PID.TID 0000.0001) %MON dynstat_uvel_max             =   3.9248778423971E-01
(PID.TID 0000.0001) %MON dynstat_uvel_min             =  -8.0910227257391E-01
(PID.TID 0000.0001) %MON dynstat_uvel_mean            =  -6.9120615489487E-05
(PID.TID 0000.0001) %MON dynstat_uvel_sd              =   1.2811047793208E-02
(PID.TID 0000.0001) %MON dynstat_uvel_del2            =   8.4365934268011E-05
(PID.TID 0000.0001) %MON dynstat_vvel_max             =   7.2945583392725E-01
(PID.TID 0000.0001) %MON dynstat_vvel_min             =  -9.6399887524430E-01
(PID.TID 0000.0001) %MON dynstat_vvel_mean            =  -4.4964981118564E-04
(PID.TID 0000.0001) %MON dynstat_vvel_sd              =   1.4033723069845E-02
(PID.TID 0000.0001) %MON dynstat_vvel_del2            =   1.2122687530809E-04
(PID.TID 0000.0001) %MON dynstat_wvel_max             =   1.7657826323704E-04
(PID.TID 0000.0001) %MON dynstat_wvel_min             =  -3.6762433601157E-04
(PID.TID 0000.0001) %MON dynstat_wvel_mean            =  -1.5868255108536E-07
(PID.TID 0000.0001) %MON dynstat_wvel_sd              =   8.5316818091849E-06
(PID.TID 0000.0001) %MON dynstat_wvel_del2            =   7.5612593609831E-08
(PID.TID 0000.0001) %MON dynstat_theta_max            =   3.0922560371635E+01
(PID.TID 0000.0001) %MON dynstat_theta_min            =  -3.0059008198300E+00
(PID.TID 0000.0001) %MON dynstat_theta_mean           =   3.9091209370729E+00
(PID.TID 0000.0001) %MON dynstat_theta_sd             =   4.5713416290830E+00
(PID.TID 0000.0001) %MON dynstat_theta_del2           =   2.6458292198879E-03
(PID.TID 0000.0001) %MON dynstat_salt_max             =   4.1357887553547E+01
(PID.TID 0000.0001) %MON dynstat_salt_min             =   1.8518659041858E+01
(PID.TID 0000.0001) %MON dynstat_salt_mean            =   3.4772036296686E+01
(PID.TID 0000.0001) %MON dynstat_salt_sd              =   5.3142203995637E-01
(PID.TID 0000.0001) %MON dynstat_salt_del2            =   9.2096454301312E-04
(PID.TID 0000.0001) %MON dynstat_sst_max              =   3.0922560371635E+01
(PID.TID 0000.0001) %MON dynstat_sst_min              =  -1.8987630499226E+00
(PID.TID 0000.0001) %MON dynstat_sst_mean             =   1.8108442613491E+01
(PID.TID 0000.0001) %MON dynstat_sst_sd               =   9.8086694754490E+00
(PID.TID 0000.0001) %MON dynstat_sst_del2             =   1.5107404641616E-02
(PID.TID 0000.0001) %MON dynstat_sss_max              =   4.1357887553547E+01
(PID.TID 0000.0001) %MON dynstat_sss_min              =   1.8751392317277E+01
(PID.TID 0000.0001) %MON dynstat_sss_mean             =   3.4630360840273E+01
(PID.TID 0000.0001) %MON dynstat_sss_sd               =   1.4690774131863E+00
(PID.TID 0000.0001) %MON dynstat_sss_del2             =   9.8145379226261E-03
(PID.TID 0000.0001) %MON forcing_qnet_max             =   2.8794619185994E+03
(PID.TID 0000.0001) %MON forcing_qnet_min             =  -2.2478686523438E+03
(PID.TID 0000.0001) %MON forcing_qnet_mean            =  -1.0381567843020E+01
(PID.TID 0000.0001) %MON forcing_qnet_sd              =   2.4540049438266E+02
(PID.TID 0000.0001) %MON forcing_qnet_del2            =   6.0572814254944E+00
(PID.TID 0000.0001) %MON forcing_qsw_max              =   0.0000000000000E+00
(PID.TID 0000.0001) %MON forcing_qsw_min              =  -1.0274068112566E+02
(PID.TID 0000.0001) %MON forcing_qsw_mean             =  -1.6397083979775E+01
(PID.TID 0000.0001) %MON forcing_qsw_sd               =   2.4693325069257E+01
(PID.TID 0000.0001) %MON forcing_qsw_del2             =   2.5565948674731E-01
(PID.TID 0000.0001) %MON forcing_empmr_max            =   8.3005512133241E-03
(PID.TID 0000.0001) %MON forcing_empmr_min            =  -1.2215168774128E-01
(PID.TID 0000.0001) %MON forcing_empmr_mean           =  -3.9610291625703E-04
(PID.TID 0000.0001) %MON forcing_empmr_sd             =   5.6999372064731E-03
(PID.TID 0000.0001) %MON forcing_empmr_del2           =   2.2770957797995E-04
(PID.TID 0000.0001) %MON forcing_fu_max               =   4.5628857400403E-01
(PID.TID 0000.0001) %MON forcing_fu_min               =  -3.7694440996683E-01
(PID.TID 0000.0001) %MON forcing_fu_mean              =  -4.0957179491340E-03
(PID.TID 0000.0001) %MON forcing_fu_sd                =   6.8330261292453E-02
(PID.TID 0000.0001) %MON forcing_fu_del2              =   6.6426516396622E-04
(PID.TID 0000.0001) %MON forcing_fv_max               =   3.2380725388762E-01
(PID.TID 0000.0001) %MON forcing_fv_min               =  -3.0050703937036E-01
(PID.TID 0000.0001) %MON forcing_fv_mean              =  -1.1542579919051E-02
(PID.TID 0000.0001) %MON forcing_fv_sd                =   6.7650784523509E-02
(PID.TID 0000.0001) %MON forcing_fv_del2              =   5.8986088946231E-04
(PID.TID 0000.0001) %MON trAdv_CFL_u_max              =   2.3822496773648E-03
(PID.TID 0000.0001) %MON trAdv_CFL_v_max              =   4.7937126549996E-03
(PID.TID 0000.0001) %MON trAdv_CFL_w_max              =   2.0251095001669E-03
(PID.TID 0000.0001) %MON advcfl_uvel_max              =   2.3813797842348E-03
(PID.TID 0000.0001) %MON advcfl_vvel_max              =   3.1458799680277E-03
(PID.TID 0000.0001) %MON advcfl_wvel_max              =   4.2487543562184E-03
(PID.TID 0000.0001) %MON advcfl_W_hf_max              =   1.9922417711872E-03
(PID.TID 0000.0001) %MON pe_b_mean                    =   5.1551227040856E-04
(PID.TID 0000.0001) %MON ke_max                       =   4.0556488532165E-01
(PID.TID 0000.0001) %MON ke_mean                      =   1.6686629238110E-04
(PID.TID 0000.0001) %MON ke_vol                       =   1.3398098219198E+18
(PID.TID 0000.0001) %MON vort_r_min                   =  -5.6918330755429E-06
(PID.TID 0000.0001) %MON vort_r_max                   =   2.4968527411601E-06
(PID.TID 0000.0001) %MON vort_a_mean                  =  -2.0549865324846E-05
(PID.TID 0000.0001) %MON vort_a_sd                    =   7.5259500230471E-05
(PID.TID 0000.0001) %MON vort_p_mean                  =  -2.4783333400895E-05
(PID.TID 0000.0001) %MON vort_p_sd                    =   1.2811901918533E-04
(PID.TID 0000.0001) %MON surfExpan_theta_mean         =  -7.0103910289550E-06
(PID.TID 0000.0001) %MON surfExpan_salt_mean          =   1.1824490931417E-06
(PID.TID 0000.0001) // =======================================================
(PID.TID 0000.0001) // End MONITOR dynamic field statistics
(PID.TID 0000.0001) // =======================================================
 cg2d: Sum(rhs),rhsMax =  -3.09064356843559E+01  5.83425303331013E+01
(PID.TID 0000.0001)      cg2d_init_res =   2.69151873048323E-01
(PID.TID 0000.0001)      cg2d_iters(min,last) =      -1      10
(PID.TID 0000.0001)      cg2d_last_res =   8.67263961933052E-08
(PID.TID 0000.0001) // =======================================================
(PID.TID 0000.0001) // Begin MONITOR dynamic field statistics
(PID.TID 0000.0001) // =======================================================
(PID.TID 0000.0001) %MON time_tsnumber                =                 72030
(PID.TID 0000.0001) %MON time_secondsf                =   6.4827000000000E+07
(PID.TID 0000.0001) %MON dynstat_eta_max              =   2.2864944309621E+00
(PID.TID 0000.0001) %MON dynstat_eta_min              =  -3.2848650431794E+00
(PID.TID 0000.0001) %MON dynstat_eta_mean             =   2.0952476219399E-02
(PID.TID 0000.0001) %MON dynstat_eta_sd               =   6.2130309256624E-01
(PID.TID 0000.0001) %MON dynstat_eta_del2             =   2.9716400287434E-03
(PID.TID 0000.0001) %MON dynstat_uvel_max             =   3.7966670186618E-01
(PID.TID 0000.0001) %MON dynstat_uvel_min             =  -8.4728565921882E-01
(PID.TID 0000.0001) %MON dynstat_uvel_mean            =  -1.0031636156981E-04
(PID.TID 0000.0001) %MON dynstat_uvel_sd              =   1.2822455777954E-02
(PID.TID 0000.0001) %MON dynstat_uvel_del2            =   8.4348066095013E-05
(PID.TID 0000.0001) %MON dynstat_vvel_max             =   8.3545611618068E-01
(PID.TID 0000.0001) %MON dynstat_vvel_min             =  -1.0415769482338E+00
(PID.TID 0000.0001) %MON dynstat_vvel_mean            =  -4.4821626514722E-04
(PID.TID 0000.0001) %MON dynstat_vvel_sd              =   1.4058864549498E-02
(PID.TID 0000.0001) %MON dynstat_vvel_del2            =   1.2378477278760E-04
(PID.TID 0000.0001) %MON dynstat_wvel_max             =   1.8210978419745E-04
(PID.TID 0000.0001) %MON dynstat_wvel_min             =  -3.4088314080895E-04
(PID.TID 0000.0001) %MON dynstat_wvel_mean            =  -1.3425619759904E-07
(PID.TID 0000.0001) %MON dynstat_wvel_sd              =   8.5084310264556E-06
(PID.TID 0000.0001) %MON dynstat_wvel_del2            =   7.5129617331006E-08
(PID.TID 0000.0001) %MON dynstat_theta_max            =   3.0922683433524E+01
(PID.TID 0000.0001) %MON dynstat_theta_min            =  -3.0058653597396E+00
(PID.TID 0000.0001) %MON dynstat_theta_mean           =   3.9091233021942E+00
(PID.TID 0000.0001) %MON dynstat_theta_sd             =   4.5713514237407E+00
(PID.TID 0000.0001) %MON dynstat_theta_del2           =   2.6456921263913E-03
(PID.TID 0000.0001) %MON dynstat_salt_max             =   4.1357537344194E+01
(PID.TID 0000.0001) %MON dynstat_salt_min             =   1.8518669223108E+01
(PID.TID 0000.0001) %MON dynstat_salt_mean            =   3.4772032305853E+01
(PID.TID 0000.0001) %MON dynstat_salt_sd              =   5.3144198002400E-01
(PID.TID 0000.0001) %MON dynstat_salt_del2            =   9.2643319179150E-04
(PID.TID 0000.0001) %MON dynstat_sst_max              =   3.0922683433524E+01
(PID.TID 0000.0001) %MON dynstat_sst_min              =  -1.9005624362035E+00
(PID.TID 0000.0001) %MON dynstat_sst_mean             =   1.8108496141767E+01
(PID.TID 0000.0001) %MON dynstat_sst_sd               =   9.8088218102461E+00
(PID.TID 0000.0001) %MON dynstat_sst_del2             =   1.5104553885450E-02
(PID.TID 0000.0001) %MON dynstat_sss_max              =   4.1357537344194E+01
(PID.TID 0000.0001) %MON dynstat_sss_min              =   1.8751393860186E+01
(PID.TID 0000.0001) %MON dynstat_sss_mean             =   3.4630073196958E+01
(PID.TID 0000.0001) %MON dynstat_sss_sd               =   1.4695804252805E+00
(PID.TID 0000.0001) %MON dynstat_sss_del2             =   9.8955042653842E-03
(PID.TID 0000.0001) %MON forcing_qnet_max             =   5.1173750000000E+03
(PID.TID 0000.0001) %MON forcing_qnet_min             =  -2.0462803955078E+03
(PID.TID 0000.0001) %MON forcing_qnet_mean            =  -6.1972237251889E+00
(PID.TID 0000.0001) %MON forcing_qnet_sd              =   2.5554921511966E+02
(PID.TID 0000.0001) %MON forcing_qnet_del2            =   7.0166639243297E+00
(PID.TID 0000.0001) %MON forcing_qsw_max              =   0.0000000000000E+00
(PID.TID 0000.0001) %MON forcing_qsw_min              =  -1.0056155449895E+02
(PID.TID 0000.0001) %MON forcing_qsw_mean             =  -1.6204986471959E+01
(PID.TID 0000.0001) %MON forcing_qsw_sd               =   2.4611321053852E+01
(PID.TID 0000.0001) %MON forcing_qsw_del2             =   2.5281187117647E-01
(PID.TID 0000.0001) %MON forcing_empmr_max            =   8.2149896770716E-03
(PID.TID 0000.0001) %MON forcing_empmr_min            =  -1.1807961016893E-01
(PID.TID 0000.0001) %MON forcing_empmr_mean           =  -3.8693423265318E-04
(PID.TID 0000.0001) %MON forcing_empmr_sd             =   5.5743485236136E-03
(PID.TID 0000.0001) %MON forcing_empmr_del2           =   2.2150355946598E-04
(PID.TID 0000.0001) %MON forcing_fu_max               =   4.4107217348216E-01
(PID.TID 0000.0001) %MON forcing_fu_min               =  -3.7399658914915E-01
(PID.TID 0000.0001) %MON forcing_fu_mean              =  -4.0810139388831E-03
(PID.TID 0000.0001) %MON forcing_fu_sd                =   6.7661870362091E-02
(PID.TID 0000.0001) %MON forcing_fu_del2              =   6.5693337664165E-04
(PID.TID 0000.0001) %MON forcing_fv_max               =   3.2101134011478E-01
(PID.TID 0000.0001) %MON forcing_fv_min               =  -2.9719083492386E-01
(PID.TID 0000.0001) %MON forcing_fv_mean              =  -1.1653123306601E-02
(PID.TID 0000.0001) %MON forcing_fv_sd                =   6.7243398429980E-02
(PID.TID 0000.0001) %MON forcing_fv_del2              =   5.8517072932964E-04
(PID.TID 0000.0001) %MON trAdv_CFL_u_max              =   2.4967108678851E-03
(PID.TID 0000.0001) %MON trAdv_CFL_v_max              =   5.0285425681876E-03
(PID.TID 0000.0001) %MON trAdv_CFL_w_max              =   1.9691961800338E-03
(PID.TID 0000.0001) %MON advcfl_uvel_max              =   2.4937625424250E-03
(PID.TID 0000.0001) %MON advcfl_vvel_max              =   3.3990455183653E-03
(PID.TID 0000.0001) %MON advcfl_wvel_max              =   4.1071168754412E-03
(PID.TID 0000.0001) %MON advcfl_W_hf_max              =   2.1429687838429E-03
(PID.TID 0000.0001) %MON pe_b_mean                    =   5.1482864307239E-04
(PID.TID 0000.0001) %MON ke_max                       =   4.0611748585521E-01
(PID.TID 0000.0001) %MON ke_mean                      =   1.6733020245777E-04
(PID.TID 0000.0001) %MON ke_vol                       =   1.3398099472560E+18
(PID.TID 0000.0001) %MON vort_r_min                   =  -5.7283192706828E-06
(PID.TID 0000.0001) %MON vort_r_max                   =   2.7575655004819E-06
(PID.TID 0000.0001) %MON vort_a_mean                  =  -2.0549865324846E-05
(PID.TID 0000.0001) %MON vort_a_sd                    =   7.5259499019458E-05
(PID.TID 0000.0001) %MON vort_p_mean                  =  -2.4783331197887E-05
(PID.TID 0000.0001) %MON vort_p_sd                    =   1.2811901361141E-04
(PID.TID 0000.0001) %MON surfExpan_theta_mean         =  -6.9590505776167E-06
(PID.TID 0000.0001) %MON surfExpan_salt_mean          =   1.1439371292990E-06
(PID.TID 0000.0001) // =======================================================
(PID.TID 0000.0001) // End MONITOR dynamic field statistics
(PID.TID 0000.0001) // =======================================================
 cg2d: Sum(rhs),rhsMax =  -3.56045816078620E+01  5.14370382817227E+01
(PID.TID 0000.0001)      cg2d_init_res =   3.13004774217213E-01
(PID.TID 0000.0001)      cg2d_iters(min,last) =      -1      10
(PID.TID 0000.0001)      cg2d_last_res =   9.87224742297433E-08
(PID.TID 0000.0001) // =======================================================
(PID.TID 0000.0001) // Begin MONITOR dynamic field statistics
(PID.TID 0000.0001) // =======================================================
(PID.TID 0000.0001) %MON time_tsnumber                =                 72031
(PID.TID 0000.0001) %MON time_secondsf                =   6.4827900000000E+07
(PID.TID 0000.0001) %MON dynstat_eta_max              =   1.9802569058550E+00
(PID.TID 0000.0001) %MON dynstat_eta_min              =  -2.8958946323629E+00
(PID.TID 0000.0001) %MON dynstat_eta_mean             =   2.1280558130522E-02
(PID.TID 0000.0001) %MON dynstat_eta_sd               =   6.2082191368092E-01
(PID.TID 0000.0001) %MON dynstat_eta_del2             =   2.7930298455045E-03
(PID.TID 0000.0001) %MON dynstat_uvel_max             =   3.6315198455894E-01
(PID.TID 0000.0001) %MON dynstat_uvel_min             =  -8.8080763737345E-01
(PID.TID 0000.0001) %MON dynstat_uvel_mean            =  -1.3424187402684E-04
(PID.TID 0000.0001) %MON dynstat_uvel_sd              =   1.2845428623388E-02
(PID.TID 0000.0001) %MON dynstat_uvel_del2            =   8.4573244695172E-05
(PID.TID 0000.0001) %MON dynstat_vvel_max             =   9.2570699043950E-01
(PID.TID 0000.0001) %MON dynstat_vvel_min             =  -1.1012461972263E+00
(PID.TID 0000.0001) %MON dynstat_vvel_mean            =  -4.4388500509322E-04
(PID.TID 0000.0001) %MON dynstat_vvel_sd              =   1.4070855018205E-02
(PID.TID 0000.0001) %MON dynstat_vvel_del2            =   1.2579907278649E-04
(PID.TID 0000.0001) %MON dynstat_wvel_max             =   1.8646456139692E-04
(PID.TID 0000.0001) %MON dynstat_wvel_min             =  -3.1440000915353E-04
(PID.TID 0000.0001) %MON dynstat_wvel_mean            =  -1.1055745658709E-07
(PID.TID 0000.0001) %MON dynstat_wvel_sd              =   8.4956057266390E-06
(PID.TID 0000.0001) %MON dynstat_wvel_del2            =   7.4789576734173E-08
(PID.TID 0000.0001) %MON dynstat_theta_max            =   3.0922817998498E+01
(PID.TID 0000.0001) %MON dynstat_theta_min            =  -3.0058174852687E+00
(PID.TID 0000.0001) %MON dynstat_theta_mean           =   3.9091255406721E+00
(PID.TID 0000.0001) %MON dynstat_theta_sd             =   4.5713609282388E+00
(PID.TID 0000.0001) %MON dynstat_theta_del2           =   2.6455606729243E-03
(PID.TID 0000.0001) %MON dynstat_salt_max             =   4.1357201943253E+01
(PID.TID 0000.0001) %MON dynstat_salt_min             =   1.8518679455583E+01
(PID.TID 0000.0001) %MON dynstat_salt_mean            =   3.4772028428260E+01
(PID.TID 0000.0001) %MON dynstat_salt_sd              =   5.3146181448208E-01
(PID.TID 0000.0001) %MON dynstat_salt_del2            =   9.3187143951730E-04
(PID.TID 0000.0001) %MON dynstat_sst_max              =   3.0922817998498E+01
(PID.TID 0000.0001) %MON dynstat_sst_min              =  -1.8999071642835E+00
(PID.TID 0000.0001) %MON dynstat_sst_mean             =   1.8108544125092E+01
(PID.TID 0000.0001) %MON dynstat_sst_sd               =   9.8089745878592E+00
(PID.TID 0000.0001) %MON dynstat_sst_del2             =   1.5101881743103E-02
(PID.TID 0000.0001) %MON dynstat_sss_max              =   4.1357201943253E+01
(PID.TID 0000.0001) %MON dynstat_sss_min              =   1.8751396152374E+01
(PID.TID 0000.0001) %MON dynstat_sss_mean             =   3.4629794284289E+01
(PID.TID 0000.0001) %MON dynstat_sss_sd               =   1.4700809368261E+00
(PID.TID 0000.0001) %MON dynstat_sss_del2             =   9.9758359364919E-03
(PID.TID 0000.0001) %MON forcing_qnet_max             =   2.8020070481768E+03
(PID.TID 0000.0001) %MON forcing_qnet_min             =  -1.7636002585036E+03
(PID.TID 0000.0001) %MON forcing_qnet_mean            =  -4.3737144732864E+00
(PID.TID 0000.0001) %MON forcing_qnet_sd              =   2.3940171059185E+02
(PID.TID 0000.0001) %MON forcing_qnet_del2            =   5.6936014282213E+00
(PID.TID 0000.0001) %MON forcing_qsw_max              =   0.0000000000000E+00
(PID.TID 0000.0001) %MON forcing_qsw_min              =  -9.7965348665670E+01
(PID.TID 0000.0001) %MON forcing_qsw_mean             =  -1.5968817464654E+01
(PID.TID 0000.0001) %MON forcing_qsw_sd               =   2.4522170006019E+01
(PID.TID 0000.0001) %MON forcing_qsw_del2             =   2.4931390241316E-01
(PID.TID 0000.0001) %MON forcing_empmr_max            =   8.1302635371685E-03
(PID.TID 0000.0001) %MON forcing_empmr_min            =  -1.1686293035746E-01
(PID.TID 0000.0001) %MON forcing_empmr_mean           =  -3.7729419779062E-04
(PID.TID 0000.0001) %MON forcing_empmr_sd             =   5.4558212479085E-03
(PID.TID 0000.0001) %MON forcing_empmr_del2           =   2.1564407969471E-04
(PID.TID 0000.0001) %MON forcing_fu_max               =   4.2914880227061E-01
(PID.TID 0000.0001) %MON forcing_fu_min               =  -3.7113281175265E-01
(PID.TID 0000.0001) %MON forcing_fu_mean              =  -4.0579125456362E-03
(PID.TID 0000.0001) %MON forcing_fu_sd                =   6.6998407236618E-02
(PID.TID 0000.0001) %MON forcing_fu_del2              =   6.5082637431914E-04
(PID.TID 0000.0001) %MON forcing_fv_max               =   3.1896936971262E-01
(PID.TID 0000.0001) %MON forcing_fv_min               =  -2.9434049995377E-01
(PID.TID 0000.0001) %MON forcing_fv_mean              =  -1.1773718829457E-02
(PID.TID 0000.0001) %MON forcing_fv_sd                =   6.6867073322337E-02
(PID.TID 0000.0001) %MON forcing_fv_del2              =   5.8086948667105E-04
(PID.TID 0000.0001) %MON trAdv_CFL_u_max              =   2.5981225177686E-03
(PID.TID 0000.0001) %MON trAdv_CFL_v_max              =   5.1961521302442E-03
(PID.TID 0000.0001) %MON trAdv_CFL_w_max              =   1.9092633017503E-03
(PID.TID 0000.0001) %MON advcfl_uvel_max              =   2.5924256704509E-03
(PID.TID 0000.0001) %MON advcfl_vvel_max              =   3.5937680433942E-03
(PID.TID 0000.0001) %MON advcfl_wvel_max              =   4.0647975776507E-03
(PID.TID 0000.0001) %MON advcfl_W_hf_max              =   2.2867733493050E-03
(PID.TID 0000.0001) %MON pe_b_mean                    =   5.1405083309240E-04
(PID.TID 0000.0001) %MON ke_max                       =   4.0228234669169E-01
(PID.TID 0000.0001) %MON ke_mean                      =   1.6775948020480E-04
(PID.TID 0000.0001) %MON ke_vol                       =   1.3398100696910E+18
(PID.TID 0000.0001) %MON vort_r_min                   =  -5.7211204506736E-06
(PID.TID 0000.0001) %MON vort_r_max                   =   3.0554539142770E-06
(PID.TID 0000.0001) %MON vort_a_mean                  =  -2.0549865324846E-05
(PID.TID 0000.0001) %MON vort_a_sd                    =   7.5259498516295E-05
(PID.TID 0000.0001) %MON vort_p_mean                  =  -2.4783329080693E-05
(PID.TID 0000.0001) %MON vort_p_sd                    =   1.2811901330873E-04
(PID.TID 0000.0001) %MON surfExpan_theta_mean         =  -6.9173673430680E-06
(PID.TID 0000.0001) %MON surfExpan_salt_mean          =   1.1050738179743E-06
(PID.TID 0000.0001) // =======================================================
(PID.TID 0000.0001) // End MONITOR dynamic field statistics
(PID.TID 0000.0001) // =======================================================
 Computing Diagnostic #     81  oceTAUX      Counter:       1   Parms: UU      U1      
           Vector  Mate for  oceTAUX      Diagnostic #     82  oceTAUY  exists 
 Computing Diagnostic #     82  oceTAUY      Counter:       1   Parms: VV      U1      
           Vector  Mate for  oceTAUY      Diagnostic #     81  oceTAUX  exists 
 Computing Diagnostic #     85  oceFWflx     Counter:       1   Parms: SM      U1      
 Computing Diagnostic #     86  oceSflux     Counter:       1   Parms: SM      U1      
 Computing Diagnostic #     87  oceQnet      Counter:       1   Parms: SM      U1      
 Computing Diagnostic #     88  oceQsw       Counter:       1   Parms: SM      U1      
 Computing Diagnostic #     27  SALT         Counter:       1   Parms: SMR     MR      
 Computing Diagnostic #     26  THETA        Counter:       1   Parms: SMR     MR      
 Computing Diagnostic #     45  UVELMASS     Counter:       1   Parms: UUr     MR      
           Vector  Mate for  UVELMASS     Diagnostic #     46  VVELMASS exists 
 Computing Diagnostic #     46  VVELMASS     Counter:       1   Parms: VVr     MR      
           Vector  Mate for  VVELMASS     Diagnostic #     45  UVELMASS exists 
 cg2d: Sum(rhs),rhsMax =  -4.24115540255788E+01  4.38290736048694E+01
(PID.TID 0000.0001)      cg2d_init_res =   3.73587874402228E-01
(PID.TID 0000.0001)      cg2d_iters(min,last) =      -1      11
(PID.TID 0000.0001)      cg2d_last_res =   3.18103588281863E-08
(PID.TID 0000.0001) // =======================================================
(PID.TID 0000.0001) // Begin MONITOR dynamic field statistics
(PID.TID 0000.0001) // =======================================================
(PID.TID 0000.0001) %MON time_tsnumber                =                 72032
(PID.TID 0000.0001) %MON time_secondsf                =   6.4828800000000E+07
(PID.TID 0000.0001) %MON dynstat_eta_max              =   1.8832967982578E+00
(PID.TID 0000.0001) %MON dynstat_eta_min              =  -2.4675424186211E+00
(PID.TID 0000.0001) %MON dynstat_eta_mean             =   2.1599696580022E-02
(PID.TID 0000.0001) %MON dynstat_eta_sd               =   6.2032077904154E-01
(PID.TID 0000.0001) %MON dynstat_eta_del2             =   2.6200689141854E-03
(PID.TID 0000.0001) %MON dynstat_uvel_max             =   3.4316683228884E-01
(PID.TID 0000.0001) %MON dynstat_uvel_min             =  -9.0897127952423E-01
(PID.TID 0000.0001) %MON dynstat_uvel_mean            =  -1.7006991860866E-04
(PID.TID 0000.0001) %MON dynstat_uvel_sd              =   1.2875957153658E-02
(PID.TID 0000.0001) %MON dynstat_uvel_del2            =   8.4937301834532E-05
(PID.TID 0000.0001) %MON dynstat_vvel_max             =   9.9967179893847E-01
(PID.TID 0000.0001) %MON dynstat_vvel_min             =  -1.1424100023300E+00
(PID.TID 0000.0001) %MON dynstat_vvel_mean            =  -4.3611055256060E-04
(PID.TID 0000.0001) %MON dynstat_vvel_sd              =   1.4069088406683E-02
(PID.TID 0000.0001) %MON dynstat_vvel_del2            =   1.2722540245448E-04
(PID.TID 0000.0001) %MON dynstat_wvel_max             =   1.8978313107276E-04
(PID.TID 0000.0001) %MON dynstat_wvel_min             =  -2.8942353656456E-04
(PID.TID 0000.0001) %MON dynstat_wvel_mean            =  -8.7209796915244E-08
(PID.TID 0000.0001) %MON dynstat_wvel_sd              =   8.4829344393683E-06
(PID.TID 0000.0001) %MON dynstat_wvel_del2            =   7.4613706551353E-08
(PID.TID 0000.0001) %MON dynstat_theta_max            =   3.0922963109019E+01
(PID.TID 0000.0001) %MON dynstat_theta_min            =  -3.0057531193176E+00
(PID.TID 0000.0001) %MON dynstat_theta_mean           =   3.9091276265800E+00
(PID.TID 0000.0001) %MON dynstat_theta_sd             =   4.5713700331977E+00
(PID.TID 0000.0001) %MON dynstat_theta_del2           =   2.6454281573851E-03
(PID.TID 0000.0001) %MON dynstat_salt_max             =   4.1356877700309E+01
(PID.TID 0000.0001) %MON dynstat_salt_min             =   1.8518689738589E+01
(PID.TID 0000.0001) %MON dynstat_salt_mean            =   3.4772024658289E+01
(PID.TID 0000.0001) %MON dynstat_salt_sd              =   5.3148150091753E-01
(PID.TID 0000.0001) %MON dynstat_salt_del2            =   9.3728714070846E-04
(PID.TID 0000.0001) %MON dynstat_sst_max              =   3.0922963109019E+01
(PID.TID 0000.0001) %MON dynstat_sst_min              =  -1.8990886887133E+00
(PID.TID 0000.0001) %MON dynstat_sst_mean             =   1.8108584405645E+01
(PID.TID 0000.0001) %MON dynstat_sst_sd               =   9.8091280470738E+00
(PID.TID 0000.0001) %MON dynstat_sst_del2             =   1.5099217313632E-02
(PID.TID 0000.0001) %MON dynstat_sss_max              =   4.1356877700309E+01
(PID.TID 0000.0001) %MON dynstat_sss_min              =   1.8751399168098E+01
(PID.TID 0000.0001) %MON dynstat_sss_mean             =   3.4629523634710E+01
(PID.TID 0000.0001) %MON dynstat_sss_sd               =   1.4705777780689E+00
(PID.TID 0000.0001) %MON dynstat_sss_del2             =   1.0055654540405E-02
(PID.TID 0000.0001) %MON forcing_qnet_max             =   2.7633741924577E+03
(PID.TID 0000.0001) %MON forcing_qnet_min             =  -4.7186840820312E+03
(PID.TID 0000.0001) %MON forcing_qnet_mean            =  -2.3475277559814E+00
(PID.TID 0000.0001) %MON forcing_qnet_sd              =   2.4887835705508E+02
(PID.TID 0000.0001) %MON forcing_qnet_del2            =   6.4866196696739E+00
(PID.TID 0000.0001) %MON forcing_qsw_max              =   0.0000000000000E+00
(PID.TID 0000.0001) %MON forcing_qsw_min              =  -9.4963427266316E+01
(PID.TID 0000.0001) %MON forcing_qsw_mean             =  -1.5691284613691E+01
(PID.TID 0000.0001) %MON forcing_qsw_sd               =   2.4424296328442E+01
(PID.TID 0000.0001) %MON forcing_qsw_del2             =   2.4518340351910E-01
(PID.TID 0000.0001) %MON forcing_empmr_max            =   8.0465711653233E-03
(PID.TID 0000.0001) %MON forcing_empmr_min            =  -1.1565884202719E-01
(PID.TID 0000.0001) %MON forcing_empmr_mean           =  -3.6700921692599E-04
(PID.TID 0000.0001) %MON forcing_empmr_sd             =   5.3624528627058E-03
(PID.TID 0000.0001) %MON forcing_empmr_del2           =   2.1149491274514E-04
(PID.TID 0000.0001) %MON forcing_fu_max               =   4.2113810496078E-01
(PID.TID 0000.0001) %MON forcing_fu_min               =  -3.6980325162622E-01
(PID.TID 0000.0001) %MON forcing_fu_mean              =  -3.9986800978092E-03
(PID.TID 0000.0001) %MON forcing_fu_sd                =   6.6444322794992E-02
(PID.TID 0000.0001) %MON forcing_fu_del2              =   6.4526176554964E-04
(PID.TID 0000.0001) %MON forcing_fv_max               =   3.1901750426962E-01
(PID.TID 0000.0001) %MON forcing_fv_min               =  -2.9196506480568E-01
(PID.TID 0000.0001) %MON forcing_fv_mean              =  -1.1891969576870E-02
(PID.TID 0000.0001) %MON forcing_fv_sd                =   6.6581828260175E-02
(PID.TID 0000.0001) %MON forcing_fv_del2              =   5.7740487636726E-04
(PID.TID 0000.0001) %MON trAdv_CFL_u_max              =   2.6844300099631E-03
(PID.TID 0000.0001) %MON trAdv_CFL_v_max              =   5.2955485932332E-03
(PID.TID 0000.0001) %MON trAdv_CFL_w_max              =   1.8526200196114E-03
(PID.TID 0000.0001) %MON advcfl_uvel_max              =   2.6753179454348E-03
(PID.TID 0000.0001) %MON advcfl_vvel_max              =   3.7281005547789E-03
(PID.TID 0000.0001) %MON advcfl_wvel_max              =   4.0229162444239E-03
(PID.TID 0000.0001) %MON advcfl_W_hf_max              =   2.4131467519077E-03
(PID.TID 0000.0001) %MON pe_b_mean                    =   5.1324043081020E-04
(PID.TID 0000.0001) %MON ke_max                       =   4.3938428977318E-01
(PID.TID 0000.0001) %MON ke_mean                      =   1.6809900912957E-04
(PID.TID 0000.0001) %MON ke_vol                       =   1.3398101890756E+18
(PID.TID 0000.0001) %MON vort_r_min                   =  -5.6694088463561E-06
(PID.TID 0000.0001) %MON vort_r_max                   =   3.2995873884551E-06
(PID.TID 0000.0001) %MON vort_a_mean                  =  -2.0549865324846E-05
(PID.TID 0000.0001) %MON vort_a_sd                    =   7.5259498887798E-05
(PID.TID 0000.0001) %MON vort_p_mean                  =  -2.4783327049166E-05
(PID.TID 0000.0001) %MON vort_p_sd                    =   1.2811901809536E-04
(PID.TID 0000.0001) %MON surfExpan_theta_mean         =  -6.8500929343132E-06
(PID.TID 0000.0001) %MON surfExpan_salt_mean          =   1.0681618452671E-06
(PID.TID 0000.0001) // =======================================================
(PID.TID 0000.0001) // End MONITOR dynamic field statistics
(PID.TID 0000.0001) // =======================================================
 cg2d: Sum(rhs),rhsMax =  -4.57465036744475E+01  4.12250904698442E+01
(PID.TID 0000.0001)      cg2d_init_res =   4.00056255824927E-01
(PID.TID 0000.0001)      cg2d_iters(min,last) =      -1      11
(PID.TID 0000.0001)      cg2d_last_res =   3.58122753919894E-08
(PID.TID 0000.0001) // =======================================================
(PID.TID 0000.0001) // Begin MONITOR dynamic field statistics
(PID.TID 0000.0001) // =======================================================
(PID.TID 0000.0001) %MON time_tsnumber                =                 72033
(PID.TID 0000.0001) %MON time_secondsf                =   6.4829700000000E+07
(PID.TID 0000.0001) %MON dynstat_eta_max              =   1.8613127904985E+00
(PID.TID 0000.0001) %MON dynstat_eta_min              =  -2.0084063818678E+00
(PID.TID 0000.0001) %MON dynstat_eta_mean             =   2.1913951590348E-02
(PID.TID 0000.0001) %MON dynstat_eta_sd               =   6.1982632216477E-01
(PID.TID 0000.0001) %MON dynstat_eta_del2             =   2.4592303448665E-03
(PID.TID 0000.0001) %MON dynstat_uvel_max             =   3.1999083523548E-01
(PID.TID 0000.0001) %MON dynstat_uvel_min             =  -9.3114564924014E-01
(PID.TID 0000.0001) %MON dynstat_uvel_mean            =  -2.0698677896414E-04
(PID.TID 0000.0001) %MON dynstat_uvel_sd              =   1.2910067234835E-02
(PID.TID 0000.0001) %MON dynstat_uvel_del2            =   8.5356844019808E-05
(PID.TID 0000.0001) %MON dynstat_vvel_max             =   1.0571075173020E+00
(PID.TID 0000.0001) %MON dynstat_vvel_min             =  -1.1648356207480E+00
(PID.TID 0000.0001) %MON dynstat_vvel_mean            =  -4.2447109806197E-04
(PID.TID 0000.0001) %MON dynstat_vvel_sd              =   1.4054078393542E-02
(PID.TID 0000.0001) %MON dynstat_vvel_del2            =   1.2804435165214E-04
(PID.TID 0000.0001) %MON dynstat_wvel_max             =   1.9651447401256E-04
(PID.TID 0000.0001) %MON dynstat_wvel_min             =  -2.6679117631781E-04
(PID.TID 0000.0001) %MON dynstat_wvel_mean            =  -6.6575726482121E-08
(PID.TID 0000.0001) %MON dynstat_wvel_sd              =   8.4640138829383E-06
(PID.TID 0000.0001) %MON dynstat_wvel_del2            =   7.4527044904033E-08
(PID.TID 0000.0001) %MON dynstat_theta_max            =   3.0923109178914E+01
(PID.TID 0000.0001) %MON dynstat_theta_min            =  -3.0056706143961E+00
(PID.TID 0000.0001) %MON dynstat_theta_mean           =   3.9091293599687E+00
(PID.TID 0000.0001) %MON dynstat_theta_sd             =   4.5713776726044E+00
(PID.TID 0000.0001) %MON dynstat_theta_del2           =   2.6452973268902E-03
(PID.TID 0000.0001) %MON dynstat_salt_max             =   4.1356560637606E+01
(PID.TID 0000.0001) %MON dynstat_salt_min             =   1.8518700070963E+01
(PID.TID 0000.0001) %MON dynstat_salt_mean            =   3.4772020925496E+01
(PID.TID 0000.0001) %MON dynstat_salt_sd              =   5.3150105342257E-01
(PID.TID 0000.0001) %MON dynstat_salt_del2            =   9.4264871509986E-04
(PID.TID 0000.0001) %MON dynstat_sst_max              =   3.0923109178914E+01
(PID.TID 0000.0001) %MON dynstat_sst_min              =  -1.8983399662357E+00
(PID.TID 0000.0001) %MON dynstat_sst_mean             =   1.8108601028308E+01
(PID.TID 0000.0001) %MON dynstat_sst_sd               =   9.8092681480466E+00
(PID.TID 0000.0001) %MON dynstat_sst_del2             =   1.5096622089272E-02
(PID.TID 0000.0001) %MON dynstat_sss_max              =   4.1356560637606E+01
(PID.TID 0000.0001) %MON dynstat_sss_min              =   1.8751402764670E+01
(PID.TID 0000.0001) %MON dynstat_sss_mean             =   3.4629256107164E+01
(PID.TID 0000.0001) %MON dynstat_sss_sd               =   1.4710707894252E+00
(PID.TID 0000.0001) %MON dynstat_sss_del2             =   1.0134501740197E-02
(PID.TID 0000.0001) %MON forcing_qnet_max             =   2.7254660211608E+03
(PID.TID 0000.0001) %MON forcing_qnet_min             =  -1.7146692689053E+03
(PID.TID 0000.0001) %MON forcing_qnet_mean            =   3.4123500947880E+00
(PID.TID 0000.0001) %MON forcing_qnet_sd              =   2.3480209740974E+02
(PID.TID 0000.0001) %MON forcing_qnet_del2            =   5.4234065283193E+00
(PID.TID 0000.0001) %MON forcing_qsw_max              =   0.0000000000000E+00
(PID.TID 0000.0001) %MON forcing_qsw_min              =  -9.9833860323405E+01
(PID.TID 0000.0001) %MON forcing_qsw_mean             =  -1.5154362151201E+01
(PID.TID 0000.0001) %MON forcing_qsw_sd               =   2.4418219847323E+01
(PID.TID 0000.0001) %MON forcing_qsw_del2             =   2.3293022629612E-01
(PID.TID 0000.0001) %MON forcing_empmr_max            =   7.9636173322797E-03
(PID.TID 0000.0001) %MON forcing_empmr_min            =  -1.1446733772755E-01
(PID.TID 0000.0001) %MON forcing_empmr_mean           =  -3.6139326187535E-04
(PID.TID 0000.0001) %MON forcing_empmr_sd             =   5.2842576733348E-03
(PID.TID 0000.0001) %MON forcing_empmr_del2           =   2.0833616292247E-04
(PID.TID 0000.0001) %MON forcing_fu_max               =   4.1100827188724E-01
(PID.TID 0000.0001) %MON forcing_fu_min               =  -3.6910276873679E-01
(PID.TID 0000.0001) %MON forcing_fu_mean              =  -3.9673937483306E-03
(PID.TID 0000.0001) %MON forcing_fu_sd                =   6.5829850800099E-02
(PID.TID 0000.0001) %MON forcing_fu_del2              =   6.3943967834983E-04
(PID.TID 0000.0001) %MON forcing_fv_max               =   3.1897758320899E-01
(PID.TID 0000.0001) %MON forcing_fv_min               =  -2.8980716360462E-01
(PID.TID 0000.0001) %MON forcing_fv_mean              =  -1.2046248903809E-02
(PID.TID 0000.0001) %MON forcing_fv_sd                =   6.6317250134487E-02
(PID.TID 0000.0001) %MON forcing_fv_del2              =   5.7410153968314E-04
(PID.TID 0000.0001) %MON trAdv_CFL_u_max              =   2.7537342842463E-03
(PID.TID 0000.0001) %MON trAdv_CFL_v_max              =   5.3267745068169E-03
(PID.TID 0000.0001) %MON trAdv_CFL_w_max              =   1.8041646842599E-03
(PID.TID 0000.0001) %MON advcfl_uvel_max              =   2.7405823718980E-03
(PID.TID 0000.0001) %MON advcfl_vvel_max              =   3.8012835278753E-03
(PID.TID 0000.0001) %MON advcfl_wvel_max              =   3.9814726166103E-03
(PID.TID 0000.0001) %MON advcfl_W_hf_max              =   2.5208976576303E-03
(PID.TID 0000.0001) %MON pe_b_mean                    =   5.1244171307899E-04
(PID.TID 0000.0001) %MON ke_max                       =   4.8433806117129E-01
(PID.TID 0000.0001) %MON ke_mean                      =   1.6830898500583E-04
(PID.TID 0000.0001) %MON ke_vol                       =   1.3398103052059E+18
(PID.TID 0000.0001) %MON vort_r_min                   =  -5.5729866930619E-06
(PID.TID 0000.0001) %MON vort_r_max                   =   3.4891637795872E-06
(PID.TID 0000.0001) %MON vort_a_mean                  =  -2.0549865324846E-05
(PID.TID 0000.0001) %MON vort_a_sd                    =   7.5259500269051E-05
(PID.TID 0000.0001) %MON vort_p_mean                  =  -2.4783325103712E-05
(PID.TID 0000.0001) %MON vort_p_sd                    =   1.2811902742166E-04
(PID.TID 0000.0001) %MON surfExpan_theta_mean         =  -6.8175143102445E-06
(PID.TID 0000.0001) %MON surfExpan_salt_mean          =   1.0339735181077E-06
(PID.TID 0000.0001) // =======================================================
(PID.TID 0000.0001) // End MONITOR dynamic field statistics
(PID.TID 0000.0001) // =======================================================
 cg2d: Sum(rhs),rhsMax =  -4.48716247000246E+01  4.26238910447023E+01
(PID.TID 0000.0001)      cg2d_init_res =   3.86397250371059E-01
(PID.TID 0000.0001)      cg2d_iters(min,last) =      -1      11
(PID.TID 0000.0001)      cg2d_last_res =   3.55096754350697E-08
(PID.TID 0000.0001) // =======================================================
(PID.TID 0000.0001) // Begin MONITOR dynamic field statistics
(PID.TID 0000.0001) // =======================================================
(PID.TID 0000.0001) %MON time_tsnumber                =                 72034
(PID.TID 0000.0001) %MON time_secondsf                =   6.4830600000000E+07
(PID.TID 0000.0001) %MON dynstat_eta_max              =   1.9047131208640E+00
(PID.TID 0000.0001) %MON dynstat_eta_min              =  -1.6072585214686E+00
(PID.TID 0000.0001) %MON dynstat_eta_mean             =   2.2224196119402E-02
(PID.TID 0000.0001) %MON dynstat_eta_sd               =   6.1935876873526E-01
(PID.TID 0000.0001) %MON dynstat_eta_del2             =   2.3165916091918E-03
(PID.TID 0000.0001) %MON dynstat_uvel_max             =   2.9743864824790E-01
(PID.TID 0000.0001) %MON dynstat_uvel_min             =  -9.4677865330564E-01
(PID.TID 0000.0001) %MON dynstat_uvel_mean            =  -2.4419315161643E-04
(PID.TID 0000.0001) %MON dynstat_uvel_sd              =   1.2944221219992E-02
(PID.TID 0000.0001) %MON dynstat_uvel_del2            =   8.5769190945291E-05
(PID.TID 0000.0001) %MON dynstat_vvel_max             =   1.0980504618740E+00
(PID.TID 0000.0001) %MON dynstat_vvel_min             =  -1.1686503801078E+00
(PID.TID 0000.0001) %MON dynstat_vvel_mean            =  -4.0863324992306E-04
(PID.TID 0000.0001) %MON dynstat_vvel_sd              =   1.4027335988686E-02
(PID.TID 0000.0001) %MON dynstat_vvel_del2            =   1.2825064614756E-04
(PID.TID 0000.0001) %MON dynstat_wvel_max             =   2.0427353843062E-04
(PID.TID 0000.0001) %MON dynstat_wvel_min             =  -2.4695955222016E-04
(PID.TID 0000.0001) %MON dynstat_wvel_mean            =  -4.8093655268384E-08
(PID.TID 0000.0001) %MON dynstat_wvel_sd              =   8.4342419668628E-06
(PID.TID 0000.0001) %MON dynstat_wvel_del2            =   7.4467807471421E-08
(PID.TID 0000.0001) %MON dynstat_theta_max            =   3.0923262788443E+01
(PID.TID 0000.0001) %MON dynstat_theta_min            =  -3.0055702271604E+00
(PID.TID 0000.0001) %MON dynstat_theta_mean           =   3.9091309048906E+00
(PID.TID 0000.0001) %MON dynstat_theta_sd             =   4.5713845528990E+00
(PID.TID 0000.0001) %MON dynstat_theta_del2           =   2.6451681951428E-03
(PID.TID 0000.0001) %MON dynstat_salt_max             =   4.1356247788544E+01
(PID.TID 0000.0001) %MON dynstat_salt_min             =   1.8518710447817E+01
(PID.TID 0000.0001) %MON dynstat_salt_mean            =   3.4772017259906E+01
(PID.TID 0000.0001) %MON dynstat_salt_sd              =   5.3152046643699E-01
(PID.TID 0000.0001) %MON dynstat_salt_del2            =   9.4796609680669E-04
(PID.TID 0000.0001) %MON dynstat_sst_max              =   3.0923262788443E+01
(PID.TID 0000.0001) %MON dynstat_sst_min              =  -1.8982207894212E+00
(PID.TID 0000.0001) %MON dynstat_sst_mean             =   1.8108606228666E+01
(PID.TID 0000.0001) %MON dynstat_sst_sd               =   9.8094017907713E+00
(PID.TID 0000.0001) %MON dynstat_sst_del2             =   1.5094090084968E-02
(PID.TID 0000.0001) %MON dynstat_sss_max              =   4.1356247788544E+01
(PID.TID 0000.0001) %MON dynstat_sss_min              =   1.8751406893553E+01
(PID.TID 0000.0001) %MON dynstat_sss_mean             =   3.4628993889732E+01
(PID.TID 0000.0001) %MON dynstat_sss_sd               =   1.4715599599615E+00
(PID.TID 0000.0001) %MON dynstat_sss_del2             =   1.0212531611127E-02
(PID.TID 0000.0001) %MON forcing_qnet_max             =   2.6878629645102E+03
(PID.TID 0000.0001) %MON forcing_qnet_min             =  -1.8019160156250E+03
(PID.TID 0000.0001) %MON forcing_qnet_mean            =   6.1637176152475E+00
(PID.TID 0000.0001) %MON forcing_qnet_sd              =   2.3359466827165E+02
(PID.TID 0000.0001) %MON forcing_qnet_del2            =   5.4713898373419E+00
(PID.TID 0000.0001) %MON forcing_qsw_max              =   0.0000000000000E+00
(PID.TID 0000.0001) %MON forcing_qsw_min              =  -1.0082632645851E+02
(PID.TID 0000.0001) %MON forcing_qsw_mean             =  -1.4973335096960E+01
(PID.TID 0000.0001) %MON forcing_qsw_sd               =   2.4514791651253E+01
(PID.TID 0000.0001) %MON forcing_qsw_del2             =   2.2931621403339E-01
(PID.TID 0000.0001) %MON forcing_empmr_max            =   7.8814504668117E-03
(PID.TID 0000.0001) %MON forcing_empmr_min            =  -1.1328842490911E-01
(PID.TID 0000.0001) %MON forcing_empmr_mean           =  -3.5678120841172E-04
(PID.TID 0000.0001) %MON forcing_empmr_sd             =   5.2130703294585E-03
(PID.TID 0000.0001) %MON forcing_empmr_del2           =   2.0554581526791E-04
(PID.TID 0000.0001) %MON forcing_fu_max               =   4.0226006958092E-01
(PID.TID 0000.0001) %MON forcing_fu_min               =  -3.6860491564975E-01
(PID.TID 0000.0001) %MON forcing_fu_mean              =  -3.9533181240426E-03
(PID.TID 0000.0001) %MON forcing_fu_sd                =   6.5211291055642E-02
(PID.TID 0000.0001) %MON forcing_fu_del2              =   6.3414863120927E-04
(PID.TID 0000.0001) %MON forcing_fv_max               =   3.2015118810868E-01
(PID.TID 0000.0001) %MON forcing_fv_min               =  -2.8677844499243E-01
(PID.TID 0000.0001) %MON forcing_fv_mean              =  -1.2199488056521E-02
(PID.TID 0000.0001) %MON forcing_fv_sd                =   6.6080271540626E-02
(PID.TID 0000.0001) %MON forcing_fv_del2              =   5.7080003303596E-04
(PID.TID 0000.0001) %MON trAdv_CFL_u_max              =   2.8043273357659E-03
(PID.TID 0000.0001) %MON trAdv_CFL_v_max              =   5.2909016604702E-03
(PID.TID 0000.0001) %MON trAdv_CFL_w_max              =   1.8260216293582E-03
(PID.TID 0000.0001) %MON advcfl_uvel_max              =   2.7865940086346E-03
(PID.TID 0000.0001) %MON advcfl_vvel_max              =   3.8137324791769E-03
(PID.TID 0000.0001) %MON advcfl_wvel_max              =   3.9404669533605E-03
(PID.TID 0000.0001) %MON advcfl_W_hf_max              =   2.6086023276545E-03
(PID.TID 0000.0001) %MON pe_b_mean                    =   5.1168806805149E-04
(PID.TID 0000.0001) %MON ke_max                       =   5.1493314124659E-01
(PID.TID 0000.0001) %MON ke_mean                      =   1.6836781458956E-04
(PID.TID 0000.0001) %MON ke_vol                       =   1.3398104195591E+18
(PID.TID 0000.0001) %MON vort_r_min                   =  -5.4322874884811E-06
(PID.TID 0000.0001) %MON vort_r_max                   =   3.6243029559641E-06
(PID.TID 0000.0001) %MON vort_a_mean                  =  -2.0549865324846E-05
(PID.TID 0000.0001) %MON vort_a_sd                    =   7.5259502767952E-05
(PID.TID 0000.0001) %MON vort_p_mean                  =  -2.4783323211245E-05
(PID.TID 0000.0001) %MON vort_p_sd                    =   1.2811904032218E-04
(PID.TID 0000.0001) %MON surfExpan_theta_mean         =  -6.7616269688369E-06
(PID.TID 0000.0001) %MON surfExpan_salt_mean          =   1.0039164012699E-06
(PID.TID 0000.0001) // =======================================================
(PID.TID 0000.0001) // End MONITOR dynamic field statistics
(PID.TID 0000.0001) // =======================================================
 cg2d: Sum(rhs),rhsMax =  -4.24169971627938E+01  4.57106693020902E+01
(PID.TID 0000.0001)      cg2d_init_res =   3.57367753163905E-01
(PID.TID 0000.0001)      cg2d_iters(min,last) =      -1      11
(PID.TID 0000.0001)      cg2d_last_res =   3.26147975645859E-08
(PID.TID 0000.0001) // =======================================================
(PID.TID 0000.0001) // Begin MONITOR dynamic field statistics
(PID.TID 0000.0001) // =======================================================
(PID.TID 0000.0001) %MON time_tsnumber                =                 72035
(PID.TID 0000.0001) %MON time_secondsf                =   6.4831500000000E+07
(PID.TID 0000.0001) %MON dynstat_eta_max              =   2.0416793458599E+00
(PID.TID 0000.0001) %MON dynstat_eta_min              =  -1.6073234041995E+00
(PID.TID 0000.0001) %MON dynstat_eta_mean             =   2.2529869373193E-02
(PID.TID 0000.0001) %MON dynstat_eta_sd               =   6.1893421671375E-01
(PID.TID 0000.0001) %MON dynstat_eta_del2             =   2.1976944793493E-03
(PID.TID 0000.0001) %MON dynstat_uvel_max             =   3.1053607978372E-01
(PID.TID 0000.0001) %MON dynstat_uvel_min             =  -9.5540877312977E-01
(PID.TID 0000.0001) %MON dynstat_uvel_mean            =  -2.8092967639459E-04
(PID.TID 0000.0001) %MON dynstat_uvel_sd              =   1.2975399087581E-02
(PID.TID 0000.0001) %MON dynstat_uvel_del2            =   8.6129990885450E-05
(PID.TID 0000.0001) %MON dynstat_vvel_max             =   1.1227964195865E+00
(PID.TID 0000.0001) %MON dynstat_vvel_min             =  -1.1543270872549E+00
(PID.TID 0000.0001) %MON dynstat_vvel_mean            =  -3.8839876713966E-04
(PID.TID 0000.0001) %MON dynstat_vvel_sd              =   1.3991081619649E-02
(PID.TID 0000.0001) %MON dynstat_vvel_del2            =   1.2784616788981E-04
(PID.TID 0000.0001) %MON dynstat_wvel_max             =   2.0907155216672E-04
(PID.TID 0000.0001) %MON dynstat_wvel_min             =  -2.3006363776939E-04
(PID.TID 0000.0001) %MON dynstat_wvel_mean            =  -3.2733860667992E-08
(PID.TID 0000.0001) %MON dynstat_wvel_sd              =   8.3936238160819E-06
(PID.TID 0000.0001) %MON dynstat_wvel_del2            =   7.4421883470897E-08
(PID.TID 0000.0001) %MON dynstat_theta_max            =   3.0923421835345E+01
(PID.TID 0000.0001) %MON dynstat_theta_min            =  -3.0054536359087E+00
(PID.TID 0000.0001) %MON dynstat_theta_mean           =   3.9091322860091E+00
(PID.TID 0000.0001) %MON dynstat_theta_sd             =   4.5713907689047E+00
(PID.TID 0000.0001) %MON dynstat_theta_del2           =   2.6450402522315E-03
(PID.TID 0000.0001) %MON dynstat_salt_max             =   4.1355936901185E+01
(PID.TID 0000.0001) %MON dynstat_salt_min             =   1.8518720859845E+01
(PID.TID 0000.0001) %MON dynstat_salt_mean            =   3.4772013666641E+01
(PID.TID 0000.0001) %MON dynstat_salt_sd              =   5.3153971429279E-01
(PID.TID 0000.0001) %MON dynstat_salt_del2            =   9.5323506185147E-04
(PID.TID 0000.0001) %MON dynstat_sst_max              =   3.0923421835345E+01
(PID.TID 0000.0001) %MON dynstat_sst_min              =  -1.8980992410038E+00
(PID.TID 0000.0001) %MON dynstat_sst_mean             =   1.8108602153522E+01
(PID.TID 0000.0001) %MON dynstat_sst_sd               =   9.8095291949798E+00
(PID.TID 0000.0001) %MON dynstat_sst_del2             =   1.5091602798401E-02
(PID.TID 0000.0001) %MON dynstat_sss_max              =   4.1355936901185E+01
(PID.TID 0000.0001) %MON dynstat_sss_min              =   1.8751411763851E+01
(PID.TID 0000.0001) %MON dynstat_sss_mean             =   3.4628737463150E+01
(PID.TID 0000.0001) %MON dynstat_sss_sd               =   1.4720446868796E+00
(PID.TID 0000.0001) %MON dynstat_sss_del2             =   1.0289688395341E-02
(PID.TID 0000.0001) %MON forcing_qnet_max             =   2.6507672267248E+03
(PID.TID 0000.0001) %MON forcing_qnet_min             =  -1.8083992919922E+03
(PID.TID 0000.0001) %MON forcing_qnet_mean            =   8.4966223876121E+00
(PID.TID 0000.0001) %MON forcing_qnet_sd              =   2.3226900676018E+02
(PID.TID 0000.0001) %MON forcing_qnet_del2            =   5.3255899085784E+00
(PID.TID 0000.0001) %MON forcing_qsw_max              =   0.0000000000000E+00
(PID.TID 0000.0001) %MON forcing_qsw_min              =  -1.0140239535924E+02
(PID.TID 0000.0001) %MON forcing_qsw_mean             =  -1.4758684129733E+01
(PID.TID 0000.0001) %MON forcing_qsw_sd               =   2.4581068201763E+01
(PID.TID 0000.0001) %MON forcing_qsw_del2             =   2.2530243313380E-01
(PID.TID 0000.0001) %MON forcing_empmr_max            =   7.8002670779824E-03
(PID.TID 0000.0001) %MON forcing_empmr_min            =  -1.1212125420570E-01
(PID.TID 0000.0001) %MON forcing_empmr_mean           =  -3.5152424185964E-04
(PID.TID 0000.0001) %MON forcing_empmr_sd             =   5.1295316510554E-03
(PID.TID 0000.0001) %MON forcing_empmr_del2           =   2.0229288614107E-04
(PID.TID 0000.0001) %MON forcing_fu_max               =   3.9701049425472E-01
(PID.TID 0000.0001) %MON forcing_fu_min               =  -3.6793897918389E-01
(PID.TID 0000.0001) %MON forcing_fu_mean              =  -3.9279723557994E-03
(PID.TID 0000.0001) %MON forcing_fu_sd                =   6.4743951959154E-02
(PID.TID 0000.0001) %MON forcing_fu_del2              =   6.3027157191659E-04
(PID.TID 0000.0001) %MON forcing_fv_max               =   3.1973709918637E-01
(PID.TID 0000.0001) %MON forcing_fv_min               =  -2.8238970703120E-01
(PID.TID 0000.0001) %MON forcing_fv_mean              =  -1.2375189714284E-02
(PID.TID 0000.0001) %MON forcing_fv_sd                =   6.5860413740295E-02
(PID.TID 0000.0001) %MON forcing_fv_del2              =   5.6767941197271E-04
(PID.TID 0000.0001) %MON trAdv_CFL_u_max              =   2.9836778048225E-03
(PID.TID 0000.0001) %MON trAdv_CFL_v_max              =   5.1900090126005E-03
(PID.TID 0000.0001) %MON trAdv_CFL_w_max              =   1.8724682281171E-03
(PID.TID 0000.0001) %MON advcfl_uvel_max              =   2.9702984402175E-03
(PID.TID 0000.0001) %MON advcfl_vvel_max              =   3.7669903498866E-03
(PID.TID 0000.0001) %MON advcfl_wvel_max              =   3.8998697115027E-03
(PID.TID 0000.0001) %MON advcfl_W_hf_max              =   2.6749546115959E-03
(PID.TID 0000.0001) %MON pe_b_mean                    =   5.1100589759091E-04
(PID.TID 0000.0001) %MON ke_max                       =   5.2901367302586E-01
(PID.TID 0000.0001) %MON ke_mean                      =   1.6826913892891E-04
(PID.TID 0000.0001) %MON ke_vol                       =   1.3398105324530E+18
(PID.TID 0000.0001) %MON vort_r_min                   =  -5.2483709347265E-06
(PID.TID 0000.0001) %MON vort_r_max                   =   3.7059812128383E-06
(PID.TID 0000.0001) %MON vort_a_mean                  =  -2.0549865324846E-05
(PID.TID 0000.0001) %MON vort_a_sd                    =   7.5259506457190E-05
(PID.TID 0000.0001) %MON vort_p_mean                  =  -2.4783321362493E-05
(PID.TID 0000.0001) %MON vort_p_sd                    =   1.2811905556368E-04
(PID.TID 0000.0001) %MON surfExpan_theta_mean         =  -6.6939091110991E-06
(PID.TID 0000.0001) %MON surfExpan_salt_mean          =   9.7686239997879E-07
(PID.TID 0000.0001) // =======================================================
(PID.TID 0000.0001) // End MONITOR dynamic field statistics
(PID.TID 0000.0001) // =======================================================
 Computing Diagnostic #     81  oceTAUX      Counter:       1   Parms: UU      U1      
           Vector  Mate for  oceTAUX      Diagnostic #     82  oceTAUY  exists 
 Computing Diagnostic #     82  oceTAUY      Counter:       1   Parms: VV      U1      
           Vector  Mate for  oceTAUY      Diagnostic #     81  oceTAUX  exists 
 Computing Diagnostic #     85  oceFWflx     Counter:       1   Parms: SM      U1      
 Computing Diagnostic #     86  oceSflux     Counter:       1   Parms: SM      U1      
 Computing Diagnostic #     87  oceQnet      Counter:       1   Parms: SM      U1      
 Computing Diagnostic #     88  oceQsw       Counter:       1   Parms: SM      U1      
 Computing Diagnostic #     27  SALT         Counter:       1   Parms: SMR     MR      
 Computing Diagnostic #     26  THETA        Counter:       1   Parms: SMR     MR      
 Computing Diagnostic #     45  UVELMASS     Counter:       1   Parms: UUr     MR      
           Vector  Mate for  UVELMASS     Diagnostic #     46  VVELMASS exists 
 Computing Diagnostic #     46  VVELMASS     Counter:       1   Parms: VVr     MR      
           Vector  Mate for  VVELMASS     Diagnostic #     45  UVELMASS exists 
 cg2d: Sum(rhs),rhsMax =  -4.03157439712127E+01  4.87356334715461E+01
(PID.TID 0000.0001)      cg2d_init_res =   3.30551889537997E-01
(PID.TID 0000.0001)      cg2d_iters(min,last) =      -1      11
(PID.TID 0000.0001)      cg2d_last_res =   2.90438268374127E-08
(PID.TID 0000.0001) // =======================================================
(PID.TID 0000.0001) // Begin MONITOR dynamic field statistics
(PID.TID 0000.0001) // =======================================================
(PID.TID 0000.0001) %MON time_tsnumber                =                 72036
(PID.TID 0000.0001) %MON time_secondsf                =   6.4832400000000E+07
(PID.TID 0000.0001) %MON dynstat_eta_max              =   2.1758705914186E+00
(PID.TID 0000.0001) %MON dynstat_eta_min              =  -1.6075087282930E+00
(PID.TID 0000.0001) %MON dynstat_eta_mean             =   2.2830870317031E-02
(PID.TID 0000.0001) %MON dynstat_eta_sd               =   6.1856320648003E-01
(PID.TID 0000.0001) %MON dynstat_eta_del2             =   2.1073202208845E-03
(PID.TID 0000.0001) %MON dynstat_uvel_max             =   3.2247553263443E-01
(PID.TID 0000.0001) %MON dynstat_uvel_min             =  -9.5667554714267E-01
(PID.TID 0000.0001) %MON dynstat_uvel_mean            =  -3.1650335533149E-04
(PID.TID 0000.0001) %MON dynstat_uvel_sd              =   1.3001066099826E-02
(PID.TID 0000.0001) %MON dynstat_uvel_del2            =   8.6411974404785E-05
(PID.TID 0000.0001) %MON dynstat_vvel_max             =   1.1318807294848E+00
(PID.TID 0000.0001) %MON dynstat_vvel_min             =  -1.1226598717593E+00
(PID.TID 0000.0001) %MON dynstat_vvel_mean            =  -3.6367029122455E-04
(PID.TID 0000.0001) %MON dynstat_vvel_sd              =   1.3947993988809E-02
(PID.TID 0000.0001) %MON dynstat_vvel_del2            =   1.2683827534534E-04
(PID.TID 0000.0001) %MON dynstat_wvel_max             =   2.1146400956125E-04
(PID.TID 0000.0001) %MON dynstat_wvel_min             =  -2.1599331077754E-04
(PID.TID 0000.0001) %MON dynstat_wvel_mean            =  -2.1430722114252E-08
(PID.TID 0000.0001) %MON dynstat_wvel_sd              =   8.3446526868929E-06
(PID.TID 0000.0001) %MON dynstat_wvel_del2            =   7.4396022473338E-08
(PID.TID 0000.0001) %MON dynstat_theta_max            =   3.0923585358593E+01
(PID.TID 0000.0001) %MON dynstat_theta_min            =  -3.0053235066038E+00
(PID.TID 0000.0001) %MON dynstat_theta_mean           =   3.9091335165281E+00
(PID.TID 0000.0001) %MON dynstat_theta_sd             =   4.5713963690159E+00
(PID.TID 0000.0001) %MON dynstat_theta_del2           =   2.6449095023679E-03
(PID.TID 0000.0001) %MON dynstat_salt_max             =   4.1355625301549E+01
(PID.TID 0000.0001) %MON dynstat_salt_min             =   1.8518731308593E+01
(PID.TID 0000.0001) %MON dynstat_salt_mean            =   3.4772010144963E+01
(PID.TID 0000.0001) %MON dynstat_salt_sd              =   5.3155881032673E-01
(PID.TID 0000.0001) %MON dynstat_salt_del2            =   9.5845182401935E-04
(PID.TID 0000.0001) %MON dynstat_sst_max              =   3.0923585358593E+01
(PID.TID 0000.0001) %MON dynstat_sst_min              =  -1.8979755920372E+00
(PID.TID 0000.0001) %MON dynstat_sst_mean             =   1.8108591400326E+01
(PID.TID 0000.0001) %MON dynstat_sst_sd               =   9.8096508818141E+00
(PID.TID 0000.0001) %MON dynstat_sst_del2             =   1.5089019607055E-02
(PID.TID 0000.0001) %MON dynstat_sss_max              =   4.1355625301549E+01
(PID.TID 0000.0001) %MON dynstat_sss_min              =   1.8751417536441E+01
(PID.TID 0000.0001) %MON dynstat_sss_mean             =   3.4628487360175E+01
(PID.TID 0000.0001) %MON dynstat_sss_sd               =   1.4725261436687E+00
(PID.TID 0000.0001) %MON dynstat_sss_del2             =   1.0365914124918E-02
(PID.TID 0000.0001) %MON forcing_qnet_max             =   2.6167987318802E+03
(PID.TID 0000.0001) %MON forcing_qnet_min             =  -1.6467358764766E+03
(PID.TID 0000.0001) %MON forcing_qnet_mean            =   1.0660364830990E+01
(PID.TID 0000.0001) %MON forcing_qnet_sd              =   2.3024380071474E+02
(PID.TID 0000.0001) %MON forcing_qnet_del2            =   5.2008080089315E+00
(PID.TID 0000.0001) %MON forcing_qsw_max              =   0.0000000000000E+00
(PID.TID 0000.0001) %MON forcing_qsw_min              =  -1.0155962845718E+02
(PID.TID 0000.0001) %MON forcing_qsw_mean             =  -1.4512004766476E+01
(PID.TID 0000.0001) %MON forcing_qsw_sd               =   2.4615068834683E+01
(PID.TID 0000.0001) %MON forcing_qsw_del2             =   2.2094033481847E-01
(PID.TID 0000.0001) %MON forcing_empmr_max            =   7.7197728678584E-03
(PID.TID 0000.0001) %MON forcing_empmr_min            =  -1.1096583306789E-01
(PID.TID 0000.0001) %MON forcing_empmr_mean           =  -3.4615108541381E-04
(PID.TID 0000.0001) %MON forcing_empmr_sd             =   5.0410553265086E-03
(PID.TID 0000.0001) %MON forcing_empmr_del2           =   1.9885365704644E-04
(PID.TID 0000.0001) %MON forcing_fu_max               =   3.9463130506722E-01
(PID.TID 0000.0001) %MON forcing_fu_min               =  -3.6732861832246E-01
(PID.TID 0000.0001) %MON forcing_fu_mean              =  -3.8583196095553E-03
(PID.TID 0000.0001) %MON forcing_fu_sd                =   6.4413745196795E-02
(PID.TID 0000.0001) %MON forcing_fu_del2              =   6.2826456815726E-04
(PID.TID 0000.0001) %MON forcing_fv_max               =   3.2066656743050E-01
(PID.TID 0000.0001) %MON forcing_fv_min               =  -2.8080536075542E-01
(PID.TID 0000.0001) %MON forcing_fv_mean              =  -1.2527938894099E-02
(PID.TID 0000.0001) %MON forcing_fv_sd                =   6.5741008613501E-02
(PID.TID 0000.0001) %MON forcing_fv_del2              =   5.6547344264706E-04
(PID.TID 0000.0001) %MON trAdv_CFL_u_max              =   3.1295470216200E-03
(PID.TID 0000.0001) %MON trAdv_CFL_v_max              =   5.0271434487375E-03
(PID.TID 0000.0001) %MON trAdv_CFL_w_max              =   1.9033538090947E-03
(PID.TID 0000.0001) %MON advcfl_uvel_max              =   3.1046367761728E-03
(PID.TID 0000.0001) %MON advcfl_vvel_max              =   3.6636486744668E-03
(PID.TID 0000.0001) %MON advcfl_wvel_max              =   3.8596811501876E-03
(PID.TID 0000.0001) %MON advcfl_W_hf_max              =   2.7190768701353E-03
(PID.TID 0000.0001) %MON pe_b_mean                    =   5.1041240966132E-04
(PID.TID 0000.0001) %MON ke_max                       =   5.2584569747163E-01
(PID.TID 0000.0001) %MON ke_mean                      =   1.6801801351162E-04
(PID.TID 0000.0001) %MON ke_vol                       =   1.3398106436834E+18
(PID.TID 0000.0001) %MON vort_r_min                   =  -5.0228981993739E-06
(PID.TID 0000.0001) %MON vort_r_max                   =   3.7359655280957E-06
(PID.TID 0000.0001) %MON vort_a_mean                  =  -2.0549865324846E-05
(PID.TID 0000.0001) %MON vort_a_sd                    =   7.5259511374035E-05
(PID.TID 0000.0001) %MON vort_p_mean                  =  -2.4783319557028E-05
(PID.TID 0000.0001) %MON vort_p_sd                    =   1.2811907188800E-04
(PID.TID 0000.0001) %MON surfExpan_theta_mean         =  -6.6263061423235E-06
(PID.TID 0000.0001) %MON surfExpan_salt_mean          =   9.5444735442226E-07
(PID.TID 0000.0001) // =======================================================
(PID.TID 0000.0001) // End MONITOR dynamic field statistics
(PID.TID 0000.0001) // =======================================================
 cg2d: Sum(rhs),rhsMax =  -3.85214580297475E+01  5.16642448473876E+01
(PID.TID 0000.0001)      cg2d_init_res =   3.06221144374310E-01
(PID.TID 0000.0001)      cg2d_iters(min,last) =      -1      11
(PID.TID 0000.0001)      cg2d_last_res =   2.53753809293271E-08
(PID.TID 0000.0001) // =======================================================
(PID.TID 0000.0001) // Begin MONITOR dynamic field statistics
(PID.TID 0000.0001) // =======================================================
(PID.TID 0000.0001) %MON time_tsnumber                =                 72037
(PID.TID 0000.0001) %MON time_secondsf                =   6.4833300000000E+07
(PID.TID 0000.0001) %MON dynstat_eta_max              =   2.3057579260355E+00
(PID.TID 0000.0001) %MON dynstat_eta_min              =  -1.6077641512282E+00
(PID.TID 0000.0001) %MON dynstat_eta_mean             =   2.3125651459524E-02
(PID.TID 0000.0001) %MON dynstat_eta_sd               =   6.1825225698373E-01
(PID.TID 0000.0001) %MON dynstat_eta_del2             =   2.0488330772153E-03
(PID.TID 0000.0001) %MON dynstat_uvel_max             =   3.3313606050632E-01
(PID.TID 0000.0001) %MON dynstat_uvel_min             =  -9.5167715360451E-01
(PID.TID 0000.0001) %MON dynstat_uvel_mean            =  -3.5032729195640E-04
(PID.TID 0000.0001) %MON dynstat_uvel_sd              =   1.3019142631321E-02
(PID.TID 0000.0001) %MON dynstat_uvel_del2            =   8.6600762144890E-05
(PID.TID 0000.0001) %MON dynstat_vvel_max             =   1.1260515410584E+00
(PID.TID 0000.0001) %MON dynstat_vvel_min             =  -1.0747267697494E+00
(PID.TID 0000.0001) %MON dynstat_vvel_mean            =  -3.3447857576813E-04
(PID.TID 0000.0001) %MON dynstat_vvel_sd              =   1.3900858849426E-02
(PID.TID 0000.0001) %MON dynstat_vvel_del2            =   1.2523909959692E-04
(PID.TID 0000.0001) %MON dynstat_wvel_max             =   2.1315258344732E-04
(PID.TID 0000.0001) %MON dynstat_wvel_min             =  -2.0447136627337E-04
(PID.TID 0000.0001) %MON dynstat_wvel_mean            =  -1.4021085356658E-08
(PID.TID 0000.0001) %MON dynstat_wvel_sd              =   8.2894344156468E-06
(PID.TID 0000.0001) %MON dynstat_wvel_del2            =   7.4376791577938E-08
(PID.TID 0000.0001) %MON dynstat_theta_max            =   3.0923738429548E+01
(PID.TID 0000.0001) %MON dynstat_theta_min            =  -3.0051831750018E+00
(PID.TID 0000.0001) %MON dynstat_theta_mean           =   3.9091345340523E+00
(PID.TID 0000.0001) %MON dynstat_theta_sd             =   4.5714010948223E+00
(PID.TID 0000.0001) %MON dynstat_theta_del2           =   2.6447738735313E-03
(PID.TID 0000.0001) %MON dynstat_salt_max             =   4.1355310618250E+01
(PID.TID 0000.0001) %MON dynstat_salt_min             =   1.8518741786556E+01
(PID.TID 0000.0001) %MON dynstat_salt_mean            =   3.4772006705452E+01
(PID.TID 0000.0001) %MON dynstat_salt_sd              =   5.3157779891978E-01
(PID.TID 0000.0001) %MON dynstat_salt_del2            =   9.6361292437343E-04
(PID.TID 0000.0001) %MON dynstat_sst_max              =   3.0923738429548E+01
(PID.TID 0000.0001) %MON dynstat_sst_min              =  -1.8978513946838E+00
(PID.TID 0000.0001) %MON dynstat_sst_mean             =   1.8108568266422E+01
(PID.TID 0000.0001) %MON dynstat_sst_sd               =   9.8097640644375E+00
(PID.TID 0000.0001) %MON dynstat_sst_del2             =   1.5086338562042E-02
(PID.TID 0000.0001) %MON dynstat_sss_max              =   4.1355310618250E+01
(PID.TID 0000.0001) %MON dynstat_sss_min              =   1.8751424324685E+01
(PID.TID 0000.0001) %MON dynstat_sss_mean             =   3.4628243889012E+01
(PID.TID 0000.0001) %MON dynstat_sss_sd               =   1.4730050479889E+00
(PID.TID 0000.0001) %MON dynstat_sss_del2             =   1.0441186360433E-02
(PID.TID 0000.0001) %MON forcing_qnet_max             =   2.5823492930557E+03
(PID.TID 0000.0001) %MON forcing_qnet_min             =  -1.6233612183201E+03
(PID.TID 0000.0001) %MON forcing_qnet_mean            =   1.3796498853569E+01
(PID.TID 0000.0001) %MON forcing_qnet_sd              =   2.2627088360212E+02
(PID.TID 0000.0001) %MON forcing_qnet_del2            =   5.1207945177549E+00
(PID.TID 0000.0001) %MON forcing_qsw_max              =   0.0000000000000E+00
(PID.TID 0000.0001) %MON forcing_qsw_min              =  -1.0175546145750E+02
(PID.TID 0000.0001) %MON forcing_qsw_mean             =  -1.3957371884651E+01
(PID.TID 0000.0001) %MON forcing_qsw_sd               =   2.4636150221078E+01
(PID.TID 0000.0001) %MON forcing_qsw_del2             =   2.1075509660313E-01
(PID.TID 0000.0001) %MON forcing_empmr_max            =   7.6402621343732E-03
(PID.TID 0000.0001) %MON forcing_empmr_min            =  -1.0982298851013E-01
(PID.TID 0000.0001) %MON forcing_empmr_mean           =  -3.3899831386679E-04
(PID.TID 0000.0001) %MON forcing_empmr_sd             =   4.9342475360761E-03
(PID.TID 0000.0001) %MON forcing_empmr_del2           =   1.9472039171838E-04
(PID.TID 0000.0001) %MON forcing_fu_max               =   3.9296098565889E-01
(PID.TID 0000.0001) %MON forcing_fu_min               =  -3.6675598107065E-01
(PID.TID 0000.0001) %MON forcing_fu_mean              =  -3.7685683093287E-03
(PID.TID 0000.0001) %MON forcing_fu_sd                =   6.4224664509062E-02
(PID.TID 0000.0001) %MON forcing_fu_del2              =   6.2740745028177E-04
(PID.TID 0000.0001) %MON forcing_fv_max               =   3.2049973593810E-01
(PID.TID 0000.0001) %MON forcing_fv_min               =  -2.8328563377167E-01
(PID.TID 0000.0001) %MON forcing_fv_mean              =  -1.2677554776679E-02
(PID.TID 0000.0001) %MON forcing_fv_sd                =   6.5642807841735E-02
(PID.TID 0000.0001) %MON forcing_fv_del2              =   5.6307578309975E-04
(PID.TID 0000.0001) %MON trAdv_CFL_u_max              =   3.2103870229100E-03
(PID.TID 0000.0001) %MON trAdv_CFL_v_max              =   4.8062660276762E-03
(PID.TID 0000.0001) %MON trAdv_CFL_w_max              =   1.9185318244985E-03
(PID.TID 0000.0001) %MON advcfl_uvel_max              =   3.1736212172013E-03
(PID.TID 0000.0001) %MON advcfl_vvel_max              =   3.5072254780392E-03
(PID.TID 0000.0001) %MON advcfl_wvel_max              =   3.8199300351350E-03
(PID.TID 0000.0001) %MON advcfl_W_hf_max              =   2.7407597492836E-03
(PID.TID 0000.0001) %MON pe_b_mean                    =   5.0991807711395E-04
(PID.TID 0000.0001) %MON ke_max                       =   5.0604225897764E-01
(PID.TID 0000.0001) %MON ke_mean                      =   1.6762593743852E-04
(PID.TID 0000.0001) %MON ke_vol                       =   1.3398107532137E+18
(PID.TID 0000.0001) %MON vort_r_min                   =  -4.7581075182347E-06
(PID.TID 0000.0001) %MON vort_r_max                   =   3.7167252968147E-06
(PID.TID 0000.0001) %MON vort_a_mean                  =  -2.0549865324846E-05
(PID.TID 0000.0001) %MON vort_a_sd                    =   7.5259517512334E-05
(PID.TID 0000.0001) %MON vort_p_mean                  =  -2.4783317791616E-05
(PID.TID 0000.0001) %MON vort_p_sd                    =   1.2811908789706E-04
(PID.TID 0000.0001) %MON surfExpan_theta_mean         =  -6.5422574849924E-06
(PID.TID 0000.0001) %MON surfExpan_salt_mean          =   9.3585664940982E-07
(PID.TID 0000.0001) // =======================================================
(PID.TID 0000.0001) // End MONITOR dynamic field statistics
(PID.TID 0000.0001) // =======================================================
 cg2d: Sum(rhs),rhsMax =  -3.69939530489288E+01  5.44619374406668E+01
(PID.TID 0000.0001)      cg2d_init_res =   2.84379611971908E-01
(PID.TID 0000.0001)      cg2d_iters(min,last) =      -1      10
(PID.TID 0000.0001)      cg2d_last_res =   9.80808585286521E-08
(PID.TID 0000.0001) // =======================================================
(PID.TID 0000.0001) // Begin MONITOR dynamic field statistics
(PID.TID 0000.0001) // =======================================================
(PID.TID 0000.0001) %MON time_tsnumber                =                 72038
(PID.TID 0000.0001) %MON time_secondsf                =   6.4834200000000E+07
(PID.TID 0000.0001) %MON dynstat_eta_max              =   2.4298110910875E+00
(PID.TID 0000.0001) %MON dynstat_eta_min              =  -1.6080372174832E+00
(PID.TID 0000.0001) %MON dynstat_eta_mean             =   2.3411271485672E-02
(PID.TID 0000.0001) %MON dynstat_eta_sd               =   6.1800563875117E-01
(PID.TID 0000.0001) %MON dynstat_eta_del2             =   2.0237477628050E-03
(PID.TID 0000.0001) %MON dynstat_uvel_max             =   3.4240700656787E-01
(PID.TID 0000.0001) %MON dynstat_uvel_min             =  -9.5338435397009E-01
(PID.TID 0000.0001) %MON dynstat_uvel_mean            =  -3.8192570613763E-04
(PID.TID 0000.0001) %MON dynstat_uvel_sd              =   1.3027968517978E-02
(PID.TID 0000.0001) %MON dynstat_uvel_del2            =   8.6692729588732E-05
(PID.TID 0000.0001) %MON dynstat_vvel_max             =   1.1062422215697E+00
(PID.TID 0000.0001) %MON dynstat_vvel_min             =  -1.0118537884277E+00
(PID.TID 0000.0001) %MON dynstat_vvel_mean            =  -3.0098128121791E-04
(PID.TID 0000.0001) %MON dynstat_vvel_sd              =   1.3852262398494E-02
(PID.TID 0000.0001) %MON dynstat_vvel_del2            =   1.2306834607010E-04
(PID.TID 0000.0001) %MON dynstat_wvel_max             =   2.1314202173445E-04
(PID.TID 0000.0001) %MON dynstat_wvel_min             =  -1.9729773714246E-04
(PID.TID 0000.0001) %MON dynstat_wvel_mean            =  -1.0831032914763E-08
(PID.TID 0000.0001) %MON dynstat_wvel_sd              =   8.2301229440091E-06
(PID.TID 0000.0001) %MON dynstat_wvel_del2            =   7.4364092516278E-08
(PID.TID 0000.0001) %MON dynstat_theta_max            =   3.0923891067055E+01
(PID.TID 0000.0001) %MON dynstat_theta_min            =  -3.0050364361580E+00
(PID.TID 0000.0001) %MON dynstat_theta_mean           =   3.9091354171621E+00
(PID.TID 0000.0001) %MON dynstat_theta_sd             =   4.5714053047722E+00
(PID.TID 0000.0001) %MON dynstat_theta_del2           =   2.6446377933501E-03
(PID.TID 0000.0001) %MON dynstat_salt_max             =   4.1354991241782E+01
(PID.TID 0000.0001) %MON dynstat_salt_min             =   1.8518752285204E+01
(PID.TID 0000.0001) %MON dynstat_salt_mean            =   3.4772003343163E+01
(PID.TID 0000.0001) %MON dynstat_salt_sd              =   5.3159665546542E-01
(PID.TID 0000.0001) %MON dynstat_salt_del2            =   9.6871648039722E-04
(PID.TID 0000.0001) %MON dynstat_sst_max              =   3.0923891067055E+01
(PID.TID 0000.0001) %MON dynstat_sst_min              =  -1.8977293992018E+00
(PID.TID 0000.0001) %MON dynstat_sst_mean             =   1.8108536613771E+01
(PID.TID 0000.0001) %MON dynstat_sst_sd               =   9.8098712844503E+00
(PID.TID 0000.0001) %MON dynstat_sst_del2             =   1.5083575987873E-02
(PID.TID 0000.0001) %MON dynstat_sss_max              =   4.1354991241782E+01
(PID.TID 0000.0001) %MON dynstat_sss_min              =   1.8751432468813E+01
(PID.TID 0000.0001) %MON dynstat_sss_mean             =   3.4628005831981E+01
(PID.TID 0000.0001) %MON dynstat_sss_sd               =   1.4734795944730E+00
(PID.TID 0000.0001) %MON dynstat_sss_del2             =   1.0515472615209E-02
(PID.TID 0000.0001) %MON forcing_qnet_max             =   2.5479724858977E+03
(PID.TID 0000.0001) %MON forcing_qnet_min             =  -1.6006231042344E+03
(PID.TID 0000.0001) %MON forcing_qnet_mean            =   1.5555142542094E+01
(PID.TID 0000.0001) %MON forcing_qnet_sd              =   2.2385216005313E+02
(PID.TID 0000.0001) %MON forcing_qnet_del2            =   4.9941952811112E+00
(PID.TID 0000.0001) %MON forcing_qsw_max              =   0.0000000000000E+00
(PID.TID 0000.0001) %MON forcing_qsw_min              =  -1.0199764812605E+02
(PID.TID 0000.0001) %MON forcing_qsw_mean             =  -1.3810231732683E+01
(PID.TID 0000.0001) %MON forcing_qsw_sd               =   2.4722122185823E+01
(PID.TID 0000.0001) %MON forcing_qsw_del2             =   2.0773273909974E-01
(PID.TID 0000.0001) %MON forcing_empmr_max            =   7.5614410452545E-03
(PID.TID 0000.0001) %MON forcing_empmr_min            =  -1.0869106650352E-01
(PID.TID 0000.0001) %MON forcing_empmr_mean           =  -3.2846303007036E-04
(PID.TID 0000.0001) %MON forcing_empmr_sd             =   4.8124340761795E-03
(PID.TID 0000.0001) %MON forcing_empmr_del2           =   1.9001445156718E-04
(PID.TID 0000.0001) %MON forcing_fu_max               =   3.8858311971563E-01
(PID.TID 0000.0001) %MON forcing_fu_min               =  -3.6567174593454E-01
(PID.TID 0000.0001) %MON forcing_fu_mean              =  -3.7125694871727E-03
(PID.TID 0000.0001) %MON forcing_fu_sd                =   6.3937432589812E-02
(PID.TID 0000.0001) %MON forcing_fu_del2              =   6.2429079939925E-04
(PID.TID 0000.0001) %MON forcing_fv_max               =   3.2099640884126E-01
(PID.TID 0000.0001) %MON forcing_fv_min               =  -2.8374731872501E-01
(PID.TID 0000.0001) %MON forcing_fv_mean              =  -1.2898864373621E-02
(PID.TID 0000.0001) %MON forcing_fv_sd                =   6.5419210032021E-02
(PID.TID 0000.0001) %MON forcing_fv_del2              =   5.5993437796803E-04
(PID.TID 0000.0001) %MON trAdv_CFL_u_max              =   3.2274207878974E-03
(PID.TID 0000.0001) %MON trAdv_CFL_v_max              =   4.5321898054944E-03
(PID.TID 0000.0001) %MON trAdv_CFL_w_max              =   1.9184173310767E-03
(PID.TID 0000.0001) %MON advcfl_uvel_max              =   3.1793143320162E-03
(PID.TID 0000.0001) %MON advcfl_vvel_max              =   3.3151528494535E-03
(PID.TID 0000.0001) %MON advcfl_wvel_max              =   3.7805588349052E-03
(PID.TID 0000.0001) %MON advcfl_W_hf_max              =   2.7405961872524E-03
(PID.TID 0000.0001) %MON pe_b_mean                    =   5.0952958448641E-04
(PID.TID 0000.0001) %MON ke_max                       =   4.7138272573259E-01
(PID.TID 0000.0001) %MON ke_mean                      =   1.6710650918982E-04
(PID.TID 0000.0001) %MON ke_vol                       =   1.3398108604806E+18
(PID.TID 0000.0001) %MON vort_r_min                   =  -4.4567907020919E-06
(PID.TID 0000.0001) %MON vort_r_max                   =   3.6513412569444E-06
(PID.TID 0000.0001) %MON vort_a_mean                  =  -2.0549865324846E-05
(PID.TID 0000.0001) %MON vort_a_sd                    =   7.5259524824311E-05
(PID.TID 0000.0001) %MON vort_p_mean                  =  -2.4783316071730E-05
(PID.TID 0000.0001) %MON vort_p_sd                    =   1.2811910239691E-04
(PID.TID 0000.0001) %MON surfExpan_theta_mean         =  -6.4429545833035E-06
(PID.TID 0000.0001) %MON surfExpan_salt_mean          =   9.2005883482913E-07
(PID.TID 0000.0001) // =======================================================
(PID.TID 0000.0001) // End MONITOR dynamic field statistics
(PID.TID 0000.0001) // =======================================================
 cg2d: Sum(rhs),rhsMax =  -3.57055076970578E+01  5.70946793916778E+01
(PID.TID 0000.0001)      cg2d_init_res =   2.64011214011394E-01
(PID.TID 0000.0001)      cg2d_iters(min,last) =      -1      10
(PID.TID 0000.0001)      cg2d_last_res =   8.55461451161471E-08
(PID.TID 0000.0001) // =======================================================
(PID.TID 0000.0001) // Begin MONITOR dynamic field statistics
(PID.TID 0000.0001) // =======================================================
(PID.TID 0000.0001) %MON time_tsnumber                =                 72039
(PID.TID 0000.0001) %MON time_secondsf                =   6.4835100000000E+07
(PID.TID 0000.0001) %MON dynstat_eta_max              =   2.5465236795815E+00
(PID.TID 0000.0001) %MON dynstat_eta_min              =  -1.6082785333665E+00
(PID.TID 0000.0001) %MON dynstat_eta_mean             =   2.3688198000407E-02
(PID.TID 0000.0001) %MON dynstat_eta_sd               =   6.1782351670028E-01
(PID.TID 0000.0001) %MON dynstat_eta_del2             =   2.0309986893457E-03
(PID.TID 0000.0001) %MON dynstat_uvel_max             =   3.5018980016643E-01
(PID.TID 0000.0001) %MON dynstat_uvel_min             =  -9.3702685093939E-01
(PID.TID 0000.0001) %MON dynstat_uvel_mean            =  -4.1092064863538E-04
(PID.TID 0000.0001) %MON dynstat_uvel_sd              =   1.3026601428609E-02
(PID.TID 0000.0001) %MON dynstat_uvel_del2            =   8.6701868664598E-05
(PID.TID 0000.0001) %MON dynstat_vvel_max             =   1.0735460019047E+00
(PID.TID 0000.0001) %MON dynstat_vvel_min             =  -9.3557104435085E-01
(PID.TID 0000.0001) %MON dynstat_vvel_mean            =  -2.6342190540880E-04
(PID.TID 0000.0001) %MON dynstat_vvel_sd              =   1.3804817681700E-02
(PID.TID 0000.0001) %MON dynstat_vvel_del2            =   1.2036006201142E-04
(PID.TID 0000.0001) %MON dynstat_wvel_max             =   2.1154616545737E-04
(PID.TID 0000.0001) %MON dynstat_wvel_min             =  -1.9679634043275E-04
(PID.TID 0000.0001) %MON dynstat_wvel_mean            =  -1.2130625448514E-08
(PID.TID 0000.0001) %MON dynstat_wvel_sd              =   8.1697111040945E-06
(PID.TID 0000.0001) %MON dynstat_wvel_del2            =   7.4390169561565E-08
(PID.TID 0000.0001) %MON dynstat_theta_max            =   3.0924043566751E+01
(PID.TID 0000.0001) %MON dynstat_theta_min            =  -3.0048874917495E+00
(PID.TID 0000.0001) %MON dynstat_theta_mean           =   3.9091361481346E+00
(PID.TID 0000.0001) %MON dynstat_theta_sd             =   4.5714089256623E+00
(PID.TID 0000.0001) %MON dynstat_theta_del2           =   2.6443811926810E-03
(PID.TID 0000.0001) %MON dynstat_salt_max             =   4.1354666015815E+01
(PID.TID 0000.0001) %MON dynstat_salt_min             =   1.8518762799004E+01
(PID.TID 0000.0001) %MON dynstat_salt_mean            =   3.4772000044656E+01
(PID.TID 0000.0001) %MON dynstat_salt_sd              =   5.3161534222283E-01
(PID.TID 0000.0001) %MON dynstat_salt_del2            =   9.7376050597573E-04
(PID.TID 0000.0001) %MON dynstat_sst_max              =   3.0924043566751E+01
(PID.TID 0000.0001) %MON dynstat_sst_min              =  -1.8976101952974E+00
(PID.TID 0000.0001) %MON dynstat_sst_mean             =   1.8108520332449E+01
(PID.TID 0000.0001) %MON dynstat_sst_sd               =   9.8099278651416E+00
(PID.TID 0000.0001) %MON dynstat_sst_del2             =   1.5076985759128E-02
(PID.TID 0000.0001) %MON dynstat_sss_max              =   4.1354666015815E+01
(PID.TID 0000.0001) %MON dynstat_sss_min              =   1.8751442149962E+01
(PID.TID 0000.0001) %MON dynstat_sss_mean             =   3.4627774026684E+01
(PID.TID 0000.0001) %MON dynstat_sss_sd               =   1.4739491925650E+00
(PID.TID 0000.0001) %MON dynstat_sss_del2             =   1.0588736981464E-02
(PID.TID 0000.0001) %MON forcing_qnet_max             =   2.5140527475733E+03
(PID.TID 0000.0001) %MON forcing_qnet_min             =  -1.5795396106013E+03
(PID.TID 0000.0001) %MON forcing_qnet_mean            =   1.7636627896605E+01
(PID.TID 0000.0001) %MON forcing_qnet_sd              =   2.2276607913656E+02
(PID.TID 0000.0001) %MON forcing_qnet_del2            =   5.0151961759419E+00
(PID.TID 0000.0001) %MON forcing_qsw_max              =   0.0000000000000E+00
(PID.TID 0000.0001) %MON forcing_qsw_min              =  -1.0232601968896E+02
(PID.TID 0000.0001) %MON forcing_qsw_mean             =  -1.3639496713829E+01
(PID.TID 0000.0001) %MON forcing_qsw_sd               =   2.4755192723005E+01
(PID.TID 0000.0001) %MON forcing_qsw_del2             =   2.0451611062109E-01
(PID.TID 0000.0001) %MON forcing_empmr_max            =   7.4835051782429E-03
(PID.TID 0000.0001) %MON forcing_empmr_min            =  -1.0757172852755E-01
(PID.TID 0000.0001) %MON forcing_empmr_mean           =  -3.1846549194544E-04
(PID.TID 0000.0001) %MON forcing_empmr_sd             =   4.7377345812621E-03
(PID.TID 0000.0001) %MON forcing_empmr_del2           =   1.8708682825318E-04
(PID.TID 0000.0001) %MON forcing_fu_max               =   3.8455809050555E-01
(PID.TID 0000.0001) %MON forcing_fu_min               =  -3.6440216007556E-01
(PID.TID 0000.0001) %MON forcing_fu_mean              =  -3.6930896501106E-03
(PID.TID 0000.0001) %MON forcing_fu_sd                =   6.3518657075590E-02
(PID.TID 0000.0001) %MON forcing_fu_del2              =   6.2141806632140E-04
(PID.TID 0000.0001) %MON forcing_fv_max               =   3.1659679312519E-01
(PID.TID 0000.0001) %MON forcing_fv_min               =  -2.8297795388359E-01
(PID.TID 0000.0001) %MON forcing_fv_mean              =  -1.3138512838399E-02
(PID.TID 0000.0001) %MON forcing_fv_sd                =   6.5174285018793E-02
(PID.TID 0000.0001) %MON forcing_fv_del2              =   5.5661439648626E-04
(PID.TID 0000.0001) %MON trAdv_CFL_u_max              =   3.1828958405055E-03
(PID.TID 0000.0001) %MON trAdv_CFL_v_max              =   4.2104687401131E-03
(PID.TID 0000.0001) %MON trAdv_CFL_w_max              =   1.9323271863667E-03
(PID.TID 0000.0001) %MON advcfl_uvel_max              =   3.1247658767107E-03
(PID.TID 0000.0001) %MON advcfl_vvel_max              =   3.2171698185447E-03
(PID.TID 0000.0001) %MON advcfl_wvel_max              =   3.7416253400886E-03
(PID.TID 0000.0001) %MON advcfl_W_hf_max              =   2.7200508541945E-03
(PID.TID 0000.0001) %MON pe_b_mean                    =   5.0924708541486E-04
(PID.TID 0000.0001) %MON ke_max                       =   4.2457592671084E-01
(PID.TID 0000.0001) %MON ke_mean                      =   1.6648202081845E-04
(PID.TID 0000.0001) %MON ke_vol                       =   1.3398109644140E+18
(PID.TID 0000.0001) %MON vort_r_min                   =  -4.1222247255113E-06
(PID.TID 0000.0001) %MON vort_r_max                   =   3.8732758962846E-06
(PID.TID 0000.0001) %MON vort_a_mean                  =  -2.0549865324846E-05
(PID.TID 0000.0001) %MON vort_a_sd                    =   7.5259533231509E-05
(PID.TID 0000.0001) %MON vort_p_mean                  =  -2.4783314409550E-05
(PID.TID 0000.0001) %MON vort_p_sd                    =   1.2811911466910E-04
(PID.TID 0000.0001) %MON surfExpan_theta_mean         =  -6.3462006299781E-06
(PID.TID 0000.0001) %MON surfExpan_salt_mean          =   9.1013498312386E-07
(PID.TID 0000.0001) // =======================================================
(PID.TID 0000.0001) // End MONITOR dynamic field statistics
(PID.TID 0000.0001) // =======================================================
 Computing Diagnostic #     81  oceTAUX      Counter:       1   Parms: UU      U1      
           Vector  Mate for  oceTAUX      Diagnostic #     82  oceTAUY  exists 
 Computing Diagnostic #     82  oceTAUY      Counter:       1   Parms: VV      U1      
           Vector  Mate for  oceTAUY      Diagnostic #     81  oceTAUX  exists 
 Computing Diagnostic #     85  oceFWflx     Counter:       1   Parms: SM      U1      
 Computing Diagnostic #     86  oceSflux     Counter:       1   Parms: SM      U1      
 Computing Diagnostic #     87  oceQnet      Counter:       1   Parms: SM      U1      
 Computing Diagnostic #     88  oceQsw       Counter:       1   Parms: SM      U1      
 Computing Diagnostic #     27  SALT         Counter:       1   Parms: SMR     MR      
 Computing Diagnostic #     26  THETA        Counter:       1   Parms: SMR     MR      
 Computing Diagnostic #     45  UVELMASS     Counter:       1   Parms: UUr     MR      
           Vector  Mate for  UVELMASS     Diagnostic #     46  VVELMASS exists 
 Computing Diagnostic #     46  VVELMASS     Counter:       1   Parms: VVr     MR      
           Vector  Mate for  VVELMASS     Diagnostic #     45  UVELMASS exists 
 cg2d: Sum(rhs),rhsMax =  -3.46411001667977E+01  5.95295488498261E+01
(PID.TID 0000.0001)      cg2d_init_res =   2.44075226733070E-01
(PID.TID 0000.0001)      cg2d_iters(min,last) =      -1      10
(PID.TID 0000.0001)      cg2d_last_res =   6.78199210305346E-08
(PID.TID 0000.0001) // =======================================================
(PID.TID 0000.0001) // Begin MONITOR dynamic field statistics
(PID.TID 0000.0001) // =======================================================
(PID.TID 0000.0001) %MON time_tsnumber                =                 72040
(PID.TID 0000.0001) %MON time_secondsf                =   6.4836000000000E+07
(PID.TID 0000.0001) %MON dynstat_eta_max              =   2.6544382940913E+00
(PID.TID 0000.0001) %MON dynstat_eta_min              =  -1.6084422071909E+00
(PID.TID 0000.0001) %MON dynstat_eta_mean             =   2.3962131147398E-02
(PID.TID 0000.0001) %MON dynstat_eta_sd               =   6.1769738868259E-01
(PID.TID 0000.0001) %MON dynstat_eta_del2             =   2.0655761819705E-03
(PID.TID 0000.0001) %MON dynstat_uvel_max             =   3.5639934951112E-01
(PID.TID 0000.0001) %MON dynstat_uvel_min             =  -9.0376029304319E-01
(PID.TID 0000.0001) %MON dynstat_uvel_mean            =  -4.3704311658183E-04
(PID.TID 0000.0001) %MON dynstat_uvel_sd              =   1.3014893747254E-02
(PID.TID 0000.0001) %MON dynstat_uvel_del2            =   8.6660263153765E-05
(PID.TID 0000.0001) %MON dynstat_vvel_max             =   1.0291860741780E+00
(PID.TID 0000.0001) %MON dynstat_vvel_min             =  -8.4757058748052E-01
(PID.TID 0000.0001) %MON dynstat_vvel_mean            =  -2.2216465740046E-04
(PID.TID 0000.0001) %MON dynstat_vvel_sd              =   1.3760920493830E-02
(PID.TID 0000.0001) %MON dynstat_vvel_del2            =   1.1716919183373E-04
(PID.TID 0000.0001) %MON dynstat_wvel_max             =   2.0854026979108E-04
(PID.TID 0000.0001) %MON dynstat_wvel_min             =  -1.9855848290128E-04
(PID.TID 0000.0001) %MON dynstat_wvel_mean            =  -1.8292701918885E-08
(PID.TID 0000.0001) %MON dynstat_wvel_sd              =   8.1102811639642E-06
(PID.TID 0000.0001) %MON dynstat_wvel_del2            =   7.4398707162783E-08
(PID.TID 0000.0001) %MON dynstat_theta_max            =   3.0924193900042E+01
(PID.TID 0000.0001) %MON dynstat_theta_min            =  -3.0047409088000E+00
(PID.TID 0000.0001) %MON dynstat_theta_mean           =   3.9091367105713E+00
(PID.TID 0000.0001) %MON dynstat_theta_sd             =   4.5714119237711E+00
(PID.TID 0000.0001) %MON dynstat_theta_del2           =   2.6442328180041E-03
(PID.TID 0000.0001) %MON dynstat_salt_max             =   4.1354334500256E+01
(PID.TID 0000.0001) %MON dynstat_salt_min             =   1.8518773320512E+01
(PID.TID 0000.0001) %MON dynstat_salt_mean            =   3.4771996799665E+01
(PID.TID 0000.0001) %MON dynstat_salt_sd              =   5.3163386162433E-01
(PID.TID 0000.0001) %MON dynstat_salt_del2            =   9.7874243474467E-04
(PID.TID 0000.0001) %MON dynstat_sst_max              =   3.0924193900042E+01
(PID.TID 0000.0001) %MON dynstat_sst_min              =  -1.8974966557313E+00
(PID.TID 0000.0001) %MON dynstat_sst_mean             =   1.8108471962322E+01
(PID.TID 0000.0001) %MON dynstat_sst_sd               =   9.8100205451673E+00
(PID.TID 0000.0001) %MON dynstat_sst_del2             =   1.5073813514716E-02
(PID.TID 0000.0001) %MON dynstat_sss_max              =   4.1354334500256E+01
(PID.TID 0000.0001) %MON dynstat_sss_min              =   1.8751453534200E+01
(PID.TID 0000.0001) %MON dynstat_sss_mean             =   3.4627545362240E+01
(PID.TID 0000.0001) %MON dynstat_sss_sd               =   1.4744146401657E+00
(PID.TID 0000.0001) %MON dynstat_sss_del2             =   1.0660986226043E-02
(PID.TID 0000.0001) %MON forcing_qnet_max             =   2.4818505607671E+03
(PID.TID 0000.0001) %MON forcing_qnet_min             =  -1.5587034906942E+03
(PID.TID 0000.0001) %MON forcing_qnet_mean            =   2.0140941623558E+01
(PID.TID 0000.0001) %MON forcing_qnet_sd              =   2.1977913051515E+02
(PID.TID 0000.0001) %MON forcing_qnet_del2            =   4.9171567615368E+00
(PID.TID 0000.0001) %MON forcing_qsw_max              =   0.0000000000000E+00
(PID.TID 0000.0001) %MON forcing_qsw_min              =  -1.0360131334990E+02
(PID.TID 0000.0001) %MON forcing_qsw_mean             =  -1.3444904951401E+01
(PID.TID 0000.0001) %MON forcing_qsw_sd               =   2.4734810258399E+01
(PID.TID 0000.0001) %MON forcing_qsw_del2             =   2.0114510732532E-01
(PID.TID 0000.0001) %MON forcing_empmr_max            =   7.4063567444682E-03
(PID.TID 0000.0001) %MON forcing_empmr_min            =  -1.0646329820156E-01
(PID.TID 0000.0001) %MON forcing_empmr_mean           =  -3.1502311903870E-04
(PID.TID 0000.0001) %MON forcing_empmr_sd             =   4.6887314554578E-03
(PID.TID 0000.0001) %MON forcing_empmr_del2           =   1.8514488665892E-04
(PID.TID 0000.0001) %MON forcing_fu_max               =   3.8245473636965E-01
(PID.TID 0000.0001) %MON forcing_fu_min               =  -3.6297916820541E-01
(PID.TID 0000.0001) %MON forcing_fu_mean              =  -3.6725608606774E-03
(PID.TID 0000.0001) %MON forcing_fu_sd                =   6.3183174007180E-02
(PID.TID 0000.0001) %MON forcing_fu_del2              =   6.1956011459791E-04
(PID.TID 0000.0001) %MON forcing_fv_max               =   3.2085615401729E-01
(PID.TID 0000.0001) %MON forcing_fv_min               =  -2.8290706199803E-01
(PID.TID 0000.0001) %MON forcing_fv_mean              =  -1.3308307536524E-02
(PID.TID 0000.0001) %MON forcing_fv_sd                =   6.5084706289907E-02
(PID.TID 0000.0001) %MON forcing_fv_del2              =   5.5505164305231E-04
(PID.TID 0000.0001) %MON trAdv_CFL_u_max              =   3.0799587828226E-03
(PID.TID 0000.0001) %MON trAdv_CFL_v_max              =   3.8472911520244E-03
(PID.TID 0000.0001) %MON trAdv_CFL_w_max              =   2.0026811287097E-03
(PID.TID 0000.0001) %MON advcfl_uvel_max              =   3.0138296694447E-03
(PID.TID 0000.0001) %MON advcfl_vvel_max              =   3.0842333441112E-03
(PID.TID 0000.0001) %MON advcfl_wvel_max              =   3.7030712417934E-03
(PID.TID 0000.0001) %MON advcfl_W_hf_max              =   2.6813778101751E-03
(PID.TID 0000.0001) %MON pe_b_mean                    =   5.0905683792884E-04
(PID.TID 0000.0001) %MON ke_max                       =   3.6897389208606E-01
(PID.TID 0000.0001) %MON ke_mean                      =   1.6578137120989E-04
(PID.TID 0000.0001) %MON ke_vol                       =   1.3398110651838E+18
(PID.TID 0000.0001) %MON vort_r_min                   =  -3.7581194224580E-06
(PID.TID 0000.0001) %MON vort_r_max                   =   4.0127123464798E-06
(PID.TID 0000.0001) %MON vort_a_mean                  =  -2.0549865324846E-05
(PID.TID 0000.0001) %MON vort_a_sd                    =   7.5259542622792E-05
(PID.TID 0000.0001) %MON vort_p_mean                  =  -2.4783312798101E-05
(PID.TID 0000.0001) %MON vort_p_sd                    =   1.2811912372883E-04
(PID.TID 0000.0001) %MON surfExpan_theta_mean         =  -6.2699074275939E-06
(PID.TID 0000.0001) %MON surfExpan_salt_mean          =   9.1297277736402E-07
(PID.TID 0000.0001) // =======================================================
(PID.TID 0000.0001) // End MONITOR dynamic field statistics
(PID.TID 0000.0001) // =======================================================
 cg2d: Sum(rhs),rhsMax =  -3.37820187707850E+01  6.17352432125800E+01
(PID.TID 0000.0001)      cg2d_init_res =   2.25640538323159E-01
(PID.TID 0000.0001)      cg2d_iters(min,last) =      -1      10
(PID.TID 0000.0001)      cg2d_last_res =   4.83163837023116E-08
(PID.TID 0000.0001) // =======================================================
(PID.TID 0000.0001) // Begin MONITOR dynamic field statistics
(PID.TID 0000.0001) // =======================================================
(PID.TID 0000.0001) %MON time_tsnumber                =                 72041
(PID.TID 0000.0001) %MON time_secondsf                =   6.4836900000000E+07
(PID.TID 0000.0001) %MON dynstat_eta_max              =   2.7521691761345E+00
(PID.TID 0000.0001) %MON dynstat_eta_min              =  -1.6084796016133E+00
(PID.TID 0000.0001) %MON dynstat_eta_mean             =   2.4233711623603E-02
(PID.TID 0000.0001) %MON dynstat_eta_sd               =   6.1761703466114E-01
(PID.TID 0000.0001) %MON dynstat_eta_del2             =   2.1203511523341E-03
(PID.TID 0000.0001) %MON dynstat_uvel_max             =   3.6096511490988E-01
(PID.TID 0000.0001) %MON dynstat_uvel_min             =  -8.5495210636137E-01
(PID.TID 0000.0001) %MON dynstat_uvel_mean            =  -4.6010284123223E-04
(PID.TID 0000.0001) %MON dynstat_uvel_sd              =   1.2993419324848E-02
(PID.TID 0000.0001) %MON dynstat_uvel_del2            =   8.6607758422706E-05
(PID.TID 0000.0001) %MON dynstat_vvel_max             =   9.7450314588371E-01
(PID.TID 0000.0001) %MON dynstat_vvel_min             =  -7.4967480186791E-01
(PID.TID 0000.0001) %MON dynstat_vvel_mean            =  -1.7772025171344E-04
(PID.TID 0000.0001) %MON dynstat_vvel_sd              =   1.3722608853932E-02
(PID.TID 0000.0001) %MON dynstat_vvel_del2            =   1.1357312708255E-04
(PID.TID 0000.0001) %MON dynstat_wvel_max             =   2.0435184724656E-04
(PID.TID 0000.0001) %MON dynstat_wvel_min             =  -2.0421859558057E-04
(PID.TID 0000.0001) %MON dynstat_wvel_mean            =  -2.8902504279937E-08
(PID.TID 0000.0001) %MON dynstat_wvel_sd              =   8.0548356115900E-06
(PID.TID 0000.0001) %MON dynstat_wvel_del2            =   7.4432282340337E-08
(PID.TID 0000.0001) %MON dynstat_theta_max            =   3.0924325228584E+01
(PID.TID 0000.0001) %MON dynstat_theta_min            =  -3.0046016030731E+00
(PID.TID 0000.0001) %MON dynstat_theta_mean           =   3.9091371722254E+00
(PID.TID 0000.0001) %MON dynstat_theta_sd             =   4.5714142743743E+00
(PID.TID 0000.0001) %MON dynstat_theta_del2           =   2.6441031830532E-03
(PID.TID 0000.0001) %MON dynstat_salt_max             =   4.1353996666135E+01
(PID.TID 0000.0001) %MON dynstat_salt_min             =   1.8518783842879E+01
(PID.TID 0000.0001) %MON dynstat_salt_mean            =   3.4771993612578E+01
(PID.TID 0000.0001) %MON dynstat_salt_sd              =   5.3165220078110E-01
(PID.TID 0000.0001) %MON dynstat_salt_del2            =   9.8366141536027E-04
(PID.TID 0000.0001) %MON dynstat_sst_max              =   3.0924325228584E+01
(PID.TID 0000.0001) %MON dynstat_sst_min              =  -1.8973905355427E+00
(PID.TID 0000.0001) %MON dynstat_sst_mean             =   1.8108412129792E+01
(PID.TID 0000.0001) %MON dynstat_sst_sd               =   9.8101091952609E+00
(PID.TID 0000.0001) %MON dynstat_sst_del2             =   1.5071234991812E-02
(PID.TID 0000.0001) %MON dynstat_sss_max              =   4.1353996666135E+01
(PID.TID 0000.0001) %MON dynstat_sss_min              =   1.8751466802234E+01
(PID.TID 0000.0001) %MON dynstat_sss_mean             =   3.4627320826408E+01
(PID.TID 0000.0001) %MON dynstat_sss_sd               =   1.4748749945504E+00
(PID.TID 0000.0001) %MON dynstat_sss_del2             =   1.0732197470583E-02
(PID.TID 0000.0001) %MON forcing_qnet_max             =   2.4492418675566E+03
(PID.TID 0000.0001) %MON forcing_qnet_min             =  -1.5364615743345E+03
(PID.TID 0000.0001) %MON forcing_qnet_mean            =   2.1633369460295E+01
(PID.TID 0000.0001) %MON forcing_qnet_sd              =   2.1560867567733E+02
(PID.TID 0000.0001) %MON forcing_qnet_del2            =   4.7679966725370E+00
(PID.TID 0000.0001) %MON forcing_qsw_max              =   0.0000000000000E+00
(PID.TID 0000.0001) %MON forcing_qsw_min              =  -1.0601666398522E+02
(PID.TID 0000.0001) %MON forcing_qsw_mean             =  -1.3096055503748E+01
(PID.TID 0000.0001) %MON forcing_qsw_sd               =   2.4560019053605E+01
(PID.TID 0000.0001) %MON forcing_qsw_del2             =   1.9487017847256E-01
(PID.TID 0000.0001) %MON forcing_empmr_max            =   7.3299957439303E-03
(PID.TID 0000.0001) %MON forcing_empmr_min            =  -1.0536660254002E-01
(PID.TID 0000.0001) %MON forcing_empmr_mean           =  -3.1231754763600E-04
(PID.TID 0000.0001) %MON forcing_empmr_sd             =   4.6403104264331E-03
(PID.TID 0000.0001) %MON forcing_empmr_del2           =   1.8323205983194E-04
(PID.TID 0000.0001) %MON forcing_fu_max               =   3.8121168267442E-01
(PID.TID 0000.0001) %MON forcing_fu_min               =  -3.6253267218692E-01
(PID.TID 0000.0001) %MON forcing_fu_mean              =  -3.6262968221880E-03
(PID.TID 0000.0001) %MON forcing_fu_sd                =   6.2961851216538E-02
(PID.TID 0000.0001) %MON forcing_fu_del2              =   6.1832049829025E-04
(PID.TID 0000.0001) %MON forcing_fv_max               =   3.3244831897558E-01
(PID.TID 0000.0001) %MON forcing_fv_min               =  -2.8496840281742E-01
(PID.TID 0000.0001) %MON forcing_fv_mean              =  -1.3489362792730E-02
(PID.TID 0000.0001) %MON forcing_fv_sd                =   6.5138179229624E-02
(PID.TID 0000.0001) %MON forcing_fv_del2              =   5.5543548667646E-04
(PID.TID 0000.0001) %MON trAdv_CFL_u_max              =   2.9226037472088E-03
(PID.TID 0000.0001) %MON trAdv_CFL_v_max              =   3.4494245607807E-03
(PID.TID 0000.0001) %MON trAdv_CFL_w_max              =   2.0569030847336E-03
(PID.TID 0000.0001) %MON advcfl_uvel_max              =   2.8510657570823E-03
(PID.TID 0000.0001) %MON advcfl_vvel_max              =   2.9203612173595E-03
(PID.TID 0000.0001) %MON advcfl_wvel_max              =   3.6649253057397E-03
(PID.TID 0000.0001) %MON advcfl_W_hf_max              =   2.6275027763999E-03
(PID.TID 0000.0001) %MON pe_b_mean                    =   5.0894200186702E-04
(PID.TID 0000.0001) %MON ke_max                       =   3.1398646637641E-01
(PID.TID 0000.0001) %MON ke_mean                      =   1.6503748583329E-04
(PID.TID 0000.0001) %MON ke_vol                       =   1.3398111648645E+18
(PID.TID 0000.0001) %MON vort_r_min                   =  -3.3685747581670E-06
(PID.TID 0000.0001) %MON vort_r_max                   =   4.0564166975193E-06
(PID.TID 0000.0001) %MON vort_a_mean                  =  -2.0549865324846E-05
(PID.TID 0000.0001) %MON vort_a_sd                    =   7.5259552861706E-05
(PID.TID 0000.0001) %MON vort_p_mean                  =  -2.4783311201503E-05
(PID.TID 0000.0001) %MON vort_p_sd                    =   1.2811912789846E-04
(PID.TID 0000.0001) %MON surfExpan_theta_mean         =  -6.2094907541799E-06
(PID.TID 0000.0001) %MON surfExpan_salt_mean          =   9.2155672219282E-07
(PID.TID 0000.0001) // =======================================================
(PID.TID 0000.0001) // End MONITOR dynamic field statistics
(PID.TID 0000.0001) // =======================================================
 cg2d: Sum(rhs),rhsMax =  -3.31127178163927E+01  6.36825836485711E+01
(PID.TID 0000.0001)      cg2d_init_res =   2.08583100036474E-01
(PID.TID 0000.0001)      cg2d_iters(min,last) =      -1      10
(PID.TID 0000.0001)      cg2d_last_res =   4.51276276512851E-08
(PID.TID 0000.0001) // =======================================================
(PID.TID 0000.0001) // Begin MONITOR dynamic field statistics
(PID.TID 0000.0001) // =======================================================
(PID.TID 0000.0001) %MON time_tsnumber                =                 72042
(PID.TID 0000.0001) %MON time_secondsf                =   6.4837800000000E+07
(PID.TID 0000.0001) %MON dynstat_eta_max              =   2.8384245156684E+00
(PID.TID 0000.0001) %MON dynstat_eta_min              =  -1.6083425244379E+00
(PID.TID 0000.0001) %MON dynstat_eta_mean             =   2.4502854213419E-02
(PID.TID 0000.0001) %MON dynstat_eta_sd               =   6.1756840151248E-01
(PID.TID 0000.0001) %MON dynstat_eta_del2             =   2.1874701158801E-03
(PID.TID 0000.0001) %MON dynstat_uvel_max             =   3.6383177306283E-01
(PID.TID 0000.0001) %MON dynstat_uvel_min             =  -8.0356364663739E-01
(PID.TID 0000.0001) %MON dynstat_uvel_mean            =  -4.7997994220731E-04
(PID.TID 0000.0001) %MON dynstat_uvel_sd              =   1.2963436309771E-02
(PID.TID 0000.0001) %MON dynstat_uvel_del2            =   8.6589101014611E-05
(PID.TID 0000.0001) %MON dynstat_vvel_max             =   9.1089104560659E-01
(PID.TID 0000.0001) %MON dynstat_vvel_min             =  -6.4379850335877E-01
(PID.TID 0000.0001) %MON dynstat_vvel_mean            =  -1.3067608068271E-04
(PID.TID 0000.0001) %MON dynstat_vvel_sd              =   1.3691405538307E-02
(PID.TID 0000.0001) %MON dynstat_vvel_del2            =   1.0967263769779E-04
(PID.TID 0000.0001) %MON dynstat_wvel_max             =   1.9924650240410E-04
(PID.TID 0000.0001) %MON dynstat_wvel_min             =  -2.0873850113842E-04
(PID.TID 0000.0001) %MON dynstat_wvel_mean            =  -4.3247978660949E-08
(PID.TID 0000.0001) %MON dynstat_wvel_sd              =   8.0044310386790E-06
(PID.TID 0000.0001) %MON dynstat_wvel_del2            =   7.4504986156035E-08
(PID.TID 0000.0001) %MON dynstat_theta_max            =   3.0924451305027E+01
(PID.TID 0000.0001) %MON dynstat_theta_min            =  -3.0044747607274E+00
(PID.TID 0000.0001) %MON dynstat_theta_mean           =   3.9091376469597E+00
(PID.TID 0000.0001) %MON dynstat_theta_sd             =   4.5714163410776E+00
(PID.TID 0000.0001) %MON dynstat_theta_del2           =   2.6439685708694E-03
(PID.TID 0000.0001) %MON dynstat_salt_max             =   4.1353652858010E+01
(PID.TID 0000.0001) %MON dynstat_salt_min             =   1.8518794359782E+01
(PID.TID 0000.0001) %MON dynstat_salt_mean            =   3.4771990510625E+01
(PID.TID 0000.0001) %MON dynstat_salt_sd              =   5.3167030824702E-01
(PID.TID 0000.0001) %MON dynstat_salt_del2            =   9.8852119140140E-04
(PID.TID 0000.0001) %MON dynstat_sst_max              =   3.0924451305027E+01
(PID.TID 0000.0001) %MON dynstat_sst_min              =  -1.8972924112041E+00
(PID.TID 0000.0001) %MON dynstat_sst_mean             =   1.8108355045854E+01
(PID.TID 0000.0001) %MON dynstat_sst_sd               =   9.8101879268830E+00
(PID.TID 0000.0001) %MON dynstat_sst_del2             =   1.5068161941536E-02
(PID.TID 0000.0001) %MON dynstat_sss_max              =   4.1353652858010E+01
(PID.TID 0000.0001) %MON dynstat_sss_min              =   1.8751482334376E+01
(PID.TID 0000.0001) %MON dynstat_sss_mean             =   3.4627103236425E+01
(PID.TID 0000.0001) %MON dynstat_sss_sd               =   1.4753300901988E+00
(PID.TID 0000.0001) %MON dynstat_sss_del2             =   1.0802390569134E-02
(PID.TID 0000.0001) %MON forcing_qnet_max             =   2.4190970129934E+03
(PID.TID 0000.0001) %MON forcing_qnet_min             =  -1.0723515625000E+04
(PID.TID 0000.0001) %MON forcing_qnet_mean            =   2.1156455880805E+01
(PID.TID 0000.0001) %MON forcing_qnet_sd              =   2.5783089125563E+02
(PID.TID 0000.0001) %MON forcing_qnet_del2            =   8.9345828384464E+00
(PID.TID 0000.0001) %MON forcing_qsw_max              =   0.0000000000000E+00
(PID.TID 0000.0001) %MON forcing_qsw_min              =  -1.0643917852958E+02
(PID.TID 0000.0001) %MON forcing_qsw_mean             =  -1.3032664219982E+01
(PID.TID 0000.0001) %MON forcing_qsw_sd               =   2.4521557533776E+01
(PID.TID 0000.0001) %MON forcing_qsw_del2             =   1.9345726531595E-01
(PID.TID 0000.0001) %MON forcing_empmr_max            =   7.2544217109680E-03
(PID.TID 0000.0001) %MON forcing_empmr_min            =  -1.0428082942963E-01
(PID.TID 0000.0001) %MON forcing_empmr_mean           =  -3.0951397828874E-04
(PID.TID 0000.0001) %MON forcing_empmr_sd             =   4.5925216150667E-03
(PID.TID 0000.0001) %MON forcing_empmr_del2           =   1.8133582319675E-04
(PID.TID 0000.0001) %MON forcing_fu_max               =   3.8032592375904E-01
(PID.TID 0000.0001) %MON forcing_fu_min               =  -3.6214792529130E-01
(PID.TID 0000.0001) %MON forcing_fu_mean              =  -3.5757794447020E-03
(PID.TID 0000.0001) %MON forcing_fu_sd                =   6.2836939967830E-02
(PID.TID 0000.0001) %MON forcing_fu_del2              =   6.1909002249226E-04
(PID.TID 0000.0001) %MON forcing_fv_max               =   3.3646419399853E-01
(PID.TID 0000.0001) %MON forcing_fv_min               =  -2.8707232180968E-01
(PID.TID 0000.0001) %MON forcing_fv_mean              =  -1.3684618653024E-02
(PID.TID 0000.0001) %MON forcing_fv_sd                =   6.5059200613331E-02
(PID.TID 0000.0001) %MON forcing_fv_del2              =   5.5408847493286E-04
(PID.TID 0000.0001) %MON trAdv_CFL_u_max              =   2.7155612369235E-03
(PID.TID 0000.0001) %MON trAdv_CFL_v_max              =   3.0239571348941E-03
(PID.TID 0000.0001) %MON trAdv_CFL_w_max              =   2.0945215922509E-03
(PID.TID 0000.0001) %MON advcfl_uvel_max              =   2.6415997104036E-03
(PID.TID 0000.0001) %MON advcfl_vvel_max              =   2.7297304211545E-03
(PID.TID 0000.0001) %MON advcfl_wvel_max              =   3.6271592845087E-03
(PID.TID 0000.0001) %MON advcfl_W_hf_max              =   2.5618410262771E-03
(PID.TID 0000.0001) %MON pe_b_mean                    =   5.0887941350555E-04
(PID.TID 0000.0001) %MON ke_max                       =   2.7055366823299E-01
(PID.TID 0000.0001) %MON ke_mean                      =   1.6428489762302E-04
(PID.TID 0000.0001) %MON ke_vol                       =   1.3398112636890E+18
(PID.TID 0000.0001) %MON vort_r_min                   =  -2.9579975111741E-06
(PID.TID 0000.0001) %MON vort_r_max                   =   4.0072170142169E-06
(PID.TID 0000.0001) %MON vort_a_mean                  =  -2.0549865324846E-05
(PID.TID 0000.0001) %MON vort_a_sd                    =   7.5259563787937E-05
(PID.TID 0000.0001) %MON vort_p_mean                  =  -2.4783309609296E-05
(PID.TID 0000.0001) %MON vort_p_sd                    =   1.2811912699009E-04
(PID.TID 0000.0001) %MON surfExpan_theta_mean         =  -6.1525009948951E-06
(PID.TID 0000.0001) %MON surfExpan_salt_mean          =   9.3590200530878E-07
(PID.TID 0000.0001) // =======================================================
(PID.TID 0000.0001) // End MONITOR dynamic field statistics
(PID.TID 0000.0001) // =======================================================
 cg2d: Sum(rhs),rhsMax =  -3.26217418438793E+01  6.53449933049648E+01
(PID.TID 0000.0001)      cg2d_init_res =   1.92757142604476E-01
(PID.TID 0000.0001)      cg2d_iters(min,last) =      -1      10
(PID.TID 0000.0001)      cg2d_last_res =   3.39496789053906E-08
(PID.TID 0000.0001) // =======================================================
(PID.TID 0000.0001) // Begin MONITOR dynamic field statistics
(PID.TID 0000.0001) // =======================================================
(PID.TID 0000.0001) %MON time_tsnumber                =                 72043
(PID.TID 0000.0001) %MON time_secondsf                =   6.4838700000000E+07
(PID.TID 0000.0001) %MON dynstat_eta_max              =   2.9120275017391E+00
(PID.TID 0000.0001) %MON dynstat_eta_min              =  -1.6079899581176E+00
(PID.TID 0000.0001) %MON dynstat_eta_mean             =   2.4769693781103E-02
(PID.TID 0000.0001) %MON dynstat_eta_sd               =   6.1753572396496E-01
(PID.TID 0000.0001) %MON dynstat_eta_del2             =   2.2592028331980E-03
(PID.TID 0000.0001) %MON dynstat_uvel_max             =   3.6495949659284E-01
(PID.TID 0000.0001) %MON dynstat_uvel_min             =  -7.5268140256925E-01
(PID.TID 0000.0001) %MON dynstat_uvel_mean            =  -4.9661159346244E-04
(PID.TID 0000.0001) %MON dynstat_uvel_sd              =   1.2926621373271E-02
(PID.TID 0000.0001) %MON dynstat_uvel_del2            =   8.6643643377875E-05
(PID.TID 0000.0001) %MON dynstat_vvel_max             =   8.3979715265138E-01
(PID.TID 0000.0001) %MON dynstat_vvel_min             =  -5.3192378558786E-01
(PID.TID 0000.0001) %MON dynstat_vvel_mean            =  -8.1679185989649E-05
(PID.TID 0000.0001) %MON dynstat_vvel_sd              =   1.3668432901287E-02
(PID.TID 0000.0001) %MON dynstat_vvel_del2            =   1.0559575443768E-04
(PID.TID 0000.0001) %MON dynstat_wvel_max             =   1.9350722421610E-04
(PID.TID 0000.0001) %MON dynstat_wvel_min             =  -2.1203796385805E-04
(PID.TID 0000.0001) %MON dynstat_wvel_mean            =  -6.1451943740453E-08
(PID.TID 0000.0001) %MON dynstat_wvel_sd              =   7.9604433708300E-06
(PID.TID 0000.0001) %MON dynstat_wvel_del2            =   7.4624466317956E-08
(PID.TID 0000.0001) %MON dynstat_theta_max            =   3.0924570260450E+01
(PID.TID 0000.0001) %MON dynstat_theta_min            =  -3.0043657572793E+00
(PID.TID 0000.0001) %MON dynstat_theta_mean           =   3.9091379048103E+00
(PID.TID 0000.0001) %MON dynstat_theta_sd             =   4.5714177145469E+00
(PID.TID 0000.0001) %MON dynstat_theta_del2           =   2.6438524827706E-03
(PID.TID 0000.0001) %MON dynstat_salt_max             =   4.1353304041680E+01
(PID.TID 0000.0001) %MON dynstat_salt_min             =   1.8518804866451E+01
(PID.TID 0000.0001) %MON dynstat_salt_mean            =   3.4771987424505E+01
(PID.TID 0000.0001) %MON dynstat_salt_sd              =   5.3168827867732E-01
(PID.TID 0000.0001) %MON dynstat_salt_del2            =   9.9330939171162E-04
(PID.TID 0000.0001) %MON dynstat_sst_max              =   3.0924570260450E+01
(PID.TID 0000.0001) %MON dynstat_sst_min              =  -1.8972050411911E+00
(PID.TID 0000.0001) %MON dynstat_sst_mean             =   1.8108281455034E+01
(PID.TID 0000.0001) %MON dynstat_sst_sd               =   9.8102678006986E+00
(PID.TID 0000.0001) %MON dynstat_sst_del2             =   1.5065917212394E-02
(PID.TID 0000.0001) %MON dynstat_sss_max              =   4.1353304041680E+01
(PID.TID 0000.0001) %MON dynstat_sss_min              =   1.8751500267045E+01
(PID.TID 0000.0001) %MON dynstat_sss_mean             =   3.4626886938566E+01
(PID.TID 0000.0001) %MON dynstat_sss_sd               =   1.4757807938049E+00
(PID.TID 0000.0001) %MON dynstat_sss_del2             =   1.0871474502771E-02
(PID.TID 0000.0001) %MON forcing_qnet_max             =   2.3881044493140E+03
(PID.TID 0000.0001) %MON forcing_qnet_min             =  -1.7375407714844E+03
(PID.TID 0000.0001) %MON forcing_qnet_mean            =   2.4716647256264E+01
(PID.TID 0000.0001) %MON forcing_qnet_sd              =   2.0833288971714E+02
(PID.TID 0000.0001) %MON forcing_qnet_del2            =   4.5193832491156E+00
(PID.TID 0000.0001) %MON forcing_qsw_max              =   0.0000000000000E+00
(PID.TID 0000.0001) %MON forcing_qsw_min              =  -1.0687146029777E+02
(PID.TID 0000.0001) %MON forcing_qsw_mean             =  -1.2953579647172E+01
(PID.TID 0000.0001) %MON forcing_qsw_sd               =   2.4422456751924E+01
(PID.TID 0000.0001) %MON forcing_qsw_del2             =   1.9196085893586E-01
(PID.TID 0000.0001) %MON forcing_empmr_max            =   7.1796346455812E-03
(PID.TID 0000.0001) %MON forcing_empmr_min            =  -1.0320679843426E-01
(PID.TID 0000.0001) %MON forcing_empmr_mean           =  -3.0686550283664E-04
(PID.TID 0000.0001) %MON forcing_empmr_sd             =   4.5451812573127E-03
(PID.TID 0000.0001) %MON forcing_empmr_del2           =   1.7945763113060E-04
(PID.TID 0000.0001) %MON forcing_fu_max               =   3.7662337798569E-01
(PID.TID 0000.0001) %MON forcing_fu_min               =  -3.6237602600650E-01
(PID.TID 0000.0001) %MON forcing_fu_mean              =  -3.5616121807159E-03
(PID.TID 0000.0001) %MON forcing_fu_sd                =   6.2612785152223E-02
(PID.TID 0000.0001) %MON forcing_fu_del2              =   6.1741860338812E-04
(PID.TID 0000.0001) %MON forcing_fv_max               =   3.3415561559117E-01
(PID.TID 0000.0001) %MON forcing_fv_min               =  -2.8818227412202E-01
(PID.TID 0000.0001) %MON forcing_fv_mean              =  -1.3866914038252E-02
(PID.TID 0000.0001) %MON forcing_fv_sd                =   6.4844950496995E-02
(PID.TID 0000.0001) %MON forcing_fv_del2              =   5.5201178532349E-04
(PID.TID 0000.0001) %MON trAdv_CFL_u_max              =   2.4642469015140E-03
(PID.TID 0000.0001) %MON trAdv_CFL_v_max              =   2.5782487756592E-03
(PID.TID 0000.0001) %MON trAdv_CFL_w_max              =   2.1148619681789E-03
(PID.TID 0000.0001) %MON advcfl_uvel_max              =   2.3910434537529E-03
(PID.TID 0000.0001) %MON advcfl_vvel_max              =   2.5166784175212E-03
(PID.TID 0000.0001) %MON advcfl_wvel_max              =   3.5898016846698E-03
(PID.TID 0000.0001) %MON advcfl_W_hf_max              =   2.4880311705870E-03
(PID.TID 0000.0001) %MON pe_b_mean                    =   5.0884312472534E-04
(PID.TID 0000.0001) %MON ke_max                       =   2.2604932802400E-01
(PID.TID 0000.0001) %MON ke_mean                      =   1.6355802677589E-04
(PID.TID 0000.0001) %MON ke_vol                       =   1.3398113616264E+18
(PID.TID 0000.0001) %MON vort_r_min                   =  -2.5310432616606E-06
(PID.TID 0000.0001) %MON vort_r_max                   =   3.8697019426745E-06
(PID.TID 0000.0001) %MON vort_a_mean                  =  -2.0549865324846E-05
(PID.TID 0000.0001) %MON vort_a_sd                    =   7.5259575231930E-05
(PID.TID 0000.0001) %MON vort_p_mean                  =  -2.4783308014585E-05
(PID.TID 0000.0001) %MON vort_p_sd                    =   1.2811912126253E-04
(PID.TID 0000.0001) %MON surfExpan_theta_mean         =  -6.1275213478187E-06
(PID.TID 0000.0001) %MON surfExpan_salt_mean          =   9.5539930669580E-07
(PID.TID 0000.0001) // =======================================================
(PID.TID 0000.0001) // End MONITOR dynamic field statistics
(PID.TID 0000.0001) // =======================================================
 Computing Diagnostic #     81  oceTAUX      Counter:       1   Parms: UU      U1      
           Vector  Mate for  oceTAUX      Diagnostic #     82  oceTAUY  exists 
 Computing Diagnostic #     82  oceTAUY      Counter:       1   Parms: VV      U1      
           Vector  Mate for  oceTAUY      Diagnostic #     81  oceTAUX  exists 
 Computing Diagnostic #     85  oceFWflx     Counter:       1   Parms: SM      U1      
 Computing Diagnostic #     86  oceSflux     Counter:       1   Parms: SM      U1      
 Computing Diagnostic #     87  oceQnet      Counter:       1   Parms: SM      U1      
 Computing Diagnostic #     88  oceQsw       Counter:       1   Parms: SM      U1      
 Computing Diagnostic #     27  SALT         Counter:       1   Parms: SMR     MR      
 Computing Diagnostic #     26  THETA        Counter:       1   Parms: SMR     MR      
 Computing Diagnostic #     45  UVELMASS     Counter:       1   Parms: UUr     MR      
           Vector  Mate for  UVELMASS     Diagnostic #     46  VVELMASS exists 
 Computing Diagnostic #     46  VVELMASS     Counter:       1   Parms: VVr     MR      
           Vector  Mate for  VVELMASS     Diagnostic #     45  UVELMASS exists 
 cg2d: Sum(rhs),rhsMax =  -3.23006506862310E+01  6.66988950440582E+01
(PID.TID 0000.0001)      cg2d_init_res =   1.78202418516837E-01
(PID.TID 0000.0001)      cg2d_iters(min,last) =      -1      10
(PID.TID 0000.0001)      cg2d_last_res =   5.72684180052601E-08
(PID.TID 0000.0001) // =======================================================
(PID.TID 0000.0001) // Begin MONITOR dynamic field statistics
(PID.TID 0000.0001) // =======================================================
(PID.TID 0000.0001) %MON time_tsnumber                =                 72044
(PID.TID 0000.0001) %MON time_secondsf                =   6.4839600000000E+07
(PID.TID 0000.0001) %MON dynstat_eta_max              =   2.9719338202732E+00
(PID.TID 0000.0001) %MON dynstat_eta_min              =  -1.6073805212645E+00
(PID.TID 0000.0001) %MON dynstat_eta_mean             =   2.5034048177301E-02
(PID.TID 0000.0001) %MON dynstat_eta_sd               =   6.1749975073682E-01
(PID.TID 0000.0001) %MON dynstat_eta_del2             =   2.3285695072596E-03
(PID.TID 0000.0001) %MON dynstat_uvel_max             =   3.6432395588084E-01
(PID.TID 0000.0001) %MON dynstat_uvel_min             =  -6.9562338584052E-01
(PID.TID 0000.0001) %MON dynstat_uvel_mean            =  -5.0997383421042E-04
(PID.TID 0000.0001) %MON dynstat_uvel_sd              =   1.2885275270547E-02
(PID.TID 0000.0001) %MON dynstat_uvel_del2            =   8.6808391904665E-05
(PID.TID 0000.0001) %MON dynstat_vvel_max             =   7.6269684532379E-01
(PID.TID 0000.0001) %MON dynstat_vvel_min             =  -4.1606556236423E-01
(PID.TID 0000.0001) %MON dynstat_vvel_mean            =  -3.1437625301550E-05
(PID.TID 0000.0001) %MON dynstat_vvel_sd              =   1.3654406695188E-02
(PID.TID 0000.0001) %MON dynstat_vvel_del2            =   1.0149504905081E-04
(PID.TID 0000.0001) %MON dynstat_wvel_max             =   1.8741519122786E-04
(PID.TID 0000.0001) %MON dynstat_wvel_min             =  -2.1401533804733E-04
(PID.TID 0000.0001) %MON dynstat_wvel_mean            =  -8.2255845772570E-08
(PID.TID 0000.0001) %MON dynstat_wvel_sd              =   7.9240246452176E-06
(PID.TID 0000.0001) %MON dynstat_wvel_del2            =   7.4796498582994E-08
(PID.TID 0000.0001) %MON dynstat_theta_max            =   3.0924681444210E+01
(PID.TID 0000.0001) %MON dynstat_theta_min            =  -3.0042799266438E+00
(PID.TID 0000.0001) %MON dynstat_theta_mean           =   3.9091380761916E+00
(PID.TID 0000.0001) %MON dynstat_theta_sd             =   4.5714186861090E+00
(PID.TID 0000.0001) %MON dynstat_theta_del2           =   2.6437266825854E-03
(PID.TID 0000.0001) %MON dynstat_salt_max             =   4.1352951452582E+01
(PID.TID 0000.0001) %MON dynstat_salt_min             =   1.8518815357718E+01
(PID.TID 0000.0001) %MON dynstat_salt_mean            =   3.4771984391783E+01
(PID.TID 0000.0001) %MON dynstat_salt_sd              =   5.3170606319571E-01
(PID.TID 0000.0001) %MON dynstat_salt_del2            =   9.9802778010931E-04
(PID.TID 0000.0001) %MON dynstat_sst_max              =   3.0924681444210E+01
(PID.TID 0000.0001) %MON dynstat_sst_min              =  -1.8971288237558E+00
(PID.TID 0000.0001) %MON dynstat_sst_mean             =   1.8108200248865E+01
(PID.TID 0000.0001) %MON dynstat_sst_sd               =   9.8103439888404E+00
(PID.TID 0000.0001) %MON dynstat_sst_del2             =   1.5063576514585E-02
(PID.TID 0000.0001) %MON dynstat_sss_max              =   4.1352951452582E+01
(PID.TID 0000.0001) %MON dynstat_sss_min              =   1.8751520800867E+01
(PID.TID 0000.0001) %MON dynstat_sss_mean             =   3.4626674168416E+01
(PID.TID 0000.0001) %MON dynstat_sss_sd               =   1.4762264759610E+00
(PID.TID 0000.0001) %MON dynstat_sss_del2             =   1.0939459584593E-02
(PID.TID 0000.0001) %MON forcing_qnet_max             =   2.3599614985268E+03
(PID.TID 0000.0001) %MON forcing_qnet_min             =  -1.4736474045520E+03
(PID.TID 0000.0001) %MON forcing_qnet_mean            =   2.5954998580088E+01
(PID.TID 0000.0001) %MON forcing_qnet_sd              =   2.0512104024438E+02
(PID.TID 0000.0001) %MON forcing_qnet_del2            =   4.2697325401315E+00
(PID.TID 0000.0001) %MON forcing_qsw_max              =   0.0000000000000E+00
(PID.TID 0000.0001) %MON forcing_qsw_min              =  -1.0735285048549E+02
(PID.TID 0000.0001) %MON forcing_qsw_mean             =  -1.2858868700100E+01
(PID.TID 0000.0001) %MON forcing_qsw_sd               =   2.4264359506112E+01
(PID.TID 0000.0001) %MON forcing_qsw_del2             =   1.9039258305627E-01
(PID.TID 0000.0001) %MON forcing_empmr_max            =   7.1056350134313E-03
(PID.TID 0000.0001) %MON forcing_empmr_min            =  -1.0214367508888E-01
(PID.TID 0000.0001) %MON forcing_empmr_mean           =  -3.0400755562775E-04
(PID.TID 0000.0001) %MON forcing_empmr_sd             =   4.4983762664715E-03
(PID.TID 0000.0001) %MON forcing_empmr_del2           =   1.7759891628645E-04
(PID.TID 0000.0001) %MON forcing_fu_max               =   3.7179804510103E-01
(PID.TID 0000.0001) %MON forcing_fu_min               =  -3.6283716044515E-01
(PID.TID 0000.0001) %MON forcing_fu_mean              =  -3.6025004070064E-03
(PID.TID 0000.0001) %MON forcing_fu_sd                =   6.2280219140284E-02
(PID.TID 0000.0001) %MON forcing_fu_del2              =   6.1533334181435E-04
(PID.TID 0000.0001) %MON forcing_fv_max               =   3.2128479778397E-01
(PID.TID 0000.0001) %MON forcing_fv_min               =  -2.8898977660194E-01
(PID.TID 0000.0001) %MON forcing_fv_mean              =  -1.4078946365538E-02
(PID.TID 0000.0001) %MON forcing_fv_sd                =   6.4562798087519E-02
(PID.TID 0000.0001) %MON forcing_fv_del2              =   5.4954907674948E-04
(PID.TID 0000.0001) %MON trAdv_CFL_u_max              =   2.1746549066778E-03
(PID.TID 0000.0001) %MON trAdv_CFL_v_max              =   2.3066495264943E-03
(PID.TID 0000.0001) %MON trAdv_CFL_w_max              =   2.1171841169108E-03
(PID.TID 0000.0001) %MON advcfl_uvel_max              =   2.1053870688735E-03
(PID.TID 0000.0001) %MON advcfl_vvel_max              =   2.2856265750340E-03
(PID.TID 0000.0001) %MON advcfl_wvel_max              =   3.5528234813524E-03
(PID.TID 0000.0001) %MON advcfl_W_hf_max              =   2.4096884017202E-03
(PID.TID 0000.0001) %MON pe_b_mean                    =   5.0880144086807E-04
(PID.TID 0000.0001) %MON ke_max                       =   1.8248160378558E-01
(PID.TID 0000.0001) %MON ke_mean                      =   1.6289347179156E-04
(PID.TID 0000.0001) %MON ke_vol                       =   1.3398114587258E+18
(PID.TID 0000.0001) %MON vort_r_min                   =  -2.6115100803011E-06
(PID.TID 0000.0001) %MON vort_r_max                   =   3.6500342286851E-06
(PID.TID 0000.0001) %MON vort_a_mean                  =  -2.0549865324846E-05
(PID.TID 0000.0001) %MON vort_a_sd                    =   7.5259587021904E-05
(PID.TID 0000.0001) %MON vort_p_mean                  =  -2.4783306407773E-05
(PID.TID 0000.0001) %MON vort_p_sd                    =   1.2811911130413E-04
(PID.TID 0000.0001) %MON surfExpan_theta_mean         =  -6.1100151532196E-06
(PID.TID 0000.0001) %MON surfExpan_salt_mean          =   9.7880926810800E-07
(PID.TID 0000.0001) // =======================================================
(PID.TID 0000.0001) // End MONITOR dynamic field statistics
(PID.TID 0000.0001) // =======================================================
 cg2d: Sum(rhs),rhsMax =  -3.21445001595270E+01  6.77241097860157E+01
(PID.TID 0000.0001)      cg2d_init_res =   1.65105465819589E-01
(PID.TID 0000.0001)      cg2d_iters(min,last) =      -1      10
(PID.TID 0000.0001)      cg2d_last_res =   6.89418822884204E-08
(PID.TID 0000.0001) // =======================================================
(PID.TID 0000.0001) // Begin MONITOR dynamic field statistics
(PID.TID 0000.0001) // =======================================================
(PID.TID 0000.0001) %MON time_tsnumber                =                 72045
(PID.TID 0000.0001) %MON time_secondsf                =   6.4840500000000E+07
(PID.TID 0000.0001) %MON dynstat_eta_max              =   3.0172493832582E+00
(PID.TID 0000.0001) %MON dynstat_eta_min              =  -1.6065009037359E+00
(PID.TID 0000.0001) %MON dynstat_eta_mean             =   2.5295959383121E-02
(PID.TID 0000.0001) %MON dynstat_eta_sd               =   6.1744248031370E-01
(PID.TID 0000.0001) %MON dynstat_eta_del2             =   2.3895959399847E-03
(PID.TID 0000.0001) %MON dynstat_uvel_max             =   3.6191615245233E-01
(PID.TID 0000.0001) %MON dynstat_uvel_min             =  -6.3301184809702E-01
(PID.TID 0000.0001) %MON dynstat_uvel_mean            =  -5.2004031335660E-04
(PID.TID 0000.0001) %MON dynstat_uvel_sd              =   1.2842072174734E-02
(PID.TID 0000.0001) %MON dynstat_uvel_del2            =   8.7112506772597E-05
(PID.TID 0000.0001) %MON dynstat_vvel_max             =   6.8107091108886E-01
(PID.TID 0000.0001) %MON dynstat_vvel_min             =  -4.0295823267684E-01
(PID.TID 0000.0001) %MON dynstat_vvel_mean            =   1.9353732418508E-05
(PID.TID 0000.0001) %MON dynstat_vvel_sd              =   1.3649555858578E-02
(PID.TID 0000.0001) %MON dynstat_vvel_del2            =   9.7543975356371E-05
(PID.TID 0000.0001) %MON dynstat_wvel_max             =   1.8123044807001E-04
(PID.TID 0000.0001) %MON dynstat_wvel_min             =  -2.1455680685468E-04
(PID.TID 0000.0001) %MON dynstat_wvel_mean            =  -1.0549363506189E-07
(PID.TID 0000.0001) %MON dynstat_wvel_sd              =   7.8963626612798E-06
(PID.TID 0000.0001) %MON dynstat_wvel_del2            =   7.5025771605001E-08
(PID.TID 0000.0001) %MON dynstat_theta_max            =   3.0924765088356E+01
(PID.TID 0000.0001) %MON dynstat_theta_min            =  -3.0042222604678E+00
(PID.TID 0000.0001) %MON dynstat_theta_mean           =   3.9091383023127E+00
(PID.TID 0000.0001) %MON dynstat_theta_sd             =   4.5714197212187E+00
(PID.TID 0000.0001) %MON dynstat_theta_del2           =   2.6435991263282E-03
(PID.TID 0000.0001) %MON dynstat_salt_max             =   4.1352596634293E+01
(PID.TID 0000.0001) %MON dynstat_salt_min             =   1.8518825830300E+01
(PID.TID 0000.0001) %MON dynstat_salt_mean            =   3.4771981413514E+01
(PID.TID 0000.0001) %MON dynstat_salt_sd              =   5.3172366288573E-01
(PID.TID 0000.0001) %MON dynstat_salt_del2            =   1.0026786858118E-03
(PID.TID 0000.0001) %MON dynstat_sst_max              =   3.0924765088356E+01
(PID.TID 0000.0001) %MON dynstat_sst_min              =  -1.8970651351760E+00
(PID.TID 0000.0001) %MON dynstat_sst_mean             =   1.8108121140588E+01
(PID.TID 0000.0001) %MON dynstat_sst_sd               =   9.8104174528743E+00
(PID.TID 0000.0001) %MON dynstat_sst_del2             =   1.5061174559338E-02
(PID.TID 0000.0001) %MON dynstat_sss_max              =   4.1352596634293E+01
(PID.TID 0000.0001) %MON dynstat_sss_min              =   1.8751544110732E+01
(PID.TID 0000.0001) %MON dynstat_sss_mean             =   3.4626464879372E+01
(PID.TID 0000.0001) %MON dynstat_sss_sd               =   1.4766672420614E+00
(PID.TID 0000.0001) %MON dynstat_sss_del2             =   1.1006368300570E-02
(PID.TID 0000.0001) %MON forcing_qnet_max             =   2.3300994783629E+03
(PID.TID 0000.0001) %MON forcing_qnet_min             =  -1.4524734587509E+03
(PID.TID 0000.0001) %MON forcing_qnet_mean            =   2.4924514669986E+01
(PID.TID 0000.0001) %MON forcing_qnet_sd              =   2.0466205512132E+02
(PID.TID 0000.0001) %MON forcing_qnet_del2            =   4.3493927502532E+00
(PID.TID 0000.0001) %MON forcing_qsw_max              =   0.0000000000000E+00
(PID.TID 0000.0001) %MON forcing_qsw_min              =  -1.0907844840158E+02
(PID.TID 0000.0001) %MON forcing_qsw_mean             =  -1.2832096701498E+01
(PID.TID 0000.0001) %MON forcing_qsw_sd               =   2.4029324253279E+01
(PID.TID 0000.0001) %MON forcing_qsw_del2             =   1.8790045566998E-01
(PID.TID 0000.0001) %MON forcing_empmr_max            =   7.0324228145182E-03
(PID.TID 0000.0001) %MON forcing_empmr_min            =  -1.0109146684408E-01
(PID.TID 0000.0001) %MON forcing_empmr_mean           =  -3.0119788669224E-04
(PID.TID 0000.0001) %MON forcing_empmr_sd             =   4.4520070385574E-03
(PID.TID 0000.0001) %MON forcing_empmr_del2           =   1.7575352652441E-04
(PID.TID 0000.0001) %MON forcing_fu_max               =   3.7217057201825E-01
(PID.TID 0000.0001) %MON forcing_fu_min               =  -3.6422806094575E-01
(PID.TID 0000.0001) %MON forcing_fu_mean              =  -3.6373346364994E-03
(PID.TID 0000.0001) %MON forcing_fu_sd                =   6.2066757721906E-02
(PID.TID 0000.0001) %MON forcing_fu_del2              =   6.1436699129147E-04
(PID.TID 0000.0001) %MON forcing_fv_max               =   3.1565128589072E-01
(PID.TID 0000.0001) %MON forcing_fv_min               =  -2.9014139238480E-01
(PID.TID 0000.0001) %MON forcing_fv_mean              =  -1.4260182144728E-02
(PID.TID 0000.0001) %MON forcing_fv_sd                =   6.4306393202965E-02
(PID.TID 0000.0001) %MON forcing_fv_del2              =   5.4766583121208E-04
(PID.TID 0000.0001) %MON trAdv_CFL_u_max              =   1.9161795649393E-03
(PID.TID 0000.0001) %MON trAdv_CFL_v_max              =   2.0656160074819E-03
(PID.TID 0000.0001) %MON trAdv_CFL_w_max              =   2.1007517389648E-03
(PID.TID 0000.0001) %MON advcfl_uvel_max              =   1.8631039231220E-03
(PID.TID 0000.0001) %MON advcfl_vvel_max              =   2.0410124722706E-03
(PID.TID 0000.0001) %MON advcfl_wvel_max              =   3.5162249337072E-03
(PID.TID 0000.0001) %MON advcfl_W_hf_max              =   2.3301560848892E-03
(PID.TID 0000.0001) %MON pe_b_mean                    =   5.0872474605484E-04
(PID.TID 0000.0001) %MON ke_max                       =   1.4161723024433E-01
(PID.TID 0000.0001) %MON ke_mean                      =   1.6232587760730E-04
(PID.TID 0000.0001) %MON ke_vol                       =   1.3398115549209E+18
(PID.TID 0000.0001) %MON vort_r_min                   =  -2.6869025982930E-06
(PID.TID 0000.0001) %MON vort_r_max                   =   3.3558092339354E-06
(PID.TID 0000.0001) %MON vort_a_mean                  =  -2.0549865324846E-05
(PID.TID 0000.0001) %MON vort_a_sd                    =   7.5259598995569E-05
(PID.TID 0000.0001) %MON vort_p_mean                  =  -2.4783304781379E-05
(PID.TID 0000.0001) %MON vort_p_sd                    =   1.2811909788294E-04
(PID.TID 0000.0001) %MON surfExpan_theta_mean         =  -6.1259519870269E-06
(PID.TID 0000.0001) %MON surfExpan_salt_mean          =   1.0064863550497E-06
(PID.TID 0000.0001) // =======================================================
(PID.TID 0000.0001) // End MONITOR dynamic field statistics
(PID.TID 0000.0001) // =======================================================
 cg2d: Sum(rhs),rhsMax =  -3.21519286386781E+01  6.84041336202302E+01
(PID.TID 0000.0001)      cg2d_init_res =   1.53872923864270E-01
(PID.TID 0000.0001)      cg2d_iters(min,last) =      -1      10
(PID.TID 0000.0001)      cg2d_last_res =   7.35905593066049E-08
(PID.TID 0000.0001) // =======================================================
(PID.TID 0000.0001) // Begin MONITOR dynamic field statistics
(PID.TID 0000.0001) // =======================================================
(PID.TID 0000.0001) %MON time_tsnumber                =                 72046
(PID.TID 0000.0001) %MON time_secondsf                =   6.4841400000000E+07
(PID.TID 0000.0001) %MON dynstat_eta_max              =   3.0472426685178E+00
(PID.TID 0000.0001) %MON dynstat_eta_min              =  -1.6053459032317E+00
(PID.TID 0000.0001) %MON dynstat_eta_mean             =   2.5555862874352E-02
(PID.TID 0000.0001) %MON dynstat_eta_sd               =   6.1734747385784E-01
(PID.TID 0000.0001) %MON dynstat_eta_del2             =   2.4375282998441E-03
(PID.TID 0000.0001) %MON dynstat_uvel_max             =   3.5774213406155E-01
(PID.TID 0000.0001) %MON dynstat_uvel_min             =  -5.6554845365619E-01
(PID.TID 0000.0001) %MON dynstat_uvel_mean            =  -5.2680540158531E-04
(PID.TID 0000.0001) %MON dynstat_uvel_sd              =   1.2799752560763E-02
(PID.TID 0000.0001) %MON dynstat_uvel_del2            =   8.7572761981426E-05
(PID.TID 0000.0001) %MON dynstat_vvel_max             =   5.9636982027614E-01
(PID.TID 0000.0001) %MON dynstat_vvel_min             =  -3.9805302711999E-01
(PID.TID 0000.0001) %MON dynstat_vvel_mean            =   7.0009720086762E-05
(PID.TID 0000.0001) %MON dynstat_vvel_sd              =   1.3653624265755E-02
(PID.TID 0000.0001) %MON dynstat_vvel_del2            =   9.3926696128931E-05
(PID.TID 0000.0001) %MON dynstat_wvel_max             =   1.7517665401383E-04
(PID.TID 0000.0001) %MON dynstat_wvel_min             =  -2.1355240570587E-04
(PID.TID 0000.0001) %MON dynstat_wvel_mean            =  -1.3080657500296E-07
(PID.TID 0000.0001) %MON dynstat_wvel_sd              =   7.8785114342952E-06
(PID.TID 0000.0001) %MON dynstat_wvel_del2            =   7.5310384469890E-08
(PID.TID 0000.0001) %MON dynstat_theta_max            =   3.0924839306141E+01
(PID.TID 0000.0001) %MON dynstat_theta_min            =  -3.0041969945844E+00
(PID.TID 0000.0001) %MON dynstat_theta_mean           =   3.9091385611889E+00
(PID.TID 0000.0001) %MON dynstat_theta_sd             =   4.5714208000645E+00
(PID.TID 0000.0001) %MON dynstat_theta_del2           =   2.6434639646221E-03
(PID.TID 0000.0001) %MON dynstat_salt_max             =   4.1352241372514E+01
(PID.TID 0000.0001) %MON dynstat_salt_min             =   1.8518836281890E+01
(PID.TID 0000.0001) %MON dynstat_salt_mean            =   3.4771978488679E+01
(PID.TID 0000.0001) %MON dynstat_salt_sd              =   5.3174106449921E-01
(PID.TID 0000.0001) %MON dynstat_salt_del2            =   1.0072606364460E-03
(PID.TID 0000.0001) %MON dynstat_sst_max              =   3.0924839306141E+01
(PID.TID 0000.0001) %MON dynstat_sst_min              =  -1.8970163020397E+00
(PID.TID 0000.0001) %MON dynstat_sst_mean             =   1.8108046266899E+01
(PID.TID 0000.0001) %MON dynstat_sst_sd               =   9.8104904776032E+00
(PID.TID 0000.0001) %MON dynstat_sst_del2             =   1.5058624135150E-02
(PID.TID 0000.0001) %MON dynstat_sss_max              =   4.1352241372514E+01
(PID.TID 0000.0001) %MON dynstat_sss_min              =   1.8751570541791E+01
(PID.TID 0000.0001) %MON dynstat_sss_mean             =   3.4626260214764E+01
(PID.TID 0000.0001) %MON dynstat_sss_sd               =   1.4771039304255E+00
(PID.TID 0000.0001) %MON dynstat_sss_del2             =   1.1072192623880E-02
(PID.TID 0000.0001) %MON forcing_qnet_max             =   2.6339320014067E+03
(PID.TID 0000.0001) %MON forcing_qnet_min             =  -2.2929743652344E+03
(PID.TID 0000.0001) %MON forcing_qnet_mean            =   2.4336816373303E+01
(PID.TID 0000.0001) %MON forcing_qnet_sd              =   2.0934283938915E+02
(PID.TID 0000.0001) %MON forcing_qnet_del2            =   4.8254473678270E+00
(PID.TID 0000.0001) %MON forcing_qsw_max              =   0.0000000000000E+00
(PID.TID 0000.0001) %MON forcing_qsw_min              =  -1.0958160352001E+02
(PID.TID 0000.0001) %MON forcing_qsw_mean             =  -1.2868971682119E+01
(PID.TID 0000.0001) %MON forcing_qsw_sd               =   2.3885719166149E+01
(PID.TID 0000.0001) %MON forcing_qsw_del2             =   1.8798527175351E-01
(PID.TID 0000.0001) %MON forcing_empmr_max            =   6.9598988629878E-03
(PID.TID 0000.0001) %MON forcing_empmr_min            =  -1.0005015134811E-01
(PID.TID 0000.0001) %MON forcing_empmr_mean           =  -2.9888901491587E-04
(PID.TID 0000.0001) %MON forcing_empmr_sd             =   4.4060316219113E-03
(PID.TID 0000.0001) %MON forcing_empmr_del2           =   1.7390541496082E-04
(PID.TID 0000.0001) %MON forcing_fu_max               =   3.7391673156328E-01
(PID.TID 0000.0001) %MON forcing_fu_min               =  -3.6493320065721E-01
(PID.TID 0000.0001) %MON forcing_fu_mean              =  -3.6240816711507E-03
(PID.TID 0000.0001) %MON forcing_fu_sd                =   6.1934389761646E-02
(PID.TID 0000.0001) %MON forcing_fu_del2              =   6.1395436511647E-04
(PID.TID 0000.0001) %MON forcing_fv_max               =   3.1376028521134E-01
(PID.TID 0000.0001) %MON forcing_fv_min               =  -2.9095807243251E-01
(PID.TID 0000.0001) %MON forcing_fv_mean              =  -1.4411764952729E-02
(PID.TID 0000.0001) %MON forcing_fv_sd                =   6.4088556994080E-02
(PID.TID 0000.0001) %MON forcing_fv_del2              =   5.4622068362835E-04
(PID.TID 0000.0001) %MON trAdv_CFL_u_max              =   1.7148369156404E-03
(PID.TID 0000.0001) %MON trAdv_CFL_v_max              =   1.8717977387226E-03
(PID.TID 0000.0001) %MON trAdv_CFL_w_max              =   2.0649932108375E-03
(PID.TID 0000.0001) %MON advcfl_uvel_max              =   1.6645431612220E-03
(PID.TID 0000.0001) %MON advcfl_vvel_max              =   1.7871828343445E-03
(PID.TID 0000.0001) %MON advcfl_wvel_max              =   3.4800052642822E-03
(PID.TID 0000.0001) %MON advcfl_W_hf_max              =   2.2523097033763E-03
(PID.TID 0000.0001) %MON pe_b_mean                    =   5.0858603511048E-04
(PID.TID 0000.0001) %MON ke_max                       =   1.2586304986887E-01
(PID.TID 0000.0001) %MON ke_mean                      =   1.6188426025847E-04
(PID.TID 0000.0001) %MON ke_vol                       =   1.3398116502269E+18
(PID.TID 0000.0001) %MON vort_r_min                   =  -2.7540502959777E-06
(PID.TID 0000.0001) %MON vort_r_max                   =   2.9958042074511E-06
(PID.TID 0000.0001) %MON vort_a_mean                  =  -2.0549865324846E-05
(PID.TID 0000.0001) %MON vort_a_sd                    =   7.5259611000975E-05
(PID.TID 0000.0001) %MON vort_p_mean                  =  -2.4783303126196E-05
(PID.TID 0000.0001) %MON vort_p_sd                    =   1.2811908186359E-04
(PID.TID 0000.0001) %MON surfExpan_theta_mean         =  -6.1803452390546E-06
(PID.TID 0000.0001) %MON surfExpan_salt_mean          =   1.0361295172123E-06
(PID.TID 0000.0001) // =======================================================
(PID.TID 0000.0001) // End MONITOR dynamic field statistics
(PID.TID 0000.0001) // =======================================================
 cg2d: Sum(rhs),rhsMax =  -3.23232350802099E+01  6.87264100936552E+01
(PID.TID 0000.0001)      cg2d_init_res =   1.44937025042238E-01
(PID.TID 0000.0001)      cg2d_iters(min,last) =      -1      10
(PID.TID 0000.0001)      cg2d_last_res =   7.54827766184039E-08
(PID.TID 0000.0001) // =======================================================
(PID.TID 0000.0001) // Begin MONITOR dynamic field statistics
(PID.TID 0000.0001) // =======================================================
(PID.TID 0000.0001) %MON time_tsnumber                =                 72047
(PID.TID 0000.0001) %MON time_secondsf                =   6.4842300000000E+07
(PID.TID 0000.0001) %MON dynstat_eta_max              =   3.0669385034745E+00
(PID.TID 0000.0001) %MON dynstat_eta_min              =  -1.6039336710697E+00
(PID.TID 0000.0001) %MON dynstat_eta_mean             =   2.5813069649990E-02
(PID.TID 0000.0001) %MON dynstat_eta_sd               =   6.1719990414811E-01
(PID.TID 0000.0001) %MON dynstat_eta_del2             =   2.4688117284582E-03
(PID.TID 0000.0001) %MON dynstat_uvel_max             =   3.5182268762507E-01
(PID.TID 0000.0001) %MON dynstat_uvel_min             =  -5.6550612028204E-01
(PID.TID 0000.0001) %MON dynstat_uvel_mean            =  -5.3028866059584E-04
(PID.TID 0000.0001) %MON dynstat_uvel_sd              =   1.2760947407453E-02
(PID.TID 0000.0001) %MON dynstat_uvel_del2            =   8.8194012037301E-05
(PID.TID 0000.0001) %MON dynstat_vvel_max             =   5.1000816168877E-01
(PID.TID 0000.0001) %MON dynstat_vvel_min             =  -4.0007304894618E-01
(PID.TID 0000.0001) %MON dynstat_vvel_mean            =   1.1988731614920E-04
(PID.TID 0000.0001) %MON dynstat_vvel_sd              =   1.3665968440155E-02
(PID.TID 0000.0001) %MON dynstat_vvel_del2            =   9.0825592432481E-05
(PID.TID 0000.0001) %MON dynstat_wvel_max             =   1.6954144133310E-04
(PID.TID 0000.0001) %MON dynstat_wvel_min             =  -2.1090824722152E-04
(PID.TID 0000.0001) %MON dynstat_wvel_mean            =  -1.5671145470944E-07
(PID.TID 0000.0001) %MON dynstat_wvel_sd              =   7.8720477487309E-06
(PID.TID 0000.0001) %MON dynstat_wvel_del2            =   7.5656073501683E-08
(PID.TID 0000.0001) %MON dynstat_theta_max            =   3.0924901372837E+01
(PID.TID 0000.0001) %MON dynstat_theta_min            =  -3.0042073330513E+00
(PID.TID 0000.0001) %MON dynstat_theta_mean           =   3.9091390472752E+00
(PID.TID 0000.0001) %MON dynstat_theta_sd             =   4.5714224581353E+00
(PID.TID 0000.0001) %MON dynstat_theta_del2           =   2.6433092489492E-03
(PID.TID 0000.0001) %MON dynstat_salt_max             =   4.1351887627800E+01
(PID.TID 0000.0001) %MON dynstat_salt_min             =   1.8518846711432E+01
(PID.TID 0000.0001) %MON dynstat_salt_mean            =   3.4771975689516E+01
(PID.TID 0000.0001) %MON dynstat_salt_sd              =   5.3175826206592E-01
(PID.TID 0000.0001) %MON dynstat_salt_del2            =   1.0117756866466E-03
(PID.TID 0000.0001) %MON dynstat_sst_max              =   3.0924901372837E+01
(PID.TID 0000.0001) %MON dynstat_sst_min              =  -1.8969822000496E+00
(PID.TID 0000.0001) %MON dynstat_sst_mean             =   1.8107992383953E+01
(PID.TID 0000.0001) %MON dynstat_sst_sd               =   9.8105603232902E+00
(PID.TID 0000.0001) %MON dynstat_sst_del2             =   1.5055564297691E-02
(PID.TID 0000.0001) %MON dynstat_sss_max              =   4.1351887627800E+01
(PID.TID 0000.0001) %MON dynstat_sss_min              =   1.8751600193559E+01
(PID.TID 0000.0001) %MON dynstat_sss_mean             =   3.4626065940090E+01
(PID.TID 0000.0001) %MON dynstat_sss_sd               =   1.4775364618302E+00
(PID.TID 0000.0001) %MON dynstat_sss_del2             =   1.1136980889123E-02
(PID.TID 0000.0001) %MON forcing_qnet_max             =   4.0185045301630E+03
(PID.TID 0000.0001) %MON forcing_qnet_min             =  -1.8391833984375E+04
(PID.TID 0000.0001) %MON forcing_qnet_mean            =   2.0311966237054E+01
(PID.TID 0000.0001) %MON forcing_qnet_sd              =   3.5558372772335E+02
(PID.TID 0000.0001) %MON forcing_qnet_del2            =   1.2161278280259E+01
(PID.TID 0000.0001) %MON forcing_qsw_max              =   0.0000000000000E+00
(PID.TID 0000.0001) %MON forcing_qsw_min              =  -1.0963064535892E+02
(PID.TID 0000.0001) %MON forcing_qsw_mean             =  -1.2885167879658E+01
(PID.TID 0000.0001) %MON forcing_qsw_sd               =   2.3700509353332E+01
(PID.TID 0000.0001) %MON forcing_qsw_del2             =   1.8783387342894E-01
(PID.TID 0000.0001) %MON forcing_empmr_max            =   6.8881628103554E-03
(PID.TID 0000.0001) %MON forcing_empmr_min            =  -9.9018916487694E-02
(PID.TID 0000.0001) %MON forcing_empmr_mean           =  -2.9578779198456E-04
(PID.TID 0000.0001) %MON forcing_empmr_sd             =   4.3611834543727E-03
(PID.TID 0000.0001) %MON forcing_empmr_del2           =   1.7209994218289E-04
(PID.TID 0000.0001) %MON forcing_fu_max               =   3.7823086551552E-01
(PID.TID 0000.0001) %MON forcing_fu_min               =  -3.6478861262555E-01
(PID.TID 0000.0001) %MON forcing_fu_mean              =  -3.5544975050821E-03
(PID.TID 0000.0001) %MON forcing_fu_sd                =   6.2004660726811E-02
(PID.TID 0000.0001) %MON forcing_fu_del2              =   6.1533854561389E-04
(PID.TID 0000.0001) %MON forcing_fv_max               =   3.1714660370662E-01
(PID.TID 0000.0001) %MON forcing_fv_min               =  -2.9128324574878E-01
(PID.TID 0000.0001) %MON forcing_fv_mean              =  -1.4516407786285E-02
(PID.TID 0000.0001) %MON forcing_fv_sd                =   6.3932949868632E-02
(PID.TID 0000.0001) %MON forcing_fv_del2              =   5.4523185443931E-04
(PID.TID 0000.0001) %MON trAdv_CFL_u_max              =   1.6054109921934E-03
(PID.TID 0000.0001) %MON trAdv_CFL_v_max              =   1.7707255964436E-03
(PID.TID 0000.0001) %MON trAdv_CFL_w_max              =   2.0095926589169E-03
(PID.TID 0000.0001) %MON advcfl_uvel_max              =   1.6086941791095E-03
(PID.TID 0000.0001) %MON advcfl_vvel_max              =   1.5283768577084E-03
(PID.TID 0000.0001) %MON advcfl_wvel_max              =   3.4441362256589E-03
(PID.TID 0000.0001) %MON advcfl_W_hf_max              =   2.1783830930097E-03
(PID.TID 0000.0001) %MON pe_b_mean                    =   5.0836090235913E-04
(PID.TID 0000.0001) %MON ke_max                       =   1.3725251621161E-01
(PID.TID 0000.0001) %MON ke_mean                      =   1.6159115872429E-04
(PID.TID 0000.0001) %MON ke_vol                       =   1.3398117448023E+18
(PID.TID 0000.0001) %MON vort_r_min                   =  -2.8799598027711E-06
(PID.TID 0000.0001) %MON vort_r_max                   =   2.5798059513985E-06
(PID.TID 0000.0001) %MON vort_a_mean                  =  -2.0549865324846E-05
(PID.TID 0000.0001) %MON vort_a_sd                    =   7.5259622898788E-05
(PID.TID 0000.0001) %MON vort_p_mean                  =  -2.4783301431003E-05
(PID.TID 0000.0001) %MON vort_p_sd                    =   1.2811906417949E-04
(PID.TID 0000.0001) %MON surfExpan_theta_mean         =  -6.2427383575778E-06
(PID.TID 0000.0001) %MON surfExpan_salt_mean          =   1.0674667291682E-06
(PID.TID 0000.0001) // =======================================================
(PID.TID 0000.0001) // End MONITOR dynamic field statistics
(PID.TID 0000.0001) // =======================================================
 Computing Diagnostic #     81  oceTAUX      Counter:       1   Parms: UU      U1      
           Vector  Mate for  oceTAUX      Diagnostic #     82  oceTAUY  exists 
 Computing Diagnostic #     82  oceTAUY      Counter:       1   Parms: VV      U1      
           Vector  Mate for  oceTAUY      Diagnostic #     81  oceTAUX  exists 
 Computing Diagnostic #     85  oceFWflx     Counter:       1   Parms: SM      U1      
 Computing Diagnostic #     86  oceSflux     Counter:       1   Parms: SM      U1      
 Computing Diagnostic #     87  oceQnet      Counter:       1   Parms: SM      U1      
 Computing Diagnostic #     88  oceQsw       Counter:       1   Parms: SM      U1      
 Computing Diagnostic #     27  SALT         Counter:       1   Parms: SMR     MR      
 Computing Diagnostic #     26  THETA        Counter:       1   Parms: SMR     MR      
 Computing Diagnostic #     45  UVELMASS     Counter:       1   Parms: UUr     MR      
           Vector  Mate for  UVELMASS     Diagnostic #     46  VVELMASS exists 
 Computing Diagnostic #     46  VVELMASS     Counter:       1   Parms: VVr     MR      
           Vector  Mate for  VVELMASS     Diagnostic #     45  UVELMASS exists 
 cg2d: Sum(rhs),rhsMax =  -3.26632238342262E+01  6.86824980017595E+01
(PID.TID 0000.0001)      cg2d_init_res =   1.38760365240743E-01
(PID.TID 0000.0001)      cg2d_iters(min,last) =      -1      10
(PID.TID 0000.0001)      cg2d_last_res =   7.62624626815819E-08
(PID.TID 0000.0001) // =======================================================
(PID.TID 0000.0001) // Begin MONITOR dynamic field statistics
(PID.TID 0000.0001) // =======================================================
(PID.TID 0000.0001) %MON time_tsnumber                =                 72048
(PID.TID 0000.0001) %MON time_secondsf                =   6.4843200000000E+07
(PID.TID 0000.0001) %MON dynstat_eta_max              =   3.1036068568423E+00
(PID.TID 0000.0001) %MON dynstat_eta_min              =  -1.6023082852646E+00
(PID.TID 0000.0001) %MON dynstat_eta_mean             =   2.6067915374555E-02
(PID.TID 0000.0001) %MON dynstat_eta_sd               =   6.1698934589043E-01
(PID.TID 0000.0001) %MON dynstat_eta_del2             =   2.4810715212321E-03
(PID.TID 0000.0001) %MON dynstat_uvel_max             =   3.4419305781287E-01
(PID.TID 0000.0001) %MON dynstat_uvel_min             =  -5.6707726685157E-01
(PID.TID 0000.0001) %MON dynstat_uvel_mean            =  -5.3056729119821E-04
(PID.TID 0000.0001) %MON dynstat_uvel_sd              =   1.2727976026975E-02
(PID.TID 0000.0001) %MON dynstat_uvel_del2            =   8.8966054683558E-05
(PID.TID 0000.0001) %MON dynstat_vvel_max             =   4.2334321184274E-01
(PID.TID 0000.0001) %MON dynstat_vvel_min             =  -4.3180754635179E-01
(PID.TID 0000.0001) %MON dynstat_vvel_mean            =   1.6838430112437E-04
(PID.TID 0000.0001) %MON dynstat_vvel_sd              =   1.3685491234353E-02
(PID.TID 0000.0001) %MON dynstat_vvel_del2            =   8.8401975388185E-05
(PID.TID 0000.0001) %MON dynstat_wvel_max             =   1.6410034791792E-04
(PID.TID 0000.0001) %MON dynstat_wvel_min             =  -2.0656007547545E-04
(PID.TID 0000.0001) %MON dynstat_wvel_mean            =  -1.8274978412645E-07
(PID.TID 0000.0001) %MON dynstat_wvel_sd              =   7.8772202538073E-06
(PID.TID 0000.0001) %MON dynstat_wvel_del2            =   7.6053104597743E-08
(PID.TID 0000.0001) %MON dynstat_theta_max            =   3.0924950950331E+01
(PID.TID 0000.0001) %MON dynstat_theta_min            =  -3.0042551272949E+00
(PID.TID 0000.0001) %MON dynstat_theta_mean           =   3.9091392065339E+00
(PID.TID 0000.0001) %MON dynstat_theta_sd             =   4.5714232135137E+00
(PID.TID 0000.0001) %MON dynstat_theta_del2           =   2.6431831405408E-03
(PID.TID 0000.0001) %MON dynstat_salt_max             =   4.1351537369984E+01
(PID.TID 0000.0001) %MON dynstat_salt_min             =   1.8518857118917E+01
(PID.TID 0000.0001) %MON dynstat_salt_mean            =   3.4771972846440E+01
(PID.TID 0000.0001) %MON dynstat_salt_sd              =   5.3177525652244E-01
(PID.TID 0000.0001) %MON dynstat_salt_del2            =   1.0162192983668E-03
(PID.TID 0000.0001) %MON dynstat_sst_max              =   3.0924950950331E+01
(PID.TID 0000.0001) %MON dynstat_sst_min              =  -1.8969636005308E+00
(PID.TID 0000.0001) %MON dynstat_sst_mean             =   1.8107910875091E+01
(PID.TID 0000.0001) %MON dynstat_sst_sd               =   9.8106342767294E+00
(PID.TID 0000.0001) %MON dynstat_sst_del2             =   1.5053251606410E-02
(PID.TID 0000.0001) %MON dynstat_sss_max              =   4.1351537369984E+01
(PID.TID 0000.0001) %MON dynstat_sss_min              =   1.8751633342312E+01
(PID.TID 0000.0001) %MON dynstat_sss_mean             =   3.4625866888466E+01
(PID.TID 0000.0001) %MON dynstat_sss_sd               =   1.4779629709488E+00
(PID.TID 0000.0001) %MON dynstat_sss_del2             =   1.1200642841601E-02
(PID.TID 0000.0001) %MON forcing_qnet_max             =   6.5864546251441E+03
(PID.TID 0000.0001) %MON forcing_qnet_min             =  -1.3928404328078E+03
(PID.TID 0000.0001) %MON forcing_qnet_mean            =   2.5621774106478E+01
(PID.TID 0000.0001) %MON forcing_qnet_sd              =   2.2671141628560E+02
(PID.TID 0000.0001) %MON forcing_qnet_del2            =   6.5504739931695E+00
(PID.TID 0000.0001) %MON forcing_qsw_max              =   0.0000000000000E+00
(PID.TID 0000.0001) %MON forcing_qsw_min              =  -1.0922526009786E+02
(PID.TID 0000.0001) %MON forcing_qsw_mean             =  -1.2877268833824E+01
(PID.TID 0000.0001) %MON forcing_qsw_sd               =   2.3478307158081E+01
(PID.TID 0000.0001) %MON forcing_qsw_del2             =   1.8744421779071E-01
(PID.TID 0000.0001) %MON forcing_empmr_max            =   6.8172137252986E-03
(PID.TID 0000.0001) %MON forcing_empmr_min            =  -9.7999431192875E-02
(PID.TID 0000.0001) %MON forcing_empmr_mean           =  -2.9307258324916E-04
(PID.TID 0000.0001) %MON forcing_empmr_sd             =   4.3170967153877E-03
(PID.TID 0000.0001) %MON forcing_empmr_del2           =   1.7033800720567E-04
(PID.TID 0000.0001) %MON forcing_fu_max               =   3.8275644400384E-01
(PID.TID 0000.0001) %MON forcing_fu_min               =  -3.6402048589908E-01
(PID.TID 0000.0001) %MON forcing_fu_mean              =  -3.4716227553330E-03
(PID.TID 0000.0001) %MON forcing_fu_sd                =   6.2143827441577E-02
(PID.TID 0000.0001) %MON forcing_fu_del2              =   6.1631363526023E-04
(PID.TID 0000.0001) %MON forcing_fv_max               =   3.2700839138447E-01
(PID.TID 0000.0001) %MON forcing_fv_min               =  -2.9056909126207E-01
(PID.TID 0000.0001) %MON forcing_fv_mean              =  -1.4609003528324E-02
(PID.TID 0000.0001) %MON forcing_fv_sd                =   6.3830555836986E-02
(PID.TID 0000.0001) %MON forcing_fv_del2              =   5.4515675606784E-04
(PID.TID 0000.0001) %MON trAdv_CFL_u_max              =   1.6106374804186E-03
(PID.TID 0000.0001) %MON trAdv_CFL_v_max              =   1.6226321555765E-03
(PID.TID 0000.0001) %MON trAdv_CFL_w_max              =   1.9346042956842E-03
(PID.TID 0000.0001) %MON advcfl_uvel_max              =   1.6131636167518E-03
(PID.TID 0000.0001) %MON advcfl_vvel_max              =   1.2686619871061E-03
(PID.TID 0000.0001) %MON advcfl_wvel_max              =   3.4086758675783E-03
(PID.TID 0000.0001) %MON advcfl_W_hf_max              =   2.1098824679608E-03
(PID.TID 0000.0001) %MON pe_b_mean                    =   5.0803228964603E-04
(PID.TID 0000.0001) %MON ke_max                       =   1.4842880002542E-01
(PID.TID 0000.0001) %MON ke_mean                      =   1.6145947210988E-04
(PID.TID 0000.0001) %MON ke_vol                       =   1.3398118383965E+18
(PID.TID 0000.0001) %MON vort_r_min                   =  -3.0419666377149E-06
(PID.TID 0000.0001) %MON vort_r_max                   =   2.2644332006753E-06
(PID.TID 0000.0001) %MON vort_a_mean                  =  -2.0549865324846E-05
(PID.TID 0000.0001) %MON vort_a_sd                    =   7.5259634560891E-05
(PID.TID 0000.0001) %MON vort_p_mean                  =  -2.4783299694208E-05
(PID.TID 0000.0001) %MON vort_p_sd                    =   1.2811904592965E-04
(PID.TID 0000.0001) %MON surfExpan_theta_mean         =  -6.3164629380419E-06
(PID.TID 0000.0001) %MON surfExpan_salt_mean          =   1.0999863200522E-06
(PID.TID 0000.0001) // =======================================================
(PID.TID 0000.0001) // End MONITOR dynamic field statistics
(PID.TID 0000.0001) // =======================================================
 cg2d: Sum(rhs),rhsMax =  -3.31803793880724E+01  6.82681909193260E+01
(PID.TID 0000.0001)      cg2d_init_res =   1.35693894537961E-01
(PID.TID 0000.0001)      cg2d_iters(min,last) =      -1      10
(PID.TID 0000.0001)      cg2d_last_res =   7.65829038452012E-08
(PID.TID 0000.0001) // =======================================================
(PID.TID 0000.0001) // Begin MONITOR dynamic field statistics
(PID.TID 0000.0001) // =======================================================
(PID.TID 0000.0001) %MON time_tsnumber                =                 72049
(PID.TID 0000.0001) %MON time_secondsf                =   6.4844100000000E+07
(PID.TID 0000.0001) %MON dynstat_eta_max              =   3.0859043006393E+00
(PID.TID 0000.0001) %MON dynstat_eta_min              =  -1.6005331610885E+00
(PID.TID 0000.0001) %MON dynstat_eta_mean             =   2.6320910903258E-02
(PID.TID 0000.0001) %MON dynstat_eta_sd               =   6.1671161343351E-01
(PID.TID 0000.0001) %MON dynstat_eta_del2             =   2.4730992666888E-03
(PID.TID 0000.0001) %MON dynstat_uvel_max             =   3.3490272670301E-01
(PID.TID 0000.0001) %MON dynstat_uvel_min             =  -5.6612977259199E-01
(PID.TID 0000.0001) %MON dynstat_uvel_mean            =  -5.2776505897021E-04
(PID.TID 0000.0001) %MON dynstat_uvel_sd              =   1.2702660709050E-02
(PID.TID 0000.0001) %MON dynstat_uvel_del2            =   8.9867064331100E-05
(PID.TID 0000.0001) %MON dynstat_vvel_max             =   3.7563849051377E-01
(PID.TID 0000.0001) %MON dynstat_vvel_min             =  -4.6251388184789E-01
(PID.TID 0000.0001) %MON dynstat_vvel_mean            =   2.1498950898936E-04
(PID.TID 0000.0001) %MON dynstat_vvel_sd              =   1.3710736737130E-02
(PID.TID 0000.0001) %MON dynstat_vvel_del2            =   8.6774681524639E-05
(PID.TID 0000.0001) %MON dynstat_wvel_max             =   1.5925306577204E-04
(PID.TID 0000.0001) %MON dynstat_wvel_min             =  -2.0048780616320E-04
(PID.TID 0000.0001) %MON dynstat_wvel_mean            =  -2.0875291875270E-07
(PID.TID 0000.0001) %MON dynstat_wvel_sd              =   7.8929494937875E-06
(PID.TID 0000.0001) %MON dynstat_wvel_del2            =   7.6482053412202E-08
(PID.TID 0000.0001) %MON dynstat_theta_max            =   3.0924975514927E+01
(PID.TID 0000.0001) %MON dynstat_theta_min            =  -3.0043406585243E+00
(PID.TID 0000.0001) %MON dynstat_theta_mean           =   3.9091394910830E+00
(PID.TID 0000.0001) %MON dynstat_theta_sd             =   4.5714245665584E+00
(PID.TID 0000.0001) %MON dynstat_theta_del2           =   2.6430381860359E-03
(PID.TID 0000.0001) %MON dynstat_salt_max             =   4.1351192808092E+01
(PID.TID 0000.0001) %MON dynstat_salt_min             =   1.8518867505396E+01
(PID.TID 0000.0001) %MON dynstat_salt_mean            =   3.4771970051578E+01
(PID.TID 0000.0001) %MON dynstat_salt_sd              =   5.3179210775891E-01
(PID.TID 0000.0001) %MON dynstat_salt_del2            =   1.0205890335059E-03
(PID.TID 0000.0001) %MON dynstat_sst_max              =   3.0924975514927E+01
(PID.TID 0000.0001) %MON dynstat_sst_min              =  -1.8969621487300E+00
(PID.TID 0000.0001) %MON dynstat_sst_mean             =   1.8107842188141E+01
(PID.TID 0000.0001) %MON dynstat_sst_sd               =   9.8107163496783E+00
(PID.TID 0000.0001) %MON dynstat_sst_del2             =   1.5050737529175E-02
(PID.TID 0000.0001) %MON dynstat_sss_max              =   4.1351192808092E+01
(PID.TID 0000.0001) %MON dynstat_sss_min              =   1.8751670160161E+01
(PID.TID 0000.0001) %MON dynstat_sss_mean             =   3.4625672282448E+01
(PID.TID 0000.0001) %MON dynstat_sss_sd               =   1.4783860060834E+00
(PID.TID 0000.0001) %MON dynstat_sss_del2             =   1.1263200688771E-02
(PID.TID 0000.0001) %MON forcing_qnet_max             =   9.9999407402479E+03
(PID.TID 0000.0001) %MON forcing_qnet_min             =  -1.3741468259190E+03
(PID.TID 0000.0001) %MON forcing_qnet_mean            =   2.3379820277647E+01
(PID.TID 0000.0001) %MON forcing_qnet_sd              =   2.5300721509986E+02
(PID.TID 0000.0001) %MON forcing_qnet_del2            =   8.7114517909778E+00
(PID.TID 0000.0001) %MON forcing_qsw_max              =   0.0000000000000E+00
(PID.TID 0000.0001) %MON forcing_qsw_min              =  -1.0760175884387E+02
(PID.TID 0000.0001) %MON forcing_qsw_mean             =  -1.3135409490786E+01
(PID.TID 0000.0001) %MON forcing_qsw_sd               =   2.3389388026600E+01
(PID.TID 0000.0001) %MON forcing_qsw_del2             =   1.9671919526693E-01
(PID.TID 0000.0001) %MON forcing_empmr_max            =   6.7468550987542E-03
(PID.TID 0000.0001) %MON forcing_empmr_min            =  -9.6990004181862E-02
(PID.TID 0000.0001) %MON forcing_empmr_mean           =  -2.9094485800817E-04
(PID.TID 0000.0001) %MON forcing_empmr_sd             =   4.2735602570488E-03
(PID.TID 0000.0001) %MON forcing_empmr_del2           =   1.6863418364718E-04
(PID.TID 0000.0001) %MON forcing_fu_max               =   3.8545921139185E-01
(PID.TID 0000.0001) %MON forcing_fu_min               =  -3.6242060600236E-01
(PID.TID 0000.0001) %MON forcing_fu_mean              =  -3.3936360213654E-03
(PID.TID 0000.0001) %MON forcing_fu_sd                =   6.2255063244718E-02
(PID.TID 0000.0001) %MON forcing_fu_del2              =   6.1714236907035E-04
(PID.TID 0000.0001) %MON forcing_fv_max               =   3.3506341873660E-01
(PID.TID 0000.0001) %MON forcing_fv_min               =  -2.9076647809379E-01
(PID.TID 0000.0001) %MON forcing_fv_mean              =  -1.4662565186606E-02
(PID.TID 0000.0001) %MON forcing_fv_sd                =   6.3795449648253E-02
(PID.TID 0000.0001) %MON forcing_fv_del2              =   5.4526682112289E-04
(PID.TID 0000.0001) %MON trAdv_CFL_u_max              =   1.6087685777982E-03
(PID.TID 0000.0001) %MON trAdv_CFL_v_max              =   1.4323844429048E-03
(PID.TID 0000.0001) %MON trAdv_CFL_w_max              =   1.8405933181079E-03
(PID.TID 0000.0001) %MON advcfl_uvel_max              =   1.6104682816432E-03
(PID.TID 0000.0001) %MON advcfl_vvel_max              =   1.3522547198155E-03
(PID.TID 0000.0001) %MON advcfl_wvel_max              =   3.3735653628474E-03
(PID.TID 0000.0001) %MON advcfl_W_hf_max              =   2.0475541769746E-03
(PID.TID 0000.0001) %MON pe_b_mean                    =   5.0759345635353E-04
(PID.TID 0000.0001) %MON ke_max                       =   1.5931217619785E-01
(PID.TID 0000.0001) %MON ke_mean                      =   1.6149157167452E-04
(PID.TID 0000.0001) %MON ke_vol                       =   1.3398119311314E+18
(PID.TID 0000.0001) %MON vort_r_min                   =  -3.2024464238367E-06
(PID.TID 0000.0001) %MON vort_r_max                   =   2.3439914920771E-06
(PID.TID 0000.0001) %MON vort_a_mean                  =  -2.0549865324846E-05
(PID.TID 0000.0001) %MON vort_a_sd                    =   7.5259645877388E-05
(PID.TID 0000.0001) %MON vort_p_mean                  =  -2.4783297908609E-05
(PID.TID 0000.0001) %MON vort_p_sd                    =   1.2811902804087E-04
(PID.TID 0000.0001) %MON surfExpan_theta_mean         =  -6.4193598401393E-06
(PID.TID 0000.0001) %MON surfExpan_salt_mean          =   1.1324184113741E-06
(PID.TID 0000.0001) // =======================================================
(PID.TID 0000.0001) // End MONITOR dynamic field statistics
(PID.TID 0000.0001) // =======================================================
 cg2d: Sum(rhs),rhsMax =  -3.38862164606257E+01  6.74835703006666E+01
(PID.TID 0000.0001)      cg2d_init_res =   1.35867589888424E-01
(PID.TID 0000.0001)      cg2d_iters(min,last) =      -1      10
(PID.TID 0000.0001)      cg2d_last_res =   7.68503498332460E-08
(PID.TID 0000.0001) // =======================================================
(PID.TID 0000.0001) // Begin MONITOR dynamic field statistics
(PID.TID 0000.0001) // =======================================================
(PID.TID 0000.0001) %MON time_tsnumber                =                 72050
(PID.TID 0000.0001) %MON time_secondsf                =   6.4845000000000E+07
(PID.TID 0000.0001) %MON dynstat_eta_max              =   3.0160129487385E+00
(PID.TID 0000.0001) %MON dynstat_eta_min              =  -1.5986906099425E+00
(PID.TID 0000.0001) %MON dynstat_eta_mean             =   2.6571881400344E-02
(PID.TID 0000.0001) %MON dynstat_eta_sd               =   6.1636837477805E-01
(PID.TID 0000.0001) %MON dynstat_eta_del2             =   2.4447198901471E-03
(PID.TID 0000.0001) %MON dynstat_uvel_max             =   3.2401527595101E-01
(PID.TID 0000.0001) %MON dynstat_uvel_min             =  -5.6265687096410E-01
(PID.TID 0000.0001) %MON dynstat_uvel_mean            =  -5.2204708535339E-04
(PID.TID 0000.0001) %MON dynstat_uvel_sd              =   1.2686265133269E-02
(PID.TID 0000.0001) %MON dynstat_uvel_del2            =   9.0865166471931E-05
(PID.TID 0000.0001) %MON dynstat_vvel_max             =   4.2039158283139E-01
(PID.TID 0000.0001) %MON dynstat_vvel_min             =  -4.9188907627679E-01
(PID.TID 0000.0001) %MON dynstat_vvel_mean            =   2.5924108352111E-04
(PID.TID 0000.0001) %MON dynstat_vvel_sd              =   1.3739863303274E-02
(PID.TID 0000.0001) %MON dynstat_vvel_del2            =   8.6001491534237E-05
(PID.TID 0000.0001) %MON dynstat_wvel_max             =   1.5488678863820E-04
(PID.TID 0000.0001) %MON dynstat_wvel_min             =  -1.9272346271231E-04
(PID.TID 0000.0001) %MON dynstat_wvel_mean            =  -2.3343339595845E-07
(PID.TID 0000.0001) %MON dynstat_wvel_sd              =   7.9178059853630E-06
(PID.TID 0000.0001) %MON dynstat_wvel_del2            =   7.6916028819074E-08
(PID.TID 0000.0001) %MON dynstat_theta_max            =   3.0924987431866E+01
(PID.TID 0000.0001) %MON dynstat_theta_min            =  -3.0044625325301E+00
(PID.TID 0000.0001) %MON dynstat_theta_mean           =   3.9091397549028E+00
(PID.TID 0000.0001) %MON dynstat_theta_sd             =   4.5714259290638E+00
(PID.TID 0000.0001) %MON dynstat_theta_del2           =   2.6429290880993E-03
(PID.TID 0000.0001) %MON dynstat_salt_max             =   4.1350856032755E+01
(PID.TID 0000.0001) %MON dynstat_salt_min             =   1.8518877872283E+01
(PID.TID 0000.0001) %MON dynstat_salt_mean            =   3.4771967277415E+01
(PID.TID 0000.0001) %MON dynstat_salt_sd              =   5.3180870793399E-01
(PID.TID 0000.0001) %MON dynstat_salt_del2            =   1.0248987784195E-03
(PID.TID 0000.0001) %MON dynstat_sst_max              =   3.0924987431866E+01
(PID.TID 0000.0001) %MON dynstat_sst_min              =  -1.8969769861640E+00
(PID.TID 0000.0001) %MON dynstat_sst_mean             =   1.8107768657441E+01
(PID.TID 0000.0001) %MON dynstat_sst_sd               =   9.8108017596833E+00
(PID.TID 0000.0001) %MON dynstat_sst_del2             =   1.5049050468527E-02
(PID.TID 0000.0001) %MON dynstat_sss_max              =   4.1350856032755E+01
(PID.TID 0000.0001) %MON dynstat_sss_min              =   1.8751710983893E+01
(PID.TID 0000.0001) %MON dynstat_sss_mean             =   3.4625477686524E+01
(PID.TID 0000.0001) %MON dynstat_sss_sd               =   1.4788034698767E+00
(PID.TID 0000.0001) %MON dynstat_sss_del2             =   1.1324796699554E-02
(PID.TID 0000.0001) %MON forcing_qnet_max             =   1.2607278647630E+04
(PID.TID 0000.0001) %MON forcing_qnet_min             =  -1.3546351970724E+03
(PID.TID 0000.0001) %MON forcing_qnet_mean            =   2.3550929761950E+01
(PID.TID 0000.0001) %MON forcing_qnet_sd              =   2.9226297011059E+02
(PID.TID 0000.0001) %MON forcing_qnet_del2            =   1.1513630828098E+01
(PID.TID 0000.0001) %MON forcing_qsw_max              =   0.0000000000000E+00
(PID.TID 0000.0001) %MON forcing_qsw_min              =  -1.0630401409175E+02
(PID.TID 0000.0001) %MON forcing_qsw_mean             =  -1.3251583488676E+01
(PID.TID 0000.0001) %MON forcing_qsw_sd               =   2.3292386041977E+01
(PID.TID 0000.0001) %MON forcing_qsw_del2             =   1.9703606820129E-01
(PID.TID 0000.0001) %MON forcing_empmr_max            =   6.6773816943169E-03
(PID.TID 0000.0001) %MON forcing_empmr_min            =  -9.5990650355816E-02
(PID.TID 0000.0001) %MON forcing_empmr_mean           =  -2.8861607164958E-04
(PID.TID 0000.0001) %MON forcing_empmr_sd             =   4.2308609721556E-03
(PID.TID 0000.0001) %MON forcing_empmr_del2           =   1.6694756082969E-04
(PID.TID 0000.0001) %MON forcing_fu_max               =   3.8700000267882E-01
(PID.TID 0000.0001) %MON forcing_fu_min               =  -3.6129939880153E-01
(PID.TID 0000.0001) %MON forcing_fu_mean              =  -3.3309698166948E-03
(PID.TID 0000.0001) %MON forcing_fu_sd                =   6.2254096439075E-02
(PID.TID 0000.0001) %MON forcing_fu_del2              =   6.1739657011795E-04
(PID.TID 0000.0001) %MON forcing_fv_max               =   3.3482658792293E-01
(PID.TID 0000.0001) %MON forcing_fv_min               =  -2.9117231442536E-01
(PID.TID 0000.0001) %MON forcing_fv_mean              =  -1.4744702946526E-02
(PID.TID 0000.0001) %MON forcing_fv_sd                =   6.3659545046435E-02
(PID.TID 0000.0001) %MON forcing_fv_del2              =   5.4573925595597E-04
(PID.TID 0000.0001) %MON trAdv_CFL_u_max              =   1.5997641723208E-03
(PID.TID 0000.0001) %MON trAdv_CFL_v_max              =   1.4779312460744E-03
(PID.TID 0000.0001) %MON trAdv_CFL_w_max              =   1.7612592453114E-03
(PID.TID 0000.0001) %MON advcfl_uvel_max              =   1.6005889250226E-03
(PID.TID 0000.0001) %MON advcfl_vvel_max              =   1.4381391589015E-03
(PID.TID 0000.0001) %MON advcfl_wvel_max              =   3.3388052297675E-03
(PID.TID 0000.0001) %MON advcfl_W_hf_max              =   1.9914117784964E-03
(PID.TID 0000.0001) %MON pe_b_mean                    =   5.0704727465876E-04
(PID.TID 0000.0001) %MON ke_max                       =   1.6985667559489E-01
(PID.TID 0000.0001) %MON ke_mean                      =   1.6167831777772E-04
(PID.TID 0000.0001) %MON ke_vol                       =   1.3398120231932E+18
(PID.TID 0000.0001) %MON vort_r_min                   =  -3.3605557882595E-06
(PID.TID 0000.0001) %MON vort_r_max                   =   2.4111380644974E-06
(PID.TID 0000.0001) %MON vort_a_mean                  =  -2.0549865324846E-05
(PID.TID 0000.0001) %MON vort_a_sd                    =   7.5259656752732E-05
(PID.TID 0000.0001) %MON vort_p_mean                  =  -2.4783296067925E-05
(PID.TID 0000.0001) %MON vort_p_sd                    =   1.2811901134851E-04
(PID.TID 0000.0001) %MON surfExpan_theta_mean         =  -6.5338377999727E-06
(PID.TID 0000.0001) %MON surfExpan_salt_mean          =   1.1646062784839E-06
(PID.TID 0000.0001) // =======================================================
(PID.TID 0000.0001) // End MONITOR dynamic field statistics
(PID.TID 0000.0001) // =======================================================
 cg2d: Sum(rhs),rhsMax =  -3.47973239241232E+01  6.63329707640397E+01
(PID.TID 0000.0001)      cg2d_init_res =   1.39112582995074E-01
(PID.TID 0000.0001)      cg2d_iters(min,last) =      -1      10
(PID.TID 0000.0001)      cg2d_last_res =   7.72687679432751E-08
(PID.TID 0000.0001) // =======================================================
(PID.TID 0000.0001) // Begin MONITOR dynamic field statistics
(PID.TID 0000.0001) // =======================================================
(PID.TID 0000.0001) %MON time_tsnumber                =                 72051
(PID.TID 0000.0001) %MON time_secondsf                =   6.4845900000000E+07
(PID.TID 0000.0001) %MON dynstat_eta_max              =   2.9543397185730E+00
(PID.TID 0000.0001) %MON dynstat_eta_min              =  -1.5968620562177E+00
(PID.TID 0000.0001) %MON dynstat_eta_mean             =   2.6821092694561E-02
(PID.TID 0000.0001) %MON dynstat_eta_sd               =   6.1596579184949E-01
(PID.TID 0000.0001) %MON dynstat_eta_del2             =   2.3966983453220E-03
(PID.TID 0000.0001) %MON dynstat_uvel_max             =   3.1160825426459E-01
(PID.TID 0000.0001) %MON dynstat_uvel_min             =  -5.6721321402022E-01
(PID.TID 0000.0001) %MON dynstat_uvel_mean            =  -5.1362530396398E-04
(PID.TID 0000.0001) %MON dynstat_uvel_sd              =   1.2679485128977E-02
(PID.TID 0000.0001) %MON dynstat_uvel_del2            =   9.1921657623355E-05
(PID.TID 0000.0001) %MON dynstat_vvel_max             =   4.5807515829697E-01
(PID.TID 0000.0001) %MON dynstat_vvel_min             =  -5.1964382410737E-01
(PID.TID 0000.0001) %MON dynstat_vvel_mean            =   3.0077009893293E-04
(PID.TID 0000.0001) %MON dynstat_vvel_sd              =   1.3771020899174E-02
(PID.TID 0000.0001) %MON dynstat_vvel_del2            =   8.6068286901635E-05
(PID.TID 0000.0001) %MON dynstat_wvel_max             =   1.5095301917797E-04
(PID.TID 0000.0001) %MON dynstat_wvel_min             =  -1.9233426014234E-04
(PID.TID 0000.0001) %MON dynstat_wvel_mean            =  -2.5643056173392E-07
(PID.TID 0000.0001) %MON dynstat_wvel_sd              =   7.9488949676770E-06
(PID.TID 0000.0001) %MON dynstat_wvel_del2            =   7.7324075912739E-08
(PID.TID 0000.0001) %MON dynstat_theta_max            =   3.0924986670061E+01
(PID.TID 0000.0001) %MON dynstat_theta_min            =  -3.0046177022422E+00
(PID.TID 0000.0001) %MON dynstat_theta_mean           =   3.9091402346440E+00
(PID.TID 0000.0001) %MON dynstat_theta_sd             =   4.5714277722356E+00
(PID.TID 0000.0001) %MON dynstat_theta_del2           =   2.6428038678413E-03
(PID.TID 0000.0001) %MON dynstat_salt_max             =   4.1350529055364E+01
(PID.TID 0000.0001) %MON dynstat_salt_min             =   1.8518888221787E+01
(PID.TID 0000.0001) %MON dynstat_salt_mean            =   3.4771964592365E+01
(PID.TID 0000.0001) %MON dynstat_salt_sd              =   5.3182522849852E-01
(PID.TID 0000.0001) %MON dynstat_salt_del2            =   1.0291326836029E-03
(PID.TID 0000.0001) %MON dynstat_sst_max              =   3.0924986670061E+01
(PID.TID 0000.0001) %MON dynstat_sst_min              =  -1.8970081060328E+00
(PID.TID 0000.0001) %MON dynstat_sst_mean             =   1.8107709858741E+01
(PID.TID 0000.0001) %MON dynstat_sst_sd               =   9.8108807750494E+00
(PID.TID 0000.0001) %MON dynstat_sst_del2             =   1.5046889197163E-02
(PID.TID 0000.0001) %MON dynstat_sss_max              =   4.1350529055364E+01
(PID.TID 0000.0001) %MON dynstat_sss_min              =   1.8751756062091E+01
(PID.TID 0000.0001) %MON dynstat_sss_mean             =   3.4625288653186E+01
(PID.TID 0000.0001) %MON dynstat_sss_sd               =   1.4792196160901E+00
(PID.TID 0000.0001) %MON dynstat_sss_del2             =   1.1385233981318E-02
(PID.TID 0000.0001) %MON forcing_qnet_max             =   7.2267513433671E+03
(PID.TID 0000.0001) %MON forcing_qnet_min             =  -1.3353708799978E+03
(PID.TID 0000.0001) %MON forcing_qnet_mean            =   1.9677151584169E+01
(PID.TID 0000.0001) %MON forcing_qnet_sd              =   2.2616445356495E+02
(PID.TID 0000.0001) %MON forcing_qnet_del2            =   6.6568503177570E+00
(PID.TID 0000.0001) %MON forcing_qsw_max              =   0.0000000000000E+00
(PID.TID 0000.0001) %MON forcing_qsw_min              =  -1.0456608265183E+02
(PID.TID 0000.0001) %MON forcing_qsw_mean             =  -1.3340097728011E+01
(PID.TID 0000.0001) %MON forcing_qsw_sd               =   2.3180996405245E+01
(PID.TID 0000.0001) %MON forcing_qsw_del2             =   1.9703361543619E-01
(PID.TID 0000.0001) %MON forcing_empmr_max            =   6.6084996797144E-03
(PID.TID 0000.0001) %MON forcing_empmr_min            =  -9.5002204179764E-02
(PID.TID 0000.0001) %MON forcing_empmr_mean           =  -2.8659298834950E-04
(PID.TID 0000.0001) %MON forcing_empmr_sd             =   4.1893051886415E-03
(PID.TID 0000.0001) %MON forcing_empmr_del2           =   1.6528130650066E-04
(PID.TID 0000.0001) %MON forcing_fu_max               =   3.8598710940995E-01
(PID.TID 0000.0001) %MON forcing_fu_min               =  -3.6046837694798E-01
(PID.TID 0000.0001) %MON forcing_fu_mean              =  -3.2893492269766E-03
(PID.TID 0000.0001) %MON forcing_fu_sd                =   6.2146876743418E-02
(PID.TID 0000.0001) %MON forcing_fu_del2              =   6.1668688206510E-04
(PID.TID 0000.0001) %MON forcing_fv_max               =   3.3096897653469E-01
(PID.TID 0000.0001) %MON forcing_fv_min               =  -2.9048532775093E-01
(PID.TID 0000.0001) %MON forcing_fv_mean              =  -1.4855934183112E-02
(PID.TID 0000.0001) %MON forcing_fv_sd                =   6.3407213814110E-02
(PID.TID 0000.0001) %MON forcing_fv_del2              =   5.4399120917596E-04
(PID.TID 0000.0001) %MON trAdv_CFL_u_max              =   1.6493515256943E-03
(PID.TID 0000.0001) %MON trAdv_CFL_v_max              =   1.5645976780403E-03
(PID.TID 0000.0001) %MON trAdv_CFL_w_max              =   1.8041791604698E-03
(PID.TID 0000.0001) %MON advcfl_uvel_max              =   1.6483267924257E-03
(PID.TID 0000.0001) %MON advcfl_vvel_max              =   1.5192858881656E-03
(PID.TID 0000.0001) %MON advcfl_wvel_max              =   3.3044244932092E-03
(PID.TID 0000.0001) %MON advcfl_W_hf_max              =   1.9408315523048E-03
(PID.TID 0000.0001) %MON pe_b_mean                    =   5.0640405184413E-04
(PID.TID 0000.0001) %MON ke_max                       =   1.8004461263868E-01
(PID.TID 0000.0001) %MON ke_mean                      =   1.6200383747570E-04
(PID.TID 0000.0001) %MON ke_vol                       =   1.3398121145180E+18
(PID.TID 0000.0001) %MON vort_r_min                   =  -3.5153423823561E-06
(PID.TID 0000.0001) %MON vort_r_max                   =   2.4663597895579E-06
(PID.TID 0000.0001) %MON vort_a_mean                  =  -2.0549865324846E-05
(PID.TID 0000.0001) %MON vort_a_sd                    =   7.5259667104244E-05
(PID.TID 0000.0001) %MON vort_p_mean                  =  -2.4783294173275E-05
(PID.TID 0000.0001) %MON vort_p_sd                    =   1.2811899658022E-04
(PID.TID 0000.0001) %MON surfExpan_theta_mean         =  -6.6513396164761E-06
(PID.TID 0000.0001) %MON surfExpan_salt_mean          =   1.1949201757788E-06
(PID.TID 0000.0001) // =======================================================
(PID.TID 0000.0001) // End MONITOR dynamic field statistics
(PID.TID 0000.0001) // =======================================================
 Computing Diagnostic #     81  oceTAUX      Counter:       1   Parms: UU      U1      
           Vector  Mate for  oceTAUX      Diagnostic #     82  oceTAUY  exists 
 Computing Diagnostic #     82  oceTAUY      Counter:       1   Parms: VV      U1      
           Vector  Mate for  oceTAUY      Diagnostic #     81  oceTAUX  exists 
 Computing Diagnostic #     85  oceFWflx     Counter:       1   Parms: SM      U1      
 Computing Diagnostic #     86  oceSflux     Counter:       1   Parms: SM      U1      
 Computing Diagnostic #     87  oceQnet      Counter:       1   Parms: SM      U1      
 Computing Diagnostic #     88  oceQsw       Counter:       1   Parms: SM      U1      
 Computing Diagnostic #     27  SALT         Counter:       1   Parms: SMR     MR      
 Computing Diagnostic #     26  THETA        Counter:       1   Parms: SMR     MR      
 Computing Diagnostic #     45  UVELMASS     Counter:       1   Parms: UUr     MR      
           Vector  Mate for  UVELMASS     Diagnostic #     46  VVELMASS exists 
 Computing Diagnostic #     46  VVELMASS     Counter:       1   Parms: VVr     MR      
           Vector  Mate for  VVELMASS     Diagnostic #     45  UVELMASS exists 
 cg2d: Sum(rhs),rhsMax =  -3.59354009039618E+01  6.48249296774571E+01
(PID.TID 0000.0001)      cg2d_init_res =   1.45142056594693E-01
(PID.TID 0000.0001)      cg2d_iters(min,last) =      -1      10
(PID.TID 0000.0001)      cg2d_last_res =   7.79035316458740E-08
(PID.TID 0000.0001) // =======================================================
(PID.TID 0000.0001) // Begin MONITOR dynamic field statistics
(PID.TID 0000.0001) // =======================================================
(PID.TID 0000.0001) %MON time_tsnumber                =                 72052
(PID.TID 0000.0001) %MON time_secondsf                =   6.4846800000000E+07
(PID.TID 0000.0001) %MON dynstat_eta_max              =   2.8871960230120E+00
(PID.TID 0000.0001) %MON dynstat_eta_min              =  -1.5951194546731E+00
(PID.TID 0000.0001) %MON dynstat_eta_mean             =   2.7068595475787E-02
(PID.TID 0000.0001) %MON dynstat_eta_sd               =   6.1551368251389E-01
(PID.TID 0000.0001) %MON dynstat_eta_del2             =   2.3305212736761E-03
(PID.TID 0000.0001) %MON dynstat_uvel_max             =   2.9777308394107E-01
(PID.TID 0000.0001) %MON dynstat_uvel_min             =  -5.8787625965128E-01
(PID.TID 0000.0001) %MON dynstat_uvel_mean            =  -5.0275640766816E-04
(PID.TID 0000.0001) %MON dynstat_uvel_sd              =   1.2682487230541E-02
(PID.TID 0000.0001) %MON dynstat_uvel_del2            =   9.2995197339247E-05
(PID.TID 0000.0001) %MON dynstat_vvel_max             =   4.8845539155823E-01
(PID.TID 0000.0001) %MON dynstat_vvel_min             =  -5.4550296019971E-01
(PID.TID 0000.0001) %MON dynstat_vvel_mean            =   3.3931275341004E-04
(PID.TID 0000.0001) %MON dynstat_vvel_sd              =   1.3802283312327E-02
(PID.TID 0000.0001) %MON dynstat_vvel_del2            =   8.6891848054743E-05
(PID.TID 0000.0001) %MON dynstat_wvel_max             =   1.4736256409747E-04
(PID.TID 0000.0001) %MON dynstat_wvel_min             =  -1.9209318528872E-04
(PID.TID 0000.0001) %MON dynstat_wvel_mean            =  -2.7689473898794E-07
(PID.TID 0000.0001) %MON dynstat_wvel_sd              =   7.9826735711593E-06
(PID.TID 0000.0001) %MON dynstat_wvel_del2            =   7.7673504753401E-08
(PID.TID 0000.0001) %MON dynstat_theta_max            =   3.0924972229490E+01
(PID.TID 0000.0001) %MON dynstat_theta_min            =  -3.0048016790772E+00
(PID.TID 0000.0001) %MON dynstat_theta_mean           =   3.9091408558195E+00
(PID.TID 0000.0001) %MON dynstat_theta_sd             =   4.5714298061529E+00
(PID.TID 0000.0001) %MON dynstat_theta_del2           =   2.6426408917183E-03
(PID.TID 0000.0001) %MON dynstat_salt_max             =   4.1350213594273E+01
(PID.TID 0000.0001) %MON dynstat_salt_min             =   1.8518898556405E+01
(PID.TID 0000.0001) %MON dynstat_salt_mean            =   3.4771961973963E+01
(PID.TID 0000.0001) %MON dynstat_salt_sd              =   5.3184157308323E-01
(PID.TID 0000.0001) %MON dynstat_salt_del2            =   1.0332879604563E-03
(PID.TID 0000.0001) %MON dynstat_sst_max              =   3.0924972229490E+01
(PID.TID 0000.0001) %MON dynstat_sst_min              =  -1.8970552281449E+00
(PID.TID 0000.0001) %MON dynstat_sst_mean             =   1.8107665090094E+01
(PID.TID 0000.0001) %MON dynstat_sst_sd               =   9.8109519484315E+00
(PID.TID 0000.0001) %MON dynstat_sst_del2             =   1.5043995252374E-02
(PID.TID 0000.0001) %MON dynstat_sss_max              =   4.1350213594273E+01
(PID.TID 0000.0001) %MON dynstat_sss_min              =   1.8751791676013E+01
(PID.TID 0000.0001) %MON dynstat_sss_mean             =   3.4625105049666E+01
(PID.TID 0000.0001) %MON dynstat_sss_sd               =   1.4796337529315E+00
(PID.TID 0000.0001) %MON dynstat_sss_del2             =   1.1444501519382E-02
(PID.TID 0000.0001) %MON forcing_qnet_max             =   2.1422126464844E+03
(PID.TID 0000.0001) %MON forcing_qnet_min             =  -2.9695219726562E+03
(PID.TID 0000.0001) %MON forcing_qnet_mean            =   1.6990078252967E+01
(PID.TID 0000.0001) %MON forcing_qnet_sd              =   1.9895402405462E+02
(PID.TID 0000.0001) %MON forcing_qnet_del2            =   4.4825337941714E+00
(PID.TID 0000.0001) %MON forcing_qsw_max              =   0.0000000000000E+00
(PID.TID 0000.0001) %MON forcing_qsw_min              =  -1.0239541857274E+02
(PID.TID 0000.0001) %MON forcing_qsw_mean             =  -1.3393844792774E+01
(PID.TID 0000.0001) %MON forcing_qsw_sd               =   2.3061375614732E+01
(PID.TID 0000.0001) %MON forcing_qsw_del2             =   1.9673456472919E-01
(PID.TID 0000.0001) %MON forcing_empmr_max            =   6.5404041670263E-03
(PID.TID 0000.0001) %MON forcing_empmr_min            =  -9.4023838639259E-02
(PID.TID 0000.0001) %MON forcing_empmr_mean           =  -2.8462819840895E-04
(PID.TID 0000.0001) %MON forcing_empmr_sd             =   4.1491506358514E-03
(PID.TID 0000.0001) %MON forcing_empmr_del2           =   1.6366955048107E-04
(PID.TID 0000.0001) %MON forcing_fu_max               =   3.8190475244065E-01
(PID.TID 0000.0001) %MON forcing_fu_min               =  -3.5820743445986E-01
(PID.TID 0000.0001) %MON forcing_fu_mean              =  -3.2634153581294E-03
(PID.TID 0000.0001) %MON forcing_fu_sd                =   6.1979622299747E-02
(PID.TID 0000.0001) %MON forcing_fu_del2              =   6.1563220208137E-04
(PID.TID 0000.0001) %MON forcing_fv_max               =   3.2646541610977E-01
(PID.TID 0000.0001) %MON forcing_fv_min               =  -2.8927196162068E-01
(PID.TID 0000.0001) %MON forcing_fv_mean              =  -1.4929486917202E-02
(PID.TID 0000.0001) %MON forcing_fv_sd                =   6.3183656874487E-02
(PID.TID 0000.0001) %MON forcing_fv_del2              =   5.4283596936221E-04
(PID.TID 0000.0001) %MON trAdv_CFL_u_max              =   1.7094820648426E-03
(PID.TID 0000.0001) %MON trAdv_CFL_v_max              =   1.6332121783238E-03
(PID.TID 0000.0001) %MON trAdv_CFL_w_max              =   1.8391926756097E-03
(PID.TID 0000.0001) %MON advcfl_uvel_max              =   1.7083737921869E-03
(PID.TID 0000.0001) %MON advcfl_vvel_max              =   1.5948904055727E-03
(PID.TID 0000.0001) %MON advcfl_wvel_max              =   3.2703943874525E-03
(PID.TID 0000.0001) %MON advcfl_W_hf_max              =   1.8946665534043E-03
(PID.TID 0000.0001) %MON pe_b_mean                    =   5.0568007962734E-04
(PID.TID 0000.0001) %MON ke_max                       =   1.8987797619670E-01
(PID.TID 0000.0001) %MON ke_mean                      =   1.6244517770493E-04
(PID.TID 0000.0001) %MON ke_vol                       =   1.3398122052027E+18
(PID.TID 0000.0001) %MON vort_r_min                   =  -3.6657432383647E-06
(PID.TID 0000.0001) %MON vort_r_max                   =   2.5102229295964E-06
(PID.TID 0000.0001) %MON vort_a_mean                  =  -2.0549865324846E-05
(PID.TID 0000.0001) %MON vort_a_sd                    =   7.5259676873317E-05
(PID.TID 0000.0001) %MON vort_p_mean                  =  -2.4783292226040E-05
(PID.TID 0000.0001) %MON vort_p_sd                    =   1.2811898432606E-04
(PID.TID 0000.0001) %MON surfExpan_theta_mean         =  -6.7606066354390E-06
(PID.TID 0000.0001) %MON surfExpan_salt_mean          =   1.2238123004195E-06
(PID.TID 0000.0001) // =======================================================
(PID.TID 0000.0001) // End MONITOR dynamic field statistics
(PID.TID 0000.0001) // =======================================================
 cg2d: Sum(rhs),rhsMax =  -3.73307092847295E+01  6.29720207812707E+01
(PID.TID 0000.0001)      cg2d_init_res =   1.53582139203875E-01
(PID.TID 0000.0001)      cg2d_iters(min,last) =      -1      10
(PID.TID 0000.0001)      cg2d_last_res =   7.87531301997364E-08
(PID.TID 0000.0001) // =======================================================
(PID.TID 0000.0001) // Begin MONITOR dynamic field statistics
(PID.TID 0000.0001) // =======================================================
(PID.TID 0000.0001) %MON time_tsnumber                =                 72053
(PID.TID 0000.0001) %MON time_secondsf                =   6.4847700000000E+07
(PID.TID 0000.0001) %MON dynstat_eta_max              =   2.8047359747693E+00
(PID.TID 0000.0001) %MON dynstat_eta_min              =  -1.5935122148491E+00
(PID.TID 0000.0001) %MON dynstat_eta_mean             =   2.7315870488114E-02
(PID.TID 0000.0001) %MON dynstat_eta_sd               =   6.1502608207720E-01
(PID.TID 0000.0001) %MON dynstat_eta_del2             =   2.2483272204210E-03
(PID.TID 0000.0001) %MON dynstat_uvel_max             =   3.4858256325660E-01
(PID.TID 0000.0001) %MON dynstat_uvel_min             =  -6.0897105200495E-01
(PID.TID 0000.0001) %MON dynstat_uvel_mean            =  -4.8971498676183E-04
(PID.TID 0000.0001) %MON dynstat_uvel_sd              =   1.2694948562209E-02
(PID.TID 0000.0001) %MON dynstat_uvel_del2            =   9.4045213165542E-05
(PID.TID 0000.0001) %MON dynstat_vvel_max             =   5.3507369299155E-01
(PID.TID 0000.0001) %MON dynstat_vvel_min             =  -5.6920390505828E-01
(PID.TID 0000.0001) %MON dynstat_vvel_mean            =   3.7465188584921E-04
(PID.TID 0000.0001) %MON dynstat_vvel_sd              =   1.3831713432930E-02
(PID.TID 0000.0001) %MON dynstat_vvel_del2            =   8.8330877162515E-05
(PID.TID 0000.0001) %MON dynstat_wvel_max             =   1.4399769692830E-04
(PID.TID 0000.0001) %MON dynstat_wvel_min             =  -1.9188526402512E-04
(PID.TID 0000.0001) %MON dynstat_wvel_mean            =  -2.9538019918138E-07
(PID.TID 0000.0001) %MON dynstat_wvel_sd              =   8.0157945257226E-06
(PID.TID 0000.0001) %MON dynstat_wvel_del2            =   7.7933955388434E-08
(PID.TID 0000.0001) %MON dynstat_theta_max            =   3.0924943712660E+01
(PID.TID 0000.0001) %MON dynstat_theta_min            =  -3.0050088323184E+00
(PID.TID 0000.0001) %MON dynstat_theta_mean           =   3.9091416684934E+00
(PID.TID 0000.0001) %MON dynstat_theta_sd             =   4.5714324047781E+00
(PID.TID 0000.0001) %MON dynstat_theta_del2           =   2.6424908444670E-03
(PID.TID 0000.0001) %MON dynstat_salt_max             =   4.1349911515544E+01
(PID.TID 0000.0001) %MON dynstat_salt_min             =   1.8518908878744E+01
(PID.TID 0000.0001) %MON dynstat_salt_mean            =   3.4771959394250E+01
(PID.TID 0000.0001) %MON dynstat_salt_sd              =   5.3185771113029E-01
(PID.TID 0000.0001) %MON dynstat_salt_del2            =   1.0373773640432E-03
(PID.TID 0000.0001) %MON dynstat_sst_max              =   3.0924943712660E+01
(PID.TID 0000.0001) %MON dynstat_sst_min              =  -1.8971189238202E+00
(PID.TID 0000.0001) %MON dynstat_sst_mean             =   1.8107629148043E+01
(PID.TID 0000.0001) %MON dynstat_sst_sd               =   9.8110221730450E+00
(PID.TID 0000.0001) %MON dynstat_sst_del2             =   1.5041229749583E-02
(PID.TID 0000.0001) %MON dynstat_sss_max              =   4.1349911515544E+01
(PID.TID 0000.0001) %MON dynstat_sss_min              =   1.8751824665239E+01
(PID.TID 0000.0001) %MON dynstat_sss_mean             =   3.4624922123359E+01
(PID.TID 0000.0001) %MON dynstat_sss_sd               =   1.4800411498613E+00
(PID.TID 0000.0001) %MON dynstat_sss_del2             =   1.1502758271987E-02
(PID.TID 0000.0001) %MON forcing_qnet_max             =   2.1168759765625E+03
(PID.TID 0000.0001) %MON forcing_qnet_min             =  -1.5312454833984E+03
(PID.TID 0000.0001) %MON forcing_qnet_mean            =   1.3656305750382E+01
(PID.TID 0000.0001) %MON forcing_qnet_sd              =   1.9791456765088E+02
(PID.TID 0000.0001) %MON forcing_qnet_del2            =   4.0932112649976E+00
(PID.TID 0000.0001) %MON forcing_qsw_max              =   0.0000000000000E+00
(PID.TID 0000.0001) %MON forcing_qsw_min              =  -9.7267037090126E+01
(PID.TID 0000.0001) %MON forcing_qsw_mean             =  -1.3651276775157E+01
(PID.TID 0000.0001) %MON forcing_qsw_sd               =   2.2999694590533E+01
(PID.TID 0000.0001) %MON forcing_qsw_del2             =   1.9375439616921E-01
(PID.TID 0000.0001) %MON forcing_empmr_max            =   6.4729973673820E-03
(PID.TID 0000.0001) %MON forcing_empmr_min            =  -9.3054689466953E-02
(PID.TID 0000.0001) %MON forcing_empmr_mean           =  -2.8436626417702E-04
(PID.TID 0000.0001) %MON forcing_empmr_sd             =   4.1112824443255E-03
(PID.TID 0000.0001) %MON forcing_empmr_del2           =   1.6213619839697E-04
(PID.TID 0000.0001) %MON forcing_fu_max               =   3.8402454742863E-01
(PID.TID 0000.0001) %MON forcing_fu_min               =  -3.5532559607458E-01
(PID.TID 0000.0001) %MON forcing_fu_mean              =  -3.1985250970414E-03
(PID.TID 0000.0001) %MON forcing_fu_sd                =   6.2053751887061E-02
(PID.TID 0000.0001) %MON forcing_fu_del2              =   6.1708016400756E-04
(PID.TID 0000.0001) %MON forcing_fv_max               =   3.2109189167379E-01
(PID.TID 0000.0001) %MON forcing_fv_min               =  -2.8723812900563E-01
(PID.TID 0000.0001) %MON forcing_fv_mean              =  -1.4999895808322E-02
(PID.TID 0000.0001) %MON forcing_fv_sd                =   6.2936964443940E-02
(PID.TID 0000.0001) %MON forcing_fv_del2              =   5.4139113452332E-04
(PID.TID 0000.0001) %MON trAdv_CFL_u_max              =   1.7709287715661E-03
(PID.TID 0000.0001) %MON trAdv_CFL_v_max              =   1.7632069057862E-03
(PID.TID 0000.0001) %MON trAdv_CFL_w_max              =   1.8662103539083E-03
(PID.TID 0000.0001) %MON advcfl_uvel_max              =   1.7696754518763E-03
(PID.TID 0000.0001) %MON advcfl_vvel_max              =   1.7461406391933E-03
(PID.TID 0000.0001) %MON advcfl_wvel_max              =   3.2366848510245E-03
(PID.TID 0000.0001) %MON advcfl_W_hf_max              =   1.8662103539083E-03
(PID.TID 0000.0001) %MON pe_b_mean                    =   5.0489863999419E-04
(PID.TID 0000.0001) %MON ke_max                       =   1.9936602565170E-01
(PID.TID 0000.0001) %MON ke_mean                      =   1.6297359689041E-04
(PID.TID 0000.0001) %MON ke_vol                       =   1.3398122952657E+18
(PID.TID 0000.0001) %MON vort_r_min                   =  -3.8105862312218E-06
(PID.TID 0000.0001) %MON vort_r_max                   =   2.5433712763789E-06
(PID.TID 0000.0001) %MON vort_a_mean                  =  -2.0549865324846E-05
(PID.TID 0000.0001) %MON vort_a_sd                    =   7.5259686016933E-05
(PID.TID 0000.0001) %MON vort_p_mean                  =  -2.4783290231535E-05
(PID.TID 0000.0001) %MON vort_p_sd                    =   1.2811897507386E-04
(PID.TID 0000.0001) %MON surfExpan_theta_mean         =  -6.8945062167232E-06
(PID.TID 0000.0001) %MON surfExpan_salt_mean          =   1.2499916911921E-06
(PID.TID 0000.0001) // =======================================================
(PID.TID 0000.0001) // End MONITOR dynamic field statistics
(PID.TID 0000.0001) // =======================================================
 cg2d: Sum(rhs),rhsMax =  -3.90186936063961E+01  6.07906961315562E+01
(PID.TID 0000.0001)      cg2d_init_res =   1.64103986693299E-01
(PID.TID 0000.0001)      cg2d_iters(min,last) =      -1      10
(PID.TID 0000.0001)      cg2d_last_res =   7.95951191316388E-08
(PID.TID 0000.0001) // =======================================================
(PID.TID 0000.0001) // Begin MONITOR dynamic field statistics
(PID.TID 0000.0001) // =======================================================
(PID.TID 0000.0001) %MON time_tsnumber                =                 72054
(PID.TID 0000.0001) %MON time_secondsf                =   6.4848600000000E+07
(PID.TID 0000.0001) %MON dynstat_eta_max              =   2.7076875833030E+00
(PID.TID 0000.0001) %MON dynstat_eta_min              =  -1.5920637516277E+00
(PID.TID 0000.0001) %MON dynstat_eta_mean             =   2.7562018155919E-02
(PID.TID 0000.0001) %MON dynstat_eta_sd               =   6.1451716731520E-01
(PID.TID 0000.0001) %MON dynstat_eta_del2             =   2.1528402442737E-03
(PID.TID 0000.0001) %MON dynstat_uvel_max             =   4.3165161201085E-01
(PID.TID 0000.0001) %MON dynstat_uvel_min             =  -6.3035465218469E-01
(PID.TID 0000.0001) %MON dynstat_uvel_mean            =  -4.7481424111701E-04
(PID.TID 0000.0001) %MON dynstat_uvel_sd              =   1.2716082831340E-02
(PID.TID 0000.0001) %MON dynstat_uvel_del2            =   9.5030854436989E-05
(PID.TID 0000.0001) %MON dynstat_vvel_max             =   5.9285607875039E-01
(PID.TID 0000.0001) %MON dynstat_vvel_min             =  -5.9051170828917E-01
(PID.TID 0000.0001) %MON dynstat_vvel_mean            =   4.0666300093035E-04
(PID.TID 0000.0001) %MON dynstat_vvel_sd              =   1.3857738062631E-02
(PID.TID 0000.0001) %MON dynstat_vvel_del2            =   9.0209647423326E-05
(PID.TID 0000.0001) %MON dynstat_wvel_max             =   1.4072448020247E-04
(PID.TID 0000.0001) %MON dynstat_wvel_min             =  -1.9171015177754E-04
(PID.TID 0000.0001) %MON dynstat_wvel_mean            =  -3.0953494607980E-07
(PID.TID 0000.0001) %MON dynstat_wvel_sd              =   8.0446215663984E-06
(PID.TID 0000.0001) %MON dynstat_wvel_del2            =   7.8087625549982E-08
(PID.TID 0000.0001) %MON dynstat_theta_max            =   3.0924906681862E+01
(PID.TID 0000.0001) %MON dynstat_theta_min            =  -3.0052328160930E+00
(PID.TID 0000.0001) %MON dynstat_theta_mean           =   3.9091425242529E+00
(PID.TID 0000.0001) %MON dynstat_theta_sd             =   4.5714351050102E+00
(PID.TID 0000.0001) %MON dynstat_theta_del2           =   2.6423406707589E-03
(PID.TID 0000.0001) %MON dynstat_salt_max             =   4.1349624307883E+01
(PID.TID 0000.0001) %MON dynstat_salt_min             =   1.8518919191276E+01
(PID.TID 0000.0001) %MON dynstat_salt_mean            =   3.4771956852882E+01
(PID.TID 0000.0001) %MON dynstat_salt_sd              =   5.3187363225379E-01
(PID.TID 0000.0001) %MON dynstat_salt_del2            =   1.0413965349392E-03
(PID.TID 0000.0001) %MON dynstat_sst_max              =   3.0924906681862E+01
(PID.TID 0000.0001) %MON dynstat_sst_min              =  -1.8971972575897E+00
(PID.TID 0000.0001) %MON dynstat_sst_mean             =   1.8107595795503E+01
(PID.TID 0000.0001) %MON dynstat_sst_sd               =   9.8110910134540E+00
(PID.TID 0000.0001) %MON dynstat_sst_del2             =   1.5038430011889E-02
(PID.TID 0000.0001) %MON dynstat_sss_max              =   4.1349624307883E+01
(PID.TID 0000.0001) %MON dynstat_sss_min              =   1.8751855665485E+01
(PID.TID 0000.0001) %MON dynstat_sss_mean             =   3.4624740969707E+01
(PID.TID 0000.0001) %MON dynstat_sss_sd               =   1.4804431942608E+00
(PID.TID 0000.0001) %MON dynstat_sss_del2             =   1.1559954380422E-02
(PID.TID 0000.0001) %MON forcing_qnet_max             =   2.0929689941406E+03
(PID.TID 0000.0001) %MON forcing_qnet_min             =  -1.2805106201172E+03
(PID.TID 0000.0001) %MON forcing_qnet_mean            =   1.2534239827638E+01
(PID.TID 0000.0001) %MON forcing_qnet_sd              =   1.9912240907521E+02
(PID.TID 0000.0001) %MON forcing_qnet_del2            =   4.1426749338281E+00
(PID.TID 0000.0001) %MON forcing_qsw_max              =   0.0000000000000E+00
(PID.TID 0000.0001) %MON forcing_qsw_min              =  -9.8597991040786E+01
(PID.TID 0000.0001) %MON forcing_qsw_mean             =  -1.3803450953851E+01
(PID.TID 0000.0001) %MON forcing_qsw_sd               =   2.3115516933700E+01
(PID.TID 0000.0001) %MON forcing_qsw_del2             =   1.9454144982579E-01
(PID.TID 0000.0001) %MON forcing_empmr_max            =   6.4062797464430E-03
(PID.TID 0000.0001) %MON forcing_empmr_min            =  -9.2096447944641E-02
(PID.TID 0000.0001) %MON forcing_empmr_mean           =  -2.8306981797492E-04
(PID.TID 0000.0001) %MON forcing_empmr_sd             =   4.0795573384203E-03
(PID.TID 0000.0001) %MON forcing_empmr_del2           =   1.6080851173061E-04
(PID.TID 0000.0001) %MON forcing_fu_max               =   3.8794006946995E-01
(PID.TID 0000.0001) %MON forcing_fu_min               =  -3.5142021722160E-01
(PID.TID 0000.0001) %MON forcing_fu_mean              =  -3.0853642812879E-03
(PID.TID 0000.0001) %MON forcing_fu_sd                =   6.2269213690947E-02
(PID.TID 0000.0001) %MON forcing_fu_del2              =   6.1901329500465E-04
(PID.TID 0000.0001) %MON forcing_fv_max               =   3.1864196692383E-01
(PID.TID 0000.0001) %MON forcing_fv_min               =  -2.8538701878080E-01
(PID.TID 0000.0001) %MON forcing_fv_mean              =  -1.5051339843701E-02
(PID.TID 0000.0001) %MON forcing_fv_sd                =   6.2848044518234E-02
(PID.TID 0000.0001) %MON forcing_fv_del2              =   5.4163025132318E-04
(PID.TID 0000.0001) %MON trAdv_CFL_u_max              =   1.8333019332856E-03
(PID.TID 0000.0001) %MON trAdv_CFL_v_max              =   1.9559645772742E-03
(PID.TID 0000.0001) %MON trAdv_CFL_w_max              =   1.8852688707689E-03
(PID.TID 0000.0001) %MON advcfl_uvel_max              =   1.8318163897521E-03
(PID.TID 0000.0001) %MON advcfl_vvel_max              =   1.9347056412194E-03
(PID.TID 0000.0001) %MON advcfl_wvel_max              =   3.2033547111180E-03
(PID.TID 0000.0001) %MON advcfl_W_hf_max              =   1.8852688707689E-03
(PID.TID 0000.0001) %MON pe_b_mean                    =   5.0408301577168E-04
(PID.TID 0000.0001) %MON ke_max                       =   2.0851795491519E-01
(PID.TID 0000.0001) %MON ke_mean                      =   1.6355970236042E-04
(PID.TID 0000.0001) %MON ke_vol                       =   1.3398123852458E+18
(PID.TID 0000.0001) %MON vort_r_min                   =  -3.9486501773175E-06
(PID.TID 0000.0001) %MON vort_r_max                   =   2.5664902143794E-06
(PID.TID 0000.0001) %MON vort_a_mean                  =  -2.0549865324846E-05
(PID.TID 0000.0001) %MON vort_a_sd                    =   7.5259694505985E-05
(PID.TID 0000.0001) %MON vort_p_mean                  =  -2.4783288186957E-05
(PID.TID 0000.0001) %MON vort_p_sd                    =   1.2811896915156E-04
(PID.TID 0000.0001) %MON surfExpan_theta_mean         =  -6.9861151232186E-06
(PID.TID 0000.0001) %MON surfExpan_salt_mean          =   1.2725307554601E-06
(PID.TID 0000.0001) // =======================================================
(PID.TID 0000.0001) // End MONITOR dynamic field statistics
(PID.TID 0000.0001) // =======================================================
 cg2d: Sum(rhs),rhsMax =  -4.10502446836308E+01  5.83009919845512E+01
(PID.TID 0000.0001)      cg2d_init_res =   1.76517919748391E-01
(PID.TID 0000.0001)      cg2d_iters(min,last) =      -1      10
(PID.TID 0000.0001)      cg2d_last_res =   8.01715536973987E-08
(PID.TID 0000.0001) // =======================================================
(PID.TID 0000.0001) // Begin MONITOR dynamic field statistics
(PID.TID 0000.0001) // =======================================================
(PID.TID 0000.0001) %MON time_tsnumber                =                 72055
(PID.TID 0000.0001) %MON time_secondsf                =   6.4849500000000E+07
(PID.TID 0000.0001) %MON dynstat_eta_max              =   2.5969380113343E+00
(PID.TID 0000.0001) %MON dynstat_eta_min              =  -1.5907656982500E+00
(PID.TID 0000.0001) %MON dynstat_eta_mean             =   2.7809479962965E-02
(PID.TID 0000.0001) %MON dynstat_eta_sd               =   6.1400215204432E-01
(PID.TID 0000.0001) %MON dynstat_eta_del2             =   2.0473429306719E-03
(PID.TID 0000.0001) %MON dynstat_uvel_max             =   5.0575214834627E-01
(PID.TID 0000.0001) %MON dynstat_uvel_min             =  -6.5184356260528E-01
(PID.TID 0000.0001) %MON dynstat_uvel_mean            =  -4.5841195510567E-04
(PID.TID 0000.0001) %MON dynstat_uvel_sd              =   1.2744494015556E-02
(PID.TID 0000.0001) %MON dynstat_uvel_del2            =   9.5914404778446E-05
(PID.TID 0000.0001) %MON dynstat_vvel_max             =   6.3855569235523E-01
(PID.TID 0000.0001) %MON dynstat_vvel_min             =  -6.0920426819229E-01
(PID.TID 0000.0001) %MON dynstat_vvel_mean            =   4.3529570369796E-04
(PID.TID 0000.0001) %MON dynstat_vvel_sd              =   1.3878994443013E-02
(PID.TID 0000.0001) %MON dynstat_vvel_del2            =   9.2337372166070E-05
(PID.TID 0000.0001) %MON dynstat_wvel_max             =   1.3740470446467E-04
(PID.TID 0000.0001) %MON dynstat_wvel_min             =  -1.9156826079698E-04
(PID.TID 0000.0001) %MON dynstat_wvel_mean            =  -3.2095598404369E-07
(PID.TID 0000.0001) %MON dynstat_wvel_sd              =   8.0678901576608E-06
(PID.TID 0000.0001) %MON dynstat_wvel_del2            =   7.8140199355933E-08
(PID.TID 0000.0001) %MON dynstat_theta_max            =   3.0924863489414E+01
(PID.TID 0000.0001) %MON dynstat_theta_min            =  -3.0054669257894E+00
(PID.TID 0000.0001) %MON dynstat_theta_mean           =   3.9091434344204E+00
(PID.TID 0000.0001) %MON dynstat_theta_sd             =   4.5714379448057E+00
(PID.TID 0000.0001) %MON dynstat_theta_del2           =   2.6421892973444E-03
(PID.TID 0000.0001) %MON dynstat_salt_max             =   4.1349353116034E+01
(PID.TID 0000.0001) %MON dynstat_salt_min             =   1.8518929496192E+01
(PID.TID 0000.0001) %MON dynstat_salt_mean            =   3.4771954353105E+01
(PID.TID 0000.0001) %MON dynstat_salt_sd              =   5.3188933899663E-01
(PID.TID 0000.0001) %MON dynstat_salt_del2            =   1.0453442864520E-03
(PID.TID 0000.0001) %MON dynstat_sst_max              =   3.0924863489414E+01
(PID.TID 0000.0001) %MON dynstat_sst_min              =  -1.8972891645891E+00
(PID.TID 0000.0001) %MON dynstat_sst_mean             =   1.8107565293595E+01
(PID.TID 0000.0001) %MON dynstat_sst_sd               =   9.8111594248809E+00
(PID.TID 0000.0001) %MON dynstat_sst_del2             =   1.5035613902574E-02
(PID.TID 0000.0001) %MON dynstat_sss_max              =   4.1349353116034E+01
(PID.TID 0000.0001) %MON dynstat_sss_min              =   1.8751885043606E+01
(PID.TID 0000.0001) %MON dynstat_sss_mean             =   3.4624561940531E+01
(PID.TID 0000.0001) %MON dynstat_sss_sd               =   1.4808402804809E+00
(PID.TID 0000.0001) %MON dynstat_sss_del2             =   1.1616080012462E-02
(PID.TID 0000.0001) %MON forcing_qnet_max             =   2.6664409949423E+03
(PID.TID 0000.0001) %MON forcing_qnet_min             =  -1.2623337402344E+03
(PID.TID 0000.0001) %MON forcing_qnet_mean            =   1.1483195171249E+01
(PID.TID 0000.0001) %MON forcing_qnet_sd              =   2.0266458013335E+02
(PID.TID 0000.0001) %MON forcing_qnet_del2            =   4.3348970479850E+00
(PID.TID 0000.0001) %MON forcing_qsw_max              =   0.0000000000000E+00
(PID.TID 0000.0001) %MON forcing_qsw_min              =  -1.0005379740735E+02
(PID.TID 0000.0001) %MON forcing_qsw_mean             =  -1.3917324021227E+01
(PID.TID 0000.0001) %MON forcing_qsw_sd               =   2.3234009872657E+01
(PID.TID 0000.0001) %MON forcing_qsw_del2             =   1.9517816697826E-01
(PID.TID 0000.0001) %MON forcing_empmr_max            =   6.3402503728867E-03
(PID.TID 0000.0001) %MON forcing_empmr_min            =  -9.1147445142269E-02
(PID.TID 0000.0001) %MON forcing_empmr_mean           =  -2.8458107810406E-04
(PID.TID 0000.0001) %MON forcing_empmr_sd             =   4.0755964076656E-03
(PID.TID 0000.0001) %MON forcing_empmr_del2           =   1.6041885236501E-04
(PID.TID 0000.0001) %MON forcing_fu_max               =   3.8995766785478E-01
(PID.TID 0000.0001) %MON forcing_fu_min               =  -3.4776311137972E-01
(PID.TID 0000.0001) %MON forcing_fu_mean              =  -3.0024112353168E-03
(PID.TID 0000.0001) %MON forcing_fu_sd                =   6.2425468860081E-02
(PID.TID 0000.0001) %MON forcing_fu_del2              =   6.2023256781489E-04
(PID.TID 0000.0001) %MON forcing_fv_max               =   3.1643505452518E-01
(PID.TID 0000.0001) %MON forcing_fv_min               =  -2.8376364119362E-01
(PID.TID 0000.0001) %MON forcing_fv_mean              =  -1.5090787199382E-02
(PID.TID 0000.0001) %MON forcing_fv_sd                =   6.2738173042333E-02
(PID.TID 0000.0001) %MON forcing_fv_del2              =   5.4121759664322E-04
(PID.TID 0000.0001) %MON trAdv_CFL_u_max              =   1.8960951249023E-03
(PID.TID 0000.0001) %MON trAdv_CFL_v_max              =   2.1097017088447E-03
(PID.TID 0000.0001) %MON trAdv_CFL_w_max              =   1.8964753315885E-03
(PID.TID 0000.0001) %MON advcfl_uvel_max              =   1.8942633601519E-03
(PID.TID 0000.0001) %MON advcfl_vvel_max              =   2.0838401502713E-03
(PID.TID 0000.0001) %MON advcfl_wvel_max              =   3.1703459179920E-03
(PID.TID 0000.0001) %MON advcfl_W_hf_max              =   1.8964753315885E-03
(PID.TID 0000.0001) %MON pe_b_mean                    =   5.0325836068897E-04
(PID.TID 0000.0001) %MON ke_max                       =   2.1732726391344E-01
(PID.TID 0000.0001) %MON ke_mean                      =   1.6416976135408E-04
(PID.TID 0000.0001) %MON ke_vol                       =   1.3398124748156E+18
(PID.TID 0000.0001) %MON vort_r_min                   =  -4.0786237551201E-06
(PID.TID 0000.0001) %MON vort_r_max                   =   2.5803165445073E-06
(PID.TID 0000.0001) %MON vort_a_mean                  =  -2.0549865324846E-05
(PID.TID 0000.0001) %MON vort_a_sd                    =   7.5259702317199E-05
(PID.TID 0000.0001) %MON vort_p_mean                  =  -2.4783286109169E-05
(PID.TID 0000.0001) %MON vort_p_sd                    =   1.2811896664256E-04
(PID.TID 0000.0001) %MON surfExpan_theta_mean         =  -7.0895431877667E-06
(PID.TID 0000.0001) %MON surfExpan_salt_mean          =   1.2894448886898E-06
(PID.TID 0000.0001) // =======================================================
(PID.TID 0000.0001) // End MONITOR dynamic field statistics
(PID.TID 0000.0001) // =======================================================
 Computing Diagnostic #     81  oceTAUX      Counter:       1   Parms: UU      U1      
           Vector  Mate for  oceTAUX      Diagnostic #     82  oceTAUY  exists 
 Computing Diagnostic #     82  oceTAUY      Counter:       1   Parms: VV      U1      
           Vector  Mate for  oceTAUY      Diagnostic #     81  oceTAUX  exists 
 Computing Diagnostic #     85  oceFWflx     Counter:       1   Parms: SM      U1      
 Computing Diagnostic #     86  oceSflux     Counter:       1   Parms: SM      U1      
 Computing Diagnostic #     87  oceQnet      Counter:       1   Parms: SM      U1      
 Computing Diagnostic #     88  oceQsw       Counter:       1   Parms: SM      U1      
 Computing Diagnostic #     27  SALT         Counter:       1   Parms: SMR     MR      
 Computing Diagnostic #     26  THETA        Counter:       1   Parms: SMR     MR      
 Computing Diagnostic #     45  UVELMASS     Counter:       1   Parms: UUr     MR      
           Vector  Mate for  UVELMASS     Diagnostic #     46  VVELMASS exists 
 Computing Diagnostic #     46  VVELMASS     Counter:       1   Parms: VVr     MR      
           Vector  Mate for  VVELMASS     Diagnostic #     45  UVELMASS exists 
 cg2d: Sum(rhs),rhsMax =  -4.35879805280621E+01  5.55262971336766E+01
(PID.TID 0000.0001)      cg2d_init_res =   2.19320437648331E-01
(PID.TID 0000.0001)      cg2d_iters(min,last) =      -1      10
(PID.TID 0000.0001)      cg2d_last_res =   9.39002049967458E-08
(PID.TID 0000.0001) // =======================================================
(PID.TID 0000.0001) // Begin MONITOR dynamic field statistics
(PID.TID 0000.0001) // =======================================================
(PID.TID 0000.0001) %MON time_tsnumber                =                 72056
(PID.TID 0000.0001) %MON time_secondsf                =   6.4850400000000E+07
(PID.TID 0000.0001) %MON dynstat_eta_max              =   2.4735234912124E+00
(PID.TID 0000.0001) %MON dynstat_eta_min              =  -1.5895849680703E+00
(PID.TID 0000.0001) %MON dynstat_eta_mean             =   2.8123322960910E-02
(PID.TID 0000.0001) %MON dynstat_eta_sd               =   6.1345789464355E-01
(PID.TID 0000.0001) %MON dynstat_eta_del2             =   1.9402127297011E-03
(PID.TID 0000.0001) %MON dynstat_uvel_max             =   5.6984044951781E-01
(PID.TID 0000.0001) %MON dynstat_uvel_min             =  -6.7322051094532E-01
(PID.TID 0000.0001) %MON dynstat_uvel_mean            =  -4.4026735817631E-04
(PID.TID 0000.0001) %MON dynstat_uvel_sd              =   1.2777834665174E-02
(PID.TID 0000.0001) %MON dynstat_uvel_del2            =   9.6672710630323E-05
(PID.TID 0000.0001) %MON dynstat_vvel_max             =   6.7193944009573E-01
(PID.TID 0000.0001) %MON dynstat_vvel_min             =  -6.2509008374607E-01
(PID.TID 0000.0001) %MON dynstat_vvel_mean            =   4.6131009378517E-04
(PID.TID 0000.0001) %MON dynstat_vvel_sd              =   1.3895836848959E-02
(PID.TID 0000.0001) %MON dynstat_vvel_del2            =   9.4535127027428E-05
(PID.TID 0000.0001) %MON dynstat_wvel_max             =   1.3390658239352E-04
(PID.TID 0000.0001) %MON dynstat_wvel_min             =  -3.6836609172360E-04
(PID.TID 0000.0001) %MON dynstat_wvel_mean            =  -3.4460986927749E-07
(PID.TID 0000.0001) %MON dynstat_wvel_sd              =   8.2845384776786E-06
(PID.TID 0000.0001) %MON dynstat_wvel_del2            =   8.3140065293161E-08
(PID.TID 0000.0001) %MON dynstat_theta_max            =   3.0924814156636E+01
(PID.TID 0000.0001) %MON dynstat_theta_min            =  -3.0057049540855E+00
(PID.TID 0000.0001) %MON dynstat_theta_mean           =   3.9091444288746E+00
(PID.TID 0000.0001) %MON dynstat_theta_sd             =   4.5714406361764E+00
(PID.TID 0000.0001) %MON dynstat_theta_del2           =   2.6420262466058E-03
(PID.TID 0000.0001) %MON dynstat_salt_max             =   4.1349098915262E+01
(PID.TID 0000.0001) %MON dynstat_salt_min             =   1.8518939795263E+01
(PID.TID 0000.0001) %MON dynstat_salt_mean            =   3.4771951830214E+01
(PID.TID 0000.0001) %MON dynstat_salt_sd              =   5.3190461719894E-01
(PID.TID 0000.0001) %MON dynstat_salt_del2            =   1.0492250966190E-03
(PID.TID 0000.0001) %MON dynstat_sst_max              =   3.0924814156636E+01
(PID.TID 0000.0001) %MON dynstat_sst_min              =  -1.8973944694481E+00
(PID.TID 0000.0001) %MON dynstat_sst_mean             =   1.8107518338066E+01
(PID.TID 0000.0001) %MON dynstat_sst_sd               =   9.8112242168840E+00
(PID.TID 0000.0001) %MON dynstat_sst_del2             =   1.5032677810084E-02
(PID.TID 0000.0001) %MON dynstat_sss_max              =   4.1349098915262E+01
(PID.TID 0000.0001) %MON dynstat_sss_min              =   1.8751912963473E+01
(PID.TID 0000.0001) %MON dynstat_sss_mean             =   3.4624378392171E+01
(PID.TID 0000.0001) %MON dynstat_sss_sd               =   1.4812246506207E+00
(PID.TID 0000.0001) %MON dynstat_sss_del2             =   1.1671203216275E-02
(PID.TID 0000.0001) %MON forcing_qnet_max             =   2.1989915777569E+04
(PID.TID 0000.0001) %MON forcing_qnet_min             =  -1.2443925781250E+03
(PID.TID 0000.0001) %MON forcing_qnet_mean            =   1.4918000470164E+01
(PID.TID 0000.0001) %MON forcing_qnet_sd              =   3.9058680713537E+02
(PID.TID 0000.0001) %MON forcing_qnet_del2            =   1.2815087477680E+01
(PID.TID 0000.0001) %MON forcing_qsw_max              =   0.0000000000000E+00
(PID.TID 0000.0001) %MON forcing_qsw_min              =  -1.0106496924067E+02
(PID.TID 0000.0001) %MON forcing_qsw_mean             =  -1.3992997098274E+01
(PID.TID 0000.0001) %MON forcing_qsw_sd               =   2.3352393721779E+01
(PID.TID 0000.0001) %MON forcing_qsw_del2             =   1.9565208090138E-01
(PID.TID 0000.0001) %MON forcing_empmr_max            =   6.2749106436968E-03
(PID.TID 0000.0001) %MON forcing_empmr_min            =  -3.8125890493393E-01
(PID.TID 0000.0001) %MON forcing_empmr_mean           =  -3.6091944763647E-04
(PID.TID 0000.0001) %MON forcing_empmr_sd             =   7.0547866877427E-03
(PID.TID 0000.0001) %MON forcing_empmr_del2           =   2.6307211850095E-04
(PID.TID 0000.0001) %MON forcing_fu_max               =   3.8741882470751E-01
(PID.TID 0000.0001) %MON forcing_fu_min               =  -3.4263157800989E-01
(PID.TID 0000.0001) %MON forcing_fu_mean              =  -3.0357668388122E-03
(PID.TID 0000.0001) %MON forcing_fu_sd                =   6.2572666892265E-02
(PID.TID 0000.0001) %MON forcing_fu_del2              =   6.2167074270590E-04
(PID.TID 0000.0001) %MON forcing_fv_max               =   3.1587951236994E-01
(PID.TID 0000.0001) %MON forcing_fv_min               =  -2.8195556248055E-01
(PID.TID 0000.0001) %MON forcing_fv_mean              =  -1.5083929325793E-02
(PID.TID 0000.0001) %MON forcing_fv_sd                =   6.2652419480758E-02
(PID.TID 0000.0001) %MON forcing_fv_del2              =   5.4146563553219E-04
(PID.TID 0000.0001) %MON trAdv_CFL_u_max              =   1.9587033653069E-03
(PID.TID 0000.0001) %MON trAdv_CFL_v_max              =   2.2235014464639E-03
(PID.TID 0000.0001) %MON trAdv_CFL_w_max              =   6.0981581064206E-03
(PID.TID 0000.0001) %MON advcfl_uvel_max              =   1.9563849677207E-03
(PID.TID 0000.0001) %MON advcfl_vvel_max              =   2.1927834965463E-03
(PID.TID 0000.0001) %MON advcfl_wvel_max              =   1.3261179302050E-02
(PID.TID 0000.0001) %MON advcfl_W_hf_max              =   6.0981581064206E-03
(PID.TID 0000.0001) %MON pe_b_mean                    =   5.0239174707275E-04
(PID.TID 0000.0001) %MON ke_max                       =   2.2576796156172E-01
(PID.TID 0000.0001) %MON ke_mean                      =   1.6478109276831E-04
(PID.TID 0000.0001) %MON ke_vol                       =   1.3398125648637E+18
(PID.TID 0000.0001) %MON vort_r_min                   =  -4.1991847462618E-06
(PID.TID 0000.0001) %MON vort_r_max                   =   2.6156457351574E-06
(PID.TID 0000.0001) %MON vort_a_mean                  =  -2.0549865324846E-05
(PID.TID 0000.0001) %MON vort_a_sd                    =   7.5259709599036E-05
(PID.TID 0000.0001) %MON vort_p_mean                  =  -2.4783283994399E-05
(PID.TID 0000.0001) %MON vort_p_sd                    =   1.2811896427720E-04
(PID.TID 0000.0001) %MON surfExpan_theta_mean         =  -7.9257104151454E-06
(PID.TID 0000.0001) %MON surfExpan_salt_mean          =   1.2423149352951E-06
(PID.TID 0000.0001) // =======================================================
(PID.TID 0000.0001) // End MONITOR dynamic field statistics
(PID.TID 0000.0001) // =======================================================
 cg2d: Sum(rhs),rhsMax =  -4.66059738743327E+01  5.24929749726376E+01
(PID.TID 0000.0001)      cg2d_init_res =   2.15698635779324E-01
(PID.TID 0000.0001)      cg2d_iters(min,last) =      -1      10
(PID.TID 0000.0001)      cg2d_last_res =   8.72263263056061E-08
(PID.TID 0000.0001) // =======================================================
(PID.TID 0000.0001) // Begin MONITOR dynamic field statistics
(PID.TID 0000.0001) // =======================================================
(PID.TID 0000.0001) %MON time_tsnumber                =                 72057
(PID.TID 0000.0001) %MON time_secondsf                =   6.4851300000000E+07
(PID.TID 0000.0001) %MON dynstat_eta_max              =   2.3386125518449E+00
(PID.TID 0000.0001) %MON dynstat_eta_min              =  -1.5884680565311E+00
(PID.TID 0000.0001) %MON dynstat_eta_mean             =   2.8427845545931E-02
(PID.TID 0000.0001) %MON dynstat_eta_sd               =   6.1296263406311E-01
(PID.TID 0000.0001) %MON dynstat_eta_del2             =   1.8317257325654E-03
(PID.TID 0000.0001) %MON dynstat_uvel_max             =   6.2309984459146E-01
(PID.TID 0000.0001) %MON dynstat_uvel_min             =  -6.9423765375950E-01
(PID.TID 0000.0001) %MON dynstat_uvel_mean            =  -4.2079577925298E-04
(PID.TID 0000.0001) %MON dynstat_uvel_sd              =   1.2815258464785E-02
(PID.TID 0000.0001) %MON dynstat_uvel_del2            =   9.7286512351221E-05
(PID.TID 0000.0001) %MON dynstat_vvel_max             =   6.9300128646245E-01
(PID.TID 0000.0001) %MON dynstat_vvel_min             =  -6.3799401798903E-01
(PID.TID 0000.0001) %MON dynstat_vvel_mean            =   4.8463433547991E-04
(PID.TID 0000.0001) %MON dynstat_vvel_sd              =   1.3907403135365E-02
(PID.TID 0000.0001) %MON dynstat_vvel_del2            =   9.6636736367262E-05
(PID.TID 0000.0001) %MON dynstat_wvel_max             =   1.3011377862375E-04
(PID.TID 0000.0001) %MON dynstat_wvel_min             =  -3.3303058665732E-04
(PID.TID 0000.0001) %MON dynstat_wvel_mean            =  -3.5308233485017E-07
(PID.TID 0000.0001) %MON dynstat_wvel_sd              =   8.2582515110217E-06
(PID.TID 0000.0001) %MON dynstat_wvel_del2            =   8.1826362367064E-08
(PID.TID 0000.0001) %MON dynstat_theta_max            =   3.0924758690897E+01
(PID.TID 0000.0001) %MON dynstat_theta_min            =  -3.0059415962749E+00
(PID.TID 0000.0001) %MON dynstat_theta_mean           =   3.9091455488551E+00
(PID.TID 0000.0001) %MON dynstat_theta_sd             =   4.5714435264526E+00
(PID.TID 0000.0001) %MON dynstat_theta_del2           =   2.6418771928468E-03
(PID.TID 0000.0001) %MON dynstat_salt_max             =   4.1348862497025E+01
(PID.TID 0000.0001) %MON dynstat_salt_min             =   1.8518950089626E+01
(PID.TID 0000.0001) %MON dynstat_salt_mean            =   3.4771949392823E+01
(PID.TID 0000.0001) %MON dynstat_salt_sd              =   5.3191980852599E-01
(PID.TID 0000.0001) %MON dynstat_salt_del2            =   1.0530395066401E-03
(PID.TID 0000.0001) %MON dynstat_sst_max              =   3.0924758690897E+01
(PID.TID 0000.0001) %MON dynstat_sst_min              =  -1.8975105397662E+00
(PID.TID 0000.0001) %MON dynstat_sst_mean             =   1.8107482817216E+01
(PID.TID 0000.0001) %MON dynstat_sst_sd               =   9.8112874047561E+00
(PID.TID 0000.0001) %MON dynstat_sst_del2             =   1.5030037622622E-02
(PID.TID 0000.0001) %MON dynstat_sss_max              =   4.1348862497025E+01
(PID.TID 0000.0001) %MON dynstat_sss_min              =   1.8751939610458E+01
(PID.TID 0000.0001) %MON dynstat_sss_mean             =   3.4624200140416E+01
(PID.TID 0000.0001) %MON dynstat_sss_sd               =   1.4816084112138E+00
(PID.TID 0000.0001) %MON dynstat_sss_del2             =   1.1725333674489E-02
(PID.TID 0000.0001) %MON forcing_qnet_max             =   1.9088769418519E+04
(PID.TID 0000.0001) %MON forcing_qnet_min             =  -1.4487712402344E+03
(PID.TID 0000.0001) %MON forcing_qnet_mean            =   1.1850591157774E+01
(PID.TID 0000.0001) %MON forcing_qnet_sd              =   3.5461219454227E+02
(PID.TID 0000.0001) %MON forcing_qnet_del2            =   1.1343815996223E+01
(PID.TID 0000.0001) %MON forcing_qsw_max              =   0.0000000000000E+00
(PID.TID 0000.0001) %MON forcing_qsw_min              =  -1.0221718269377E+02
(PID.TID 0000.0001) %MON forcing_qsw_mean             =  -1.4269036948283E+01
(PID.TID 0000.0001) %MON forcing_qsw_sd               =   2.3895102817640E+01
(PID.TID 0000.0001) %MON forcing_qsw_del2             =   2.0077727254375E-01
(PID.TID 0000.0001) %MON forcing_empmr_max            =   6.2102596275508E-03
(PID.TID 0000.0001) %MON forcing_empmr_min            =  -3.4468665719032E-01
(PID.TID 0000.0001) %MON forcing_empmr_mean           =  -3.5020097277383E-04
(PID.TID 0000.0001) %MON forcing_empmr_sd             =   6.5755929339834E-03
(PID.TID 0000.0001) %MON forcing_empmr_del2           =   2.4607131258429E-04
(PID.TID 0000.0001) %MON forcing_fu_max               =   3.8361644583423E-01
(PID.TID 0000.0001) %MON forcing_fu_min               =  -3.3856550407384E-01
(PID.TID 0000.0001) %MON forcing_fu_mean              =  -3.1119238102460E-03
(PID.TID 0000.0001) %MON forcing_fu_sd                =   6.2639876576331E-02
(PID.TID 0000.0001) %MON forcing_fu_del2              =   6.2267170744790E-04
(PID.TID 0000.0001) %MON forcing_fv_max               =   3.1489782867394E-01
(PID.TID 0000.0001) %MON forcing_fv_min               =  -2.7971691369942E-01
(PID.TID 0000.0001) %MON forcing_fv_mean              =  -1.5067601455525E-02
(PID.TID 0000.0001) %MON forcing_fv_sd                =   6.2516704386675E-02
(PID.TID 0000.0001) %MON forcing_fv_del2              =   5.4111869817246E-04
(PID.TID 0000.0001) %MON trAdv_CFL_u_max              =   2.0223988882556E-03
(PID.TID 0000.0001) %MON trAdv_CFL_v_max              =   2.2971336956551E-03
(PID.TID 0000.0001) %MON trAdv_CFL_w_max              =   5.4532883624919E-03
(PID.TID 0000.0001) %MON advcfl_uvel_max              =   2.0778925707531E-03
(PID.TID 0000.0001) %MON advcfl_vvel_max              =   2.2615159839758E-03
(PID.TID 0000.0001) %MON advcfl_wvel_max              =   1.1989101119663E-02
(PID.TID 0000.0001) %MON advcfl_W_hf_max              =   5.4532883624919E-03
(PID.TID 0000.0001) %MON pe_b_mean                    =   5.0160548591504E-04
(PID.TID 0000.0001) %MON ke_max                       =   2.3378164451188E-01
(PID.TID 0000.0001) %MON ke_mean                      =   1.6537287590971E-04
(PID.TID 0000.0001) %MON ke_vol                       =   1.3398126790670E+18
(PID.TID 0000.0001) %MON vort_r_min                   =  -4.3089645262195E-06
(PID.TID 0000.0001) %MON vort_r_max                   =   2.6228172313471E-06
(PID.TID 0000.0001) %MON vort_a_mean                  =  -2.0549865324846E-05
(PID.TID 0000.0001) %MON vort_a_sd                    =   7.5259716316526E-05
(PID.TID 0000.0001) %MON vort_p_mean                  =  -2.4783281485697E-05
(PID.TID 0000.0001) %MON vort_p_sd                    =   1.2811895382706E-04
(PID.TID 0000.0001) %MON surfExpan_theta_mean         =  -7.9166375488583E-06
(PID.TID 0000.0001) %MON surfExpan_salt_mean          =   1.2610741076781E-06
(PID.TID 0000.0001) // =======================================================
(PID.TID 0000.0001) // End MONITOR dynamic field statistics
(PID.TID 0000.0001) // =======================================================
 cg2d: Sum(rhs),rhsMax =  -5.01083992818591E+01  4.92300517488441E+01
(PID.TID 0000.0001)      cg2d_init_res =   2.43701999986825E-01
(PID.TID 0000.0001)      cg2d_iters(min,last) =      -1      10
(PID.TID 0000.0001)      cg2d_last_res =   8.55722492190422E-08
(PID.TID 0000.0001) // =======================================================
(PID.TID 0000.0001) // Begin MONITOR dynamic field statistics
(PID.TID 0000.0001) // =======================================================
(PID.TID 0000.0001) %MON time_tsnumber                =                 72058
(PID.TID 0000.0001) %MON time_secondsf                =   6.4852200000000E+07
(PID.TID 0000.0001) %MON dynstat_eta_max              =   2.1934923782435E+00
(PID.TID 0000.0001) %MON dynstat_eta_min              =  -1.5873511613564E+00
(PID.TID 0000.0001) %MON dynstat_eta_mean             =   2.8664343191756E-02
(PID.TID 0000.0001) %MON dynstat_eta_sd               =   6.1253713117074E-01
(PID.TID 0000.0001) %MON dynstat_eta_del2             =   1.7128746041318E-03
(PID.TID 0000.0001) %MON dynstat_uvel_max             =   6.6495379769615E-01
(PID.TID 0000.0001) %MON dynstat_uvel_min             =  -7.1462402871037E-01
(PID.TID 0000.0001) %MON dynstat_uvel_mean            =  -4.0104777601856E-04
(PID.TID 0000.0001) %MON dynstat_uvel_sd              =   1.2855389972307E-02
(PID.TID 0000.0001) %MON dynstat_uvel_del2            =   9.7705975660345E-05
(PID.TID 0000.0001) %MON dynstat_vvel_max             =   7.0195017051721E-01
(PID.TID 0000.0001) %MON dynstat_vvel_min             =  -6.4777357242939E-01
(PID.TID 0000.0001) %MON dynstat_vvel_mean            =   5.0448168844341E-04
(PID.TID 0000.0001) %MON dynstat_vvel_sd              =   1.3910921612813E-02
(PID.TID 0000.0001) %MON dynstat_vvel_del2            =   9.8477588767889E-05
(PID.TID 0000.0001) %MON dynstat_wvel_max             =   1.2593192879743E-04
(PID.TID 0000.0001) %MON dynstat_wvel_min             =  -1.9133182887810E-04
(PID.TID 0000.0001) %MON dynstat_wvel_mean            =  -3.4455740672433E-07
(PID.TID 0000.0001) %MON dynstat_wvel_sd              =   8.0990696391538E-06
(PID.TID 0000.0001) %MON dynstat_wvel_del2            =   7.7358114144652E-08
(PID.TID 0000.0001) %MON dynstat_theta_max            =   3.0924697086452E+01
(PID.TID 0000.0001) %MON dynstat_theta_min            =  -3.0061729667430E+00
(PID.TID 0000.0001) %MON dynstat_theta_mean           =   3.9091466763018E+00
(PID.TID 0000.0001) %MON dynstat_theta_sd             =   4.5714467649287E+00
(PID.TID 0000.0001) %MON dynstat_theta_del2           =   2.6417364936490E-03
(PID.TID 0000.0001) %MON dynstat_salt_max             =   4.1348644265919E+01
(PID.TID 0000.0001) %MON dynstat_salt_min             =   1.8518960379949E+01
(PID.TID 0000.0001) %MON dynstat_salt_mean            =   3.4771947042994E+01
(PID.TID 0000.0001) %MON dynstat_salt_sd              =   5.3193497921363E-01
(PID.TID 0000.0001) %MON dynstat_salt_del2            =   1.0567821340205E-03
(PID.TID 0000.0001) %MON dynstat_sst_max              =   3.0924697086452E+01
(PID.TID 0000.0001) %MON dynstat_sst_min              =  -1.8976356786993E+00
(PID.TID 0000.0001) %MON dynstat_sst_mean             =   1.8107469602716E+01
(PID.TID 0000.0001) %MON dynstat_sst_sd               =   9.8113509192285E+00
(PID.TID 0000.0001) %MON dynstat_sst_del2             =   1.5027448994659E-02
(PID.TID 0000.0001) %MON dynstat_sss_max              =   4.1348644265919E+01
(PID.TID 0000.0001) %MON dynstat_sss_min              =   1.8751965058892E+01
(PID.TID 0000.0001) %MON dynstat_sss_mean             =   3.4624029454034E+01
(PID.TID 0000.0001) %MON dynstat_sss_sd               =   1.4819944757170E+00
(PID.TID 0000.0001) %MON dynstat_sss_del2             =   1.1778396505604E-02
(PID.TID 0000.0001) %MON forcing_qnet_max             =   1.9958286132812E+03
(PID.TID 0000.0001) %MON forcing_qnet_min             =  -1.2103656005859E+03
(PID.TID 0000.0001) %MON forcing_qnet_mean            =   6.3717572375107E+00
(PID.TID 0000.0001) %MON forcing_qnet_sd              =   2.0312974204201E+02
(PID.TID 0000.0001) %MON forcing_qnet_del2            =   4.2056662690712E+00
(PID.TID 0000.0001) %MON forcing_qsw_max              =   0.0000000000000E+00
(PID.TID 0000.0001) %MON forcing_qsw_min              =  -1.0232902057834E+02
(PID.TID 0000.0001) %MON forcing_qsw_mean             =  -1.4406721964476E+01
(PID.TID 0000.0001) %MON forcing_qsw_sd               =   2.4216339209544E+01
(PID.TID 0000.0001) %MON forcing_qsw_del2             =   2.0301565686706E-01
(PID.TID 0000.0001) %MON forcing_empmr_max            =   6.1462968587875E-03
(PID.TID 0000.0001) %MON forcing_empmr_min            =  -8.8359162211418E-02
(PID.TID 0000.0001) %MON forcing_empmr_mean           =  -2.7197229269905E-04
(PID.TID 0000.0001) %MON forcing_empmr_sd             =   3.9064901486997E-03
(PID.TID 0000.0001) %MON forcing_empmr_del2           =   1.5398741934768E-04
(PID.TID 0000.0001) %MON forcing_fu_max               =   3.8392043864091E-01
(PID.TID 0000.0001) %MON forcing_fu_min               =  -3.4087695212814E-01
(PID.TID 0000.0001) %MON forcing_fu_mean              =  -3.1304636765906E-03
(PID.TID 0000.0001) %MON forcing_fu_sd                =   6.2793967138630E-02
(PID.TID 0000.0001) %MON forcing_fu_del2              =   6.2436494318380E-04
(PID.TID 0000.0001) %MON forcing_fv_max               =   3.0992922087544E-01
(PID.TID 0000.0001) %MON forcing_fv_min               =  -2.7728068136597E-01
(PID.TID 0000.0001) %MON forcing_fv_mean              =  -1.5086767288301E-02
(PID.TID 0000.0001) %MON forcing_fv_sd                =   6.2388498765519E-02
(PID.TID 0000.0001) %MON forcing_fv_del2              =   5.4077303279069E-04
(PID.TID 0000.0001) %MON trAdv_CFL_u_max              =   2.1622816176661E-03
(PID.TID 0000.0001) %MON trAdv_CFL_v_max              =   2.3310335675455E-03
(PID.TID 0000.0001) %MON trAdv_CFL_w_max              =   1.8854577879926E-03
(PID.TID 0000.0001) %MON advcfl_uvel_max              =   2.2174657370246E-03
(PID.TID 0000.0001) %MON advcfl_vvel_max              =   2.2907194569331E-03
(PID.TID 0000.0001) %MON advcfl_wvel_max              =   3.0733621638754E-03
(PID.TID 0000.0001) %MON advcfl_W_hf_max              =   1.8854577879926E-03
(PID.TID 0000.0001) %MON pe_b_mean                    =   5.0092876435270E-04
(PID.TID 0000.0001) %MON ke_max                       =   2.4127895597324E-01
(PID.TID 0000.0001) %MON ke_mean                      =   1.6589324743954E-04
(PID.TID 0000.0001) %MON ke_vol                       =   1.3398127898787E+18
(PID.TID 0000.0001) %MON vort_r_min                   =  -4.4066247092196E-06
(PID.TID 0000.0001) %MON vort_r_max                   =   2.7286431644413E-06
(PID.TID 0000.0001) %MON vort_a_mean                  =  -2.0549865324846E-05
(PID.TID 0000.0001) %MON vort_a_sd                    =   7.5259722286339E-05
(PID.TID 0000.0001) %MON vort_p_mean                  =  -2.4783278999825E-05
(PID.TID 0000.0001) %MON vort_p_sd                    =   1.2811895050970E-04
(PID.TID 0000.0001) %MON surfExpan_theta_mean         =  -7.2237534460149E-06
(PID.TID 0000.0001) %MON surfExpan_salt_mean          =   1.3283761637586E-06
(PID.TID 0000.0001) // =======================================================
(PID.TID 0000.0001) // End MONITOR dynamic field statistics
(PID.TID 0000.0001) // =======================================================
 cg2d: Sum(rhs),rhsMax =  -5.43319953401802E+01  4.57687910138953E+01
(PID.TID 0000.0001)      cg2d_init_res =   2.63416146846095E-01
(PID.TID 0000.0001)      cg2d_iters(min,last) =      -1      10
(PID.TID 0000.0001)      cg2d_last_res =   8.22499362749822E-08
(PID.TID 0000.0001) // =======================================================
(PID.TID 0000.0001) // Begin MONITOR dynamic field statistics
(PID.TID 0000.0001) // =======================================================
(PID.TID 0000.0001) %MON time_tsnumber                =                 72059
(PID.TID 0000.0001) %MON time_secondsf                =   6.4853100000000E+07
(PID.TID 0000.0001) %MON dynstat_eta_max              =   2.0395499353837E+00
(PID.TID 0000.0001) %MON dynstat_eta_min              =  -1.5861706273452E+00
(PID.TID 0000.0001) %MON dynstat_eta_mean             =   2.8895237515080E-02
(PID.TID 0000.0001) %MON dynstat_eta_sd               =   6.1218303556868E-01
(PID.TID 0000.0001) %MON dynstat_eta_del2             =   1.6085676077861E-03
(PID.TID 0000.0001) %MON dynstat_uvel_max             =   6.9507075213341E-01
(PID.TID 0000.0001) %MON dynstat_uvel_min             =  -7.3409108872729E-01
(PID.TID 0000.0001) %MON dynstat_uvel_mean            =  -3.8164204011415E-04
(PID.TID 0000.0001) %MON dynstat_uvel_sd              =   1.2896258016668E-02
(PID.TID 0000.0001) %MON dynstat_uvel_del2            =   9.7916325326476E-05
(PID.TID 0000.0001) %MON dynstat_vvel_max             =   6.9919293646010E-01
(PID.TID 0000.0001) %MON dynstat_vvel_min             =  -6.5430670782483E-01
(PID.TID 0000.0001) %MON dynstat_vvel_mean            =   5.2071474716805E-04
(PID.TID 0000.0001) %MON dynstat_vvel_sd              =   1.3905908070344E-02
(PID.TID 0000.0001) %MON dynstat_vvel_del2            =   9.9940972030360E-05
(PID.TID 0000.0001) %MON dynstat_wvel_max             =   1.2129259766005E-04
(PID.TID 0000.0001) %MON dynstat_wvel_min             =  -1.9130605288031E-04
(PID.TID 0000.0001) %MON dynstat_wvel_mean            =  -3.4142986338910E-07
(PID.TID 0000.0001) %MON dynstat_wvel_sd              =   8.0814989390873E-06
(PID.TID 0000.0001) %MON dynstat_wvel_del2            =   7.6780242978507E-08
(PID.TID 0000.0001) %MON dynstat_theta_max            =   3.0924629313261E+01
(PID.TID 0000.0001) %MON dynstat_theta_min            =  -3.0063981027102E+00
(PID.TID 0000.0001) %MON dynstat_theta_mean           =   3.9091478020428E+00
(PID.TID 0000.0001) %MON dynstat_theta_sd             =   4.5714501113835E+00
(PID.TID 0000.0001) %MON dynstat_theta_del2           =   2.6416118237485E-03
(PID.TID 0000.0001) %MON dynstat_salt_max             =   4.1348444339465E+01
(PID.TID 0000.0001) %MON dynstat_salt_min             =   1.8518970666181E+01
(PID.TID 0000.0001) %MON dynstat_salt_mean            =   3.4771944705397E+01
(PID.TID 0000.0001) %MON dynstat_salt_sd              =   5.3194994314889E-01
(PID.TID 0000.0001) %MON dynstat_salt_del2            =   1.0604597340225E-03
(PID.TID 0000.0001) %MON dynstat_sst_max              =   3.0924629313261E+01
(PID.TID 0000.0001) %MON dynstat_sst_min              =  -1.8977669082398E+00
(PID.TID 0000.0001) %MON dynstat_sst_mean             =   1.8107455320302E+01
(PID.TID 0000.0001) %MON dynstat_sst_sd               =   9.8114112072018E+00
(PID.TID 0000.0001) %MON dynstat_sst_del2             =   1.5025192334460E-02
(PID.TID 0000.0001) %MON dynstat_sss_max              =   4.1348444339465E+01
(PID.TID 0000.0001) %MON dynstat_sss_min              =   1.8751989407976E+01
(PID.TID 0000.0001) %MON dynstat_sss_mean             =   3.4623858710936E+01
(PID.TID 0000.0001) %MON dynstat_sss_sd               =   1.4823752365299E+00
(PID.TID 0000.0001) %MON dynstat_sss_del2             =   1.1830469196290E-02
(PID.TID 0000.0001) %MON forcing_qnet_max             =   1.9733515625000E+03
(PID.TID 0000.0001) %MON forcing_qnet_min             =  -1.1931035156250E+03
(PID.TID 0000.0001) %MON forcing_qnet_mean            =   5.7289522374560E+00
(PID.TID 0000.0001) %MON forcing_qnet_sd              =   2.0303771762996E+02
(PID.TID 0000.0001) %MON forcing_qnet_del2            =   4.1024970611285E+00
(PID.TID 0000.0001) %MON forcing_qsw_max              =   0.0000000000000E+00
(PID.TID 0000.0001) %MON forcing_qsw_min              =  -1.0198662015551E+02
(PID.TID 0000.0001) %MON forcing_qsw_mean             =  -1.4502355169325E+01
(PID.TID 0000.0001) %MON forcing_qsw_sd               =   2.4520948762336E+01
(PID.TID 0000.0001) %MON forcing_qsw_del2             =   2.0512730836313E-01
(PID.TID 0000.0001) %MON forcing_empmr_max            =   6.0829250141978E-03
(PID.TID 0000.0001) %MON forcing_empmr_min            =  -8.7448745965958E-02
(PID.TID 0000.0001) %MON forcing_empmr_mean           =  -2.6552847182262E-04
(PID.TID 0000.0001) %MON forcing_empmr_sd             =   3.8529850646093E-03
(PID.TID 0000.0001) %MON forcing_empmr_del2           =   1.5194268329545E-04
(PID.TID 0000.0001) %MON forcing_fu_max               =   3.8536471154625E-01
(PID.TID 0000.0001) %MON forcing_fu_min               =  -3.6487176107788E-01
(PID.TID 0000.0001) %MON forcing_fu_mean              =  -3.1492375387590E-03
(PID.TID 0000.0001) %MON forcing_fu_sd                =   6.3054104996631E-02
(PID.TID 0000.0001) %MON forcing_fu_del2              =   6.2684851800891E-04
(PID.TID 0000.0001) %MON forcing_fv_max               =   2.9835817549966E-01
(PID.TID 0000.0001) %MON forcing_fv_min               =  -2.7507552655496E-01
(PID.TID 0000.0001) %MON forcing_fv_mean              =  -1.5105685290786E-02
(PID.TID 0000.0001) %MON forcing_fv_sd                =   6.2208165536639E-02
(PID.TID 0000.0001) %MON forcing_fv_del2              =   5.3933890252134E-04
(PID.TID 0000.0001) %MON trAdv_CFL_u_max              =   2.2646442527927E-03
(PID.TID 0000.0001) %MON trAdv_CFL_v_max              =   2.3262652935730E-03
(PID.TID 0000.0001) %MON trAdv_CFL_w_max              =   1.8680439396196E-03
(PID.TID 0000.0001) %MON advcfl_uvel_max              =   2.3178987517687E-03
(PID.TID 0000.0001) %MON advcfl_vvel_max              =   2.2817215964478E-03
(PID.TID 0000.0001) %MON advcfl_wvel_max              =   3.0416955118594E-03
(PID.TID 0000.0001) %MON advcfl_W_hf_max              =   1.8680439396196E-03
(PID.TID 0000.0001) %MON pe_b_mean                    =   5.0036871556419E-04
(PID.TID 0000.0001) %MON ke_max                       =   2.4813468258002E-01
(PID.TID 0000.0001) %MON ke_mean                      =   1.6631279553782E-04
(PID.TID 0000.0001) %MON ke_vol                       =   1.3398128759371E+18
(PID.TID 0000.0001) %MON vort_r_min                   =  -4.4908358321316E-06
(PID.TID 0000.0001) %MON vort_r_max                   =   2.8451839361351E-06
(PID.TID 0000.0001) %MON vort_a_mean                  =  -2.0549865324846E-05
(PID.TID 0000.0001) %MON vort_a_sd                    =   7.5259727465836E-05
(PID.TID 0000.0001) %MON vort_p_mean                  =  -2.4783276875767E-05
(PID.TID 0000.0001) %MON vort_p_sd                    =   1.2811896336187E-04
(PID.TID 0000.0001) %MON surfExpan_theta_mean         =  -7.1790202844535E-06
(PID.TID 0000.0001) %MON surfExpan_salt_mean          =   1.3388412308701E-06
(PID.TID 0000.0001) // =======================================================
(PID.TID 0000.0001) // End MONITOR dynamic field statistics
(PID.TID 0000.0001) // =======================================================
 Computing Diagnostic #     81  oceTAUX      Counter:       1   Parms: UU      U1      
           Vector  Mate for  oceTAUX      Diagnostic #     82  oceTAUY  exists 
 Computing Diagnostic #     82  oceTAUY      Counter:       1   Parms: VV      U1      
           Vector  Mate for  oceTAUY      Diagnostic #     81  oceTAUX  exists 
 Computing Diagnostic #     85  oceFWflx     Counter:       1   Parms: SM      U1      
 Computing Diagnostic #     86  oceSflux     Counter:       1   Parms: SM      U1      
 Computing Diagnostic #     87  oceQnet      Counter:       1   Parms: SM      U1      
 Computing Diagnostic #     88  oceQsw       Counter:       1   Parms: SM      U1      
 Computing Diagnostic #     27  SALT         Counter:       1   Parms: SMR     MR      
 Computing Diagnostic #     26  THETA        Counter:       1   Parms: SMR     MR      
 Computing Diagnostic #     45  UVELMASS     Counter:       1   Parms: UUr     MR      
           Vector  Mate for  UVELMASS     Diagnostic #     46  VVELMASS exists 
 Computing Diagnostic #     46  VVELMASS     Counter:       1   Parms: VVr     MR      
           Vector  Mate for  VVELMASS     Diagnostic #     45  UVELMASS exists 
 cg2d: Sum(rhs),rhsMax =  -5.94729998292681E+01  4.21422860908254E+01
(PID.TID 0000.0001)      cg2d_init_res =   2.77985067880835E-01
(PID.TID 0000.0001)      cg2d_iters(min,last) =      -1      10
(PID.TID 0000.0001)      cg2d_last_res =   7.96067844751797E-08
(PID.TID 0000.0001) // =======================================================
(PID.TID 0000.0001) // Begin MONITOR dynamic field statistics
(PID.TID 0000.0001) // =======================================================
(PID.TID 0000.0001) %MON time_tsnumber                =                 72060
(PID.TID 0000.0001) %MON time_secondsf                =   6.4854000000000E+07
(PID.TID 0000.0001) %MON dynstat_eta_max              =   1.8782539308251E+00
(PID.TID 0000.0001) %MON dynstat_eta_min              =  -1.5848740549966E+00
(PID.TID 0000.0001) %MON dynstat_eta_mean             =   2.9123201110266E-02
(PID.TID 0000.0001) %MON dynstat_eta_sd               =   6.1189794813088E-01
(PID.TID 0000.0001) %MON dynstat_eta_del2             =   1.5219630217668E-03
(PID.TID 0000.0001) %MON dynstat_uvel_max             =   7.1336202972330E-01
(PID.TID 0000.0001) %MON dynstat_uvel_min             =  -7.5233806675164E-01
(PID.TID 0000.0001) %MON dynstat_uvel_mean            =  -3.6310233140227E-04
(PID.TID 0000.0001) %MON dynstat_uvel_sd              =   1.2936477706097E-02
(PID.TID 0000.0001) %MON dynstat_uvel_del2            =   9.7926665058236E-05
(PID.TID 0000.0001) %MON dynstat_vvel_max             =   6.8531522494962E-01
(PID.TID 0000.0001) %MON dynstat_vvel_min             =  -6.5749979744626E-01
(PID.TID 0000.0001) %MON dynstat_vvel_mean            =   5.3323469384940E-04
(PID.TID 0000.0001) %MON dynstat_vvel_sd              =   1.3893184582832E-02
(PID.TID 0000.0001) %MON dynstat_vvel_del2            =   1.0095276750355E-04
(PID.TID 0000.0001) %MON dynstat_wvel_max             =   1.1741467414059E-04
(PID.TID 0000.0001) %MON dynstat_wvel_min             =  -1.9130100756557E-04
(PID.TID 0000.0001) %MON dynstat_wvel_mean            =  -3.3235661871147E-07
(PID.TID 0000.0001) %MON dynstat_wvel_sd              =   8.0513549647782E-06
(PID.TID 0000.0001) %MON dynstat_wvel_del2            =   7.6075981363728E-08
(PID.TID 0000.0001) %MON dynstat_theta_max            =   3.0924555340205E+01
(PID.TID 0000.0001) %MON dynstat_theta_min            =  -3.0066028527095E+00
(PID.TID 0000.0001) %MON dynstat_theta_mean           =   3.9091489323632E+00
(PID.TID 0000.0001) %MON dynstat_theta_sd             =   4.5714534356563E+00
(PID.TID 0000.0001) %MON dynstat_theta_del2           =   2.6414741136730E-03
(PID.TID 0000.0001) %MON dynstat_salt_max             =   4.1348262262054E+01
(PID.TID 0000.0001) %MON dynstat_salt_min             =   1.8518980947588E+01
(PID.TID 0000.0001) %MON dynstat_salt_mean            =   3.4771942405846E+01
(PID.TID 0000.0001) %MON dynstat_salt_sd              =   5.3196470548977E-01
(PID.TID 0000.0001) %MON dynstat_salt_del2            =   1.0640660204712E-03
(PID.TID 0000.0001) %MON dynstat_sst_max              =   3.0924555340205E+01
(PID.TID 0000.0001) %MON dynstat_sst_min              =  -1.8979044944226E+00
(PID.TID 0000.0001) %MON dynstat_sst_mean             =   1.8107444178360E+01
(PID.TID 0000.0001) %MON dynstat_sst_sd               =   9.8114692462438E+00
(PID.TID 0000.0001) %MON dynstat_sst_del2             =   1.5022736230939E-02
(PID.TID 0000.0001) %MON dynstat_sss_max              =   4.1348262262054E+01
(PID.TID 0000.0001) %MON dynstat_sss_min              =   1.8752012851882E+01
(PID.TID 0000.0001) %MON dynstat_sss_mean             =   3.4623690693055E+01
(PID.TID 0000.0001) %MON dynstat_sss_sd               =   1.4827517322272E+00
(PID.TID 0000.0001) %MON dynstat_sss_del2             =   1.1881509384718E-02
(PID.TID 0000.0001) %MON forcing_qnet_max             =   1.9500786132812E+03
(PID.TID 0000.0001) %MON forcing_qnet_min             =  -1.1772122802734E+03
(PID.TID 0000.0001) %MON forcing_qnet_mean            =   4.9946743161175E+00
(PID.TID 0000.0001) %MON forcing_qnet_sd              =   2.0510837282505E+02
(PID.TID 0000.0001) %MON forcing_qnet_del2            =   4.1334151026857E+00
(PID.TID 0000.0001) %MON forcing_qsw_max              =   0.0000000000000E+00
(PID.TID 0000.0001) %MON forcing_qsw_min              =  -1.0119132706494E+02
(PID.TID 0000.0001) %MON forcing_qsw_mean             =  -1.4560464239954E+01
(PID.TID 0000.0001) %MON forcing_qsw_sd               =   2.4802412453766E+01
(PID.TID 0000.0001) %MON forcing_qsw_del2             =   2.0710008245522E-01
(PID.TID 0000.0001) %MON forcing_empmr_max            =   6.0202418826520E-03
(PID.TID 0000.0001) %MON forcing_empmr_min            =  -8.6548410356045E-02
(PID.TID 0000.0001) %MON forcing_empmr_mean           =  -2.6215813446348E-04
(PID.TID 0000.0001) %MON forcing_empmr_sd             =   3.8135283490847E-03
(PID.TID 0000.0001) %MON forcing_empmr_del2           =   1.5035530724648E-04
(PID.TID 0000.0001) %MON forcing_fu_max               =   3.8444141407258E-01
(PID.TID 0000.0001) %MON forcing_fu_min               =  -3.6190379212124E-01
(PID.TID 0000.0001) %MON forcing_fu_mean              =  -3.1252318384321E-03
(PID.TID 0000.0001) %MON forcing_fu_sd                =   6.2991023844774E-02
(PID.TID 0000.0001) %MON forcing_fu_del2              =   6.2531047689338E-04
(PID.TID 0000.0001) %MON forcing_fv_max               =   2.9172418716742E-01
(PID.TID 0000.0001) %MON forcing_fv_min               =  -2.7256603543669E-01
(PID.TID 0000.0001) %MON forcing_fv_mean              =  -1.5112475538335E-02
(PID.TID 0000.0001) %MON forcing_fv_sd                =   6.2089157540316E-02
(PID.TID 0000.0001) %MON forcing_fv_del2              =   5.3902937211988E-04
(PID.TID 0000.0001) %MON trAdv_CFL_u_max              =   2.3289152130093E-03
(PID.TID 0000.0001) %MON trAdv_CFL_v_max              =   2.2844814102115E-03
(PID.TID 0000.0001) %MON trAdv_CFL_w_max              =   1.8601741940268E-03
(PID.TID 0000.0001) %MON advcfl_uvel_max              =   2.3788958939498E-03
(PID.TID 0000.0001) %MON advcfl_vvel_max              =   2.2364335616129E-03
(PID.TID 0000.0001) %MON advcfl_wvel_max              =   3.0103794906450E-03
(PID.TID 0000.0001) %MON advcfl_W_hf_max              =   1.8601741940268E-03
(PID.TID 0000.0001) %MON pe_b_mean                    =   4.9992141461820E-04
(PID.TID 0000.0001) %MON ke_max                       =   2.5419224715703E-01
(PID.TID 0000.0001) %MON ke_mean                      =   1.6662580359522E-04
(PID.TID 0000.0001) %MON ke_vol                       =   1.3398129599565E+18
(PID.TID 0000.0001) %MON vort_r_min                   =  -4.5603203992485E-06
(PID.TID 0000.0001) %MON vort_r_max                   =   2.9230286335229E-06
(PID.TID 0000.0001) %MON vort_a_mean                  =  -2.0549865324846E-05
(PID.TID 0000.0001) %MON vort_a_sd                    =   7.5259731815277E-05
(PID.TID 0000.0001) %MON vort_p_mean                  =  -2.4783274790260E-05
(PID.TID 0000.0001) %MON vort_p_sd                    =   1.2811898299229E-04
(PID.TID 0000.0001) %MON surfExpan_theta_mean         =  -7.1051910517917E-06
(PID.TID 0000.0001) %MON surfExpan_salt_mean          =   1.3443895374428E-06
(PID.TID 0000.0001) // =======================================================
(PID.TID 0000.0001) // End MONITOR dynamic field statistics
(PID.TID 0000.0001) // =======================================================
 cg2d: Sum(rhs),rhsMax =  -6.57995320497781E+01  3.83850974784861E+01
(PID.TID 0000.0001)      cg2d_init_res =   2.95675640879398E-01
(PID.TID 0000.0001)      cg2d_iters(min,last) =      -1      10
(PID.TID 0000.0001)      cg2d_last_res =   7.98193823530833E-08
(PID.TID 0000.0001) // =======================================================
(PID.TID 0000.0001) // Begin MONITOR dynamic field statistics
(PID.TID 0000.0001) // =======================================================
(PID.TID 0000.0001) %MON time_tsnumber                =                 72061
(PID.TID 0000.0001) %MON time_secondsf                =   6.4854900000000E+07
(PID.TID 0000.0001) %MON dynstat_eta_max              =   1.7111388116920E+00
(PID.TID 0000.0001) %MON dynstat_eta_min              =  -1.5834247646512E+00
(PID.TID 0000.0001) %MON dynstat_eta_mean             =   2.9348548432957E-02
(PID.TID 0000.0001) %MON dynstat_eta_sd               =   6.1167543766650E-01
(PID.TID 0000.0001) %MON dynstat_eta_del2             =   1.4534732374034E-03
(PID.TID 0000.0001) %MON dynstat_uvel_max             =   7.1997431737982E-01
(PID.TID 0000.0001) %MON dynstat_uvel_min             =  -7.6906470738360E-01
(PID.TID 0000.0001) %MON dynstat_uvel_mean            =  -3.4590795008103E-04
(PID.TID 0000.0001) %MON dynstat_uvel_sd              =   1.2975119311501E-02
(PID.TID 0000.0001) %MON dynstat_uvel_del2            =   9.7754587715398E-05
(PID.TID 0000.0001) %MON dynstat_vvel_max             =   6.6106115635302E-01
(PID.TID 0000.0001) %MON dynstat_vvel_min             =  -6.5728595881364E-01
(PID.TID 0000.0001) %MON dynstat_vvel_mean            =   5.4199353905040E-04
(PID.TID 0000.0001) %MON dynstat_vvel_sd              =   1.3874080001599E-02
(PID.TID 0000.0001) %MON dynstat_vvel_del2            =   1.0146847658761E-04
(PID.TID 0000.0001) %MON dynstat_wvel_max             =   1.1636625778789E-04
(PID.TID 0000.0001) %MON dynstat_wvel_min             =  -1.9131300443870E-04
(PID.TID 0000.0001) %MON dynstat_wvel_mean            =  -3.1894618327157E-07
(PID.TID 0000.0001) %MON dynstat_wvel_sd              =   8.0162422210947E-06
(PID.TID 0000.0001) %MON dynstat_wvel_del2            =   7.5317510973003E-08
(PID.TID 0000.0001) %MON dynstat_theta_max            =   3.0924475094064E+01
(PID.TID 0000.0001) %MON dynstat_theta_min            =  -3.0067995571661E+00
(PID.TID 0000.0001) %MON dynstat_theta_mean           =   3.9091502085294E+00
(PID.TID 0000.0001) %MON dynstat_theta_sd             =   4.5714571263390E+00
(PID.TID 0000.0001) %MON dynstat_theta_del2           =   2.6413355871364E-03
(PID.TID 0000.0001) %MON dynstat_salt_max             =   4.1348098003204E+01
(PID.TID 0000.0001) %MON dynstat_salt_min             =   1.8518991222991E+01
(PID.TID 0000.0001) %MON dynstat_salt_mean            =   3.4771940141679E+01
(PID.TID 0000.0001) %MON dynstat_salt_sd              =   5.3197925524822E-01
(PID.TID 0000.0001) %MON dynstat_salt_del2            =   1.0676042565550E-03
(PID.TID 0000.0001) %MON dynstat_sst_max              =   3.0924475094064E+01
(PID.TID 0000.0001) %MON dynstat_sst_min              =  -1.8980452393429E+00
(PID.TID 0000.0001) %MON dynstat_sst_mean             =   1.8107443800978E+01
(PID.TID 0000.0001) %MON dynstat_sst_sd               =   9.8115239065803E+00
(PID.TID 0000.0001) %MON dynstat_sst_del2             =   1.5020285263898E-02
(PID.TID 0000.0001) %MON dynstat_sss_max              =   4.1348098003204E+01
(PID.TID 0000.0001) %MON dynstat_sss_min              =   1.8752035560384E+01
(PID.TID 0000.0001) %MON dynstat_sss_mean             =   3.4623524676783E+01
(PID.TID 0000.0001) %MON dynstat_sss_sd               =   1.4831233792224E+00
(PID.TID 0000.0001) %MON dynstat_sss_del2             =   1.1931552199978E-02
(PID.TID 0000.0001) %MON forcing_qnet_max             =   1.9270883789062E+03
(PID.TID 0000.0001) %MON forcing_qnet_min             =  -1.1603852539062E+03
(PID.TID 0000.0001) %MON forcing_qnet_mean            =   2.1310294549272E+00
(PID.TID 0000.0001) %MON forcing_qnet_sd              =   2.0891178708815E+02
(PID.TID 0000.0001) %MON forcing_qnet_del2            =   4.1204771415593E+00
(PID.TID 0000.0001) %MON forcing_qsw_max              =   0.0000000000000E+00
(PID.TID 0000.0001) %MON forcing_qsw_min              =  -1.0032020869872E+02
(PID.TID 0000.0001) %MON forcing_qsw_mean             =  -1.4908099878010E+01
(PID.TID 0000.0001) %MON forcing_qsw_sd               =   2.5768393803496E+01
(PID.TID 0000.0001) %MON forcing_qsw_del2             =   2.1310192539614E-01
(PID.TID 0000.0001) %MON forcing_empmr_max            =   8.3089070394635E-03
(PID.TID 0000.0001) %MON forcing_empmr_min            =  -8.5656464099884E-02
(PID.TID 0000.0001) %MON forcing_empmr_mean           =  -2.5914942109427E-04
(PID.TID 0000.0001) %MON forcing_empmr_sd             =   3.7748722148804E-03
(PID.TID 0000.0001) %MON forcing_empmr_del2           =   1.4881080976139E-04
(PID.TID 0000.0001) %MON forcing_fu_max               =   3.8704615540847E-01
(PID.TID 0000.0001) %MON forcing_fu_min               =  -3.7792451411327E-01
(PID.TID 0000.0001) %MON forcing_fu_mean              =  -3.1150945244891E-03
(PID.TID 0000.0001) %MON forcing_fu_sd                =   6.3042863371357E-02
(PID.TID 0000.0001) %MON forcing_fu_del2              =   6.2604481339838E-04
(PID.TID 0000.0001) %MON forcing_fv_max               =   2.9072011954666E-01
(PID.TID 0000.0001) %MON forcing_fv_min               =  -2.6999472930029E-01
(PID.TID 0000.0001) %MON forcing_fv_mean              =  -1.5133343232286E-02
(PID.TID 0000.0001) %MON forcing_fv_sd                =   6.1973318168833E-02
(PID.TID 0000.0001) %MON forcing_fv_del2              =   5.3816810946170E-04
(PID.TID 0000.0001) %MON trAdv_CFL_u_max              =   2.3552643994935E-03
(PID.TID 0000.0001) %MON trAdv_CFL_v_max              =   2.2078760004942E-03
(PID.TID 0000.0001) %MON trAdv_CFL_w_max              =   1.8771401573005E-03
(PID.TID 0000.0001) %MON advcfl_uvel_max              =   2.4009463301944E-03
(PID.TID 0000.0001) %MON advcfl_vvel_max              =   2.1572836886197E-03
(PID.TID 0000.0001) %MON advcfl_wvel_max              =   2.9793552730394E-03
(PID.TID 0000.0001) %MON advcfl_W_hf_max              =   1.8771401573005E-03
(PID.TID 0000.0001) %MON pe_b_mean                    =   4.9957624205407E-04
(PID.TID 0000.0001) %MON ke_max                       =   2.5927239599249E-01
(PID.TID 0000.0001) %MON ke_mean                      =   1.6683845243131E-04
(PID.TID 0000.0001) %MON ke_vol                       =   1.3398130429094E+18
(PID.TID 0000.0001) %MON vort_r_min                   =  -4.6138888024274E-06
(PID.TID 0000.0001) %MON vort_r_max                   =   2.9626733068567E-06
(PID.TID 0000.0001) %MON vort_a_mean                  =  -2.0549865324846E-05
(PID.TID 0000.0001) %MON vort_a_sd                    =   7.5259735313525E-05
(PID.TID 0000.0001) %MON vort_p_mean                  =  -2.4783272748917E-05
(PID.TID 0000.0001) %MON vort_p_sd                    =   1.2811900778467E-04
(PID.TID 0000.0001) %MON surfExpan_theta_mean         =  -7.0191258698270E-06
(PID.TID 0000.0001) %MON surfExpan_salt_mean          =   1.3468084786231E-06
(PID.TID 0000.0001) // =======================================================
(PID.TID 0000.0001) // End MONITOR dynamic field statistics
(PID.TID 0000.0001) // =======================================================
 cg2d: Sum(rhs),rhsMax =  -6.94643041388497E+01  3.66376026693301E+01
(PID.TID 0000.0001)      cg2d_init_res =   3.01593393378428E-01
(PID.TID 0000.0001)      cg2d_iters(min,last) =      -1      10
(PID.TID 0000.0001)      cg2d_last_res =   8.11265711569588E-08
(PID.TID 0000.0001) // =======================================================
(PID.TID 0000.0001) // Begin MONITOR dynamic field statistics
(PID.TID 0000.0001) // =======================================================
(PID.TID 0000.0001) %MON time_tsnumber                =                 72062
(PID.TID 0000.0001) %MON time_secondsf                =   6.4855800000000E+07
(PID.TID 0000.0001) %MON dynstat_eta_max              =   1.5397827553694E+00
(PID.TID 0000.0001) %MON dynstat_eta_min              =  -1.5818052051067E+00
(PID.TID 0000.0001) %MON dynstat_eta_mean             =   2.9572627385373E-02
(PID.TID 0000.0001) %MON dynstat_eta_sd               =   6.1150807957581E-01
(PID.TID 0000.0001) %MON dynstat_eta_del2             =   1.4043160591696E-03
(PID.TID 0000.0001) %MON dynstat_uvel_max             =   7.1527563885591E-01
(PID.TID 0000.0001) %MON dynstat_uvel_min             =  -7.8397026556126E-01
(PID.TID 0000.0001) %MON dynstat_uvel_mean            =  -3.3044455021257E-04
(PID.TID 0000.0001) %MON dynstat_uvel_sd              =   1.3011129493964E-02
(PID.TID 0000.0001) %MON dynstat_uvel_del2            =   9.7414700390444E-05
(PID.TID 0000.0001) %MON dynstat_vvel_max             =   6.2730584063304E-01
(PID.TID 0000.0001) %MON dynstat_vvel_min             =  -6.5362528156629E-01
(PID.TID 0000.0001) %MON dynstat_vvel_mean            =   5.4704700102124E-04
(PID.TID 0000.0001) %MON dynstat_vvel_sd              =   1.3850072263083E-02
(PID.TID 0000.0001) %MON dynstat_vvel_del2            =   1.0147017139181E-04
(PID.TID 0000.0001) %MON dynstat_wvel_max             =   1.1515164217735E-04
(PID.TID 0000.0001) %MON dynstat_wvel_min             =  -1.9133737120211E-04
(PID.TID 0000.0001) %MON dynstat_wvel_mean            =  -3.0224513248703E-07
(PID.TID 0000.0001) %MON dynstat_wvel_sd              =   7.9813687023552E-06
(PID.TID 0000.0001) %MON dynstat_wvel_del2            =   7.4544323794056E-08
(PID.TID 0000.0001) %MON dynstat_theta_max            =   3.0924388472747E+01
(PID.TID 0000.0001) %MON dynstat_theta_min            =  -3.0069875303701E+00
(PID.TID 0000.0001) %MON dynstat_theta_mean           =   3.9091515481725E+00
(PID.TID 0000.0001) %MON dynstat_theta_sd             =   4.5714609940677E+00
(PID.TID 0000.0001) %MON dynstat_theta_del2           =   2.6411993939233E-03
(PID.TID 0000.0001) %MON dynstat_salt_max             =   4.1347950700838E+01
(PID.TID 0000.0001) %MON dynstat_salt_min             =   1.8519001490693E+01
(PID.TID 0000.0001) %MON dynstat_salt_mean            =   3.4771937908874E+01
(PID.TID 0000.0001) %MON dynstat_salt_sd              =   5.3199359521600E-01
(PID.TID 0000.0001) %MON dynstat_salt_del2            =   1.0710754708682E-03
(PID.TID 0000.0001) %MON dynstat_sst_max              =   3.0924388472747E+01
(PID.TID 0000.0001) %MON dynstat_sst_min              =  -1.8981870098614E+00
(PID.TID 0000.0001) %MON dynstat_sst_mean             =   1.8107448123684E+01
(PID.TID 0000.0001) %MON dynstat_sst_sd               =   9.8115778236737E+00
(PID.TID 0000.0001) %MON dynstat_sst_del2             =   1.5017900928985E-02
(PID.TID 0000.0001) %MON dynstat_sss_max              =   4.1347950700838E+01
(PID.TID 0000.0001) %MON dynstat_sss_min              =   1.8752057575480E+01
(PID.TID 0000.0001) %MON dynstat_sss_mean             =   3.4623360325610E+01
(PID.TID 0000.0001) %MON dynstat_sss_sd               =   1.4834901150727E+00
(PID.TID 0000.0001) %MON dynstat_sss_del2             =   1.1980610183503E-02
(PID.TID 0000.0001) %MON forcing_qnet_max             =   1.9043781738281E+03
(PID.TID 0000.0001) %MON forcing_qnet_min             =  -1.1449020996094E+03
(PID.TID 0000.0001) %MON forcing_qnet_mean            =   7.3195462527070E-01
(PID.TID 0000.0001) %MON forcing_qnet_sd              =   2.1149319117976E+02
(PID.TID 0000.0001) %MON forcing_qnet_del2            =   4.0912533134495E+00
(PID.TID 0000.0001) %MON forcing_qsw_max              =   0.0000000000000E+00
(PID.TID 0000.0001) %MON forcing_qsw_min              =  -1.0224384741174E+02
(PID.TID 0000.0001) %MON forcing_qsw_mean             =  -1.5040632532825E+01
(PID.TID 0000.0001) %MON forcing_qsw_sd               =   2.6131264834219E+01
(PID.TID 0000.0001) %MON forcing_qsw_del2             =   2.1636002161789E-01
(PID.TID 0000.0001) %MON forcing_empmr_max            =   5.8968435041606E-03
(PID.TID 0000.0001) %MON forcing_empmr_min            =  -8.4774591028690E-02
(PID.TID 0000.0001) %MON forcing_empmr_mean           =  -2.5769079527794E-04
(PID.TID 0000.0001) %MON forcing_empmr_sd             =   3.7350818758563E-03
(PID.TID 0000.0001) %MON forcing_empmr_del2           =   1.4725219137931E-04
(PID.TID 0000.0001) %MON forcing_fu_max               =   3.8715799937151E-01
(PID.TID 0000.0001) %MON forcing_fu_min               =  -3.8442370852019E-01
(PID.TID 0000.0001) %MON forcing_fu_mean              =  -3.1354544055589E-03
(PID.TID 0000.0001) %MON forcing_fu_sd                =   6.2973126714562E-02
(PID.TID 0000.0001) %MON forcing_fu_del2              =   6.2525850482245E-04
(PID.TID 0000.0001) %MON forcing_fv_max               =   2.9560638220269E-01
(PID.TID 0000.0001) %MON forcing_fv_min               =  -2.6855373422916E-01
(PID.TID 0000.0001) %MON forcing_fv_mean              =  -1.5135762883770E-02
(PID.TID 0000.0001) %MON forcing_fv_sd                =   6.1884314890894E-02
(PID.TID 0000.0001) %MON forcing_fv_del2              =   5.3824778874465E-04
(PID.TID 0000.0001) %MON trAdv_CFL_u_max              =   2.3445807042897E-03
(PID.TID 0000.0001) %MON trAdv_CFL_v_max              =   2.0991104432269E-03
(PID.TID 0000.0001) %MON trAdv_CFL_w_max              =   1.8891724320966E-03
(PID.TID 0000.0001) %MON advcfl_uvel_max              =   2.3852773338338E-03
(PID.TID 0000.0001) %MON advcfl_vvel_max              =   2.0471277804906E-03
(PID.TID 0000.0001) %MON advcfl_wvel_max              =   2.9486814270849E-03
(PID.TID 0000.0001) %MON advcfl_W_hf_max              =   1.8891724320966E-03
(PID.TID 0000.0001) %MON pe_b_mean                    =   4.9932109124761E-04
(PID.TID 0000.0001) %MON ke_max                       =   2.6317892026077E-01
(PID.TID 0000.0001) %MON ke_mean                      =   1.6695730566554E-04
(PID.TID 0000.0001) %MON ke_vol                       =   1.3398131249103E+18
(PID.TID 0000.0001) %MON vort_r_min                   =  -4.6504368076979E-06
(PID.TID 0000.0001) %MON vort_r_max                   =   2.9651005545684E-06
(PID.TID 0000.0001) %MON vort_a_mean                  =  -2.0549865324846E-05
(PID.TID 0000.0001) %MON vort_a_sd                    =   7.5259737951722E-05
(PID.TID 0000.0001) %MON vort_p_mean                  =  -2.4783270764296E-05
(PID.TID 0000.0001) %MON vort_p_sd                    =   1.2811903619006E-04
(PID.TID 0000.0001) %MON surfExpan_theta_mean         =  -6.9196874792053E-06
(PID.TID 0000.0001) %MON surfExpan_salt_mean          =   1.3474618669967E-06
(PID.TID 0000.0001) // =======================================================
(PID.TID 0000.0001) // End MONITOR dynamic field statistics
(PID.TID 0000.0001) // =======================================================
 cg2d: Sum(rhs),rhsMax =  -7.00651258801894E+01  3.65949268737410E+01
(PID.TID 0000.0001)      cg2d_init_res =   2.94944353644891E-01
(PID.TID 0000.0001)      cg2d_iters(min,last) =      -1      10
(PID.TID 0000.0001)      cg2d_last_res =   8.30376338261490E-08
(PID.TID 0000.0001) // =======================================================
(PID.TID 0000.0001) // Begin MONITOR dynamic field statistics
(PID.TID 0000.0001) // =======================================================
(PID.TID 0000.0001) %MON time_tsnumber                =                 72063
(PID.TID 0000.0001) %MON time_secondsf                =   6.4856700000000E+07
(PID.TID 0000.0001) %MON dynstat_eta_max              =   1.3657910295036E+00
(PID.TID 0000.0001) %MON dynstat_eta_min              =  -1.5800190509989E+00
(PID.TID 0000.0001) %MON dynstat_eta_mean             =   2.9793667280835E-02
(PID.TID 0000.0001) %MON dynstat_eta_sd               =   6.1138904423167E-01
(PID.TID 0000.0001) %MON dynstat_eta_del2             =   1.3764064025870E-03
(PID.TID 0000.0001) %MON dynstat_uvel_max             =   6.9983694708124E-01
(PID.TID 0000.0001) %MON dynstat_uvel_min             =  -7.9676464424084E-01
(PID.TID 0000.0001) %MON dynstat_uvel_mean            =  -3.1695023877310E-04
(PID.TID 0000.0001) %MON dynstat_uvel_sd              =   1.3043583832776E-02
(PID.TID 0000.0001) %MON dynstat_uvel_del2            =   9.6919643736141E-05
(PID.TID 0000.0001) %MON dynstat_vvel_max             =   5.8503047571822E-01
(PID.TID 0000.0001) %MON dynstat_vvel_min             =  -6.4650581298500E-01
(PID.TID 0000.0001) %MON dynstat_vvel_mean            =   5.4853527759347E-04
(PID.TID 0000.0001) %MON dynstat_vvel_sd              =   1.3822768721697E-02
(PID.TID 0000.0001) %MON dynstat_vvel_del2            =   1.0096616537160E-04
(PID.TID 0000.0001) %MON dynstat_wvel_max             =   1.1376680880105E-04
(PID.TID 0000.0001) %MON dynstat_wvel_min             =  -1.9136956886973E-04
(PID.TID 0000.0001) %MON dynstat_wvel_mean            =  -2.8270362859657E-07
(PID.TID 0000.0001) %MON dynstat_wvel_sd              =   7.9491523723775E-06
(PID.TID 0000.0001) %MON dynstat_wvel_del2            =   7.3780077629836E-08
(PID.TID 0000.0001) %MON dynstat_theta_max            =   3.0924296561890E+01
(PID.TID 0000.0001) %MON dynstat_theta_min            =  -3.0071694358540E+00
(PID.TID 0000.0001) %MON dynstat_theta_mean           =   3.9091529394441E+00
(PID.TID 0000.0001) %MON dynstat_theta_sd             =   4.5714649856182E+00
(PID.TID 0000.0001) %MON dynstat_theta_del2           =   2.6410638829536E-03
(PID.TID 0000.0001) %MON dynstat_salt_max             =   4.1347819572003E+01
(PID.TID 0000.0001) %MON dynstat_salt_min             =   1.8519011748639E+01
(PID.TID 0000.0001) %MON dynstat_salt_mean            =   3.4771935719969E+01
(PID.TID 0000.0001) %MON dynstat_salt_sd              =   5.3200772530858E-01
(PID.TID 0000.0001) %MON dynstat_salt_del2            =   1.0744829205897E-03
(PID.TID 0000.0001) %MON dynstat_sst_max              =   3.0924296561890E+01
(PID.TID 0000.0001) %MON dynstat_sst_min              =  -1.8983276503191E+00
(PID.TID 0000.0001) %MON dynstat_sst_mean             =   1.8107456447247E+01
(PID.TID 0000.0001) %MON dynstat_sst_sd               =   9.8116304997955E+00
(PID.TID 0000.0001) %MON dynstat_sst_del2             =   1.5015527748391E-02
(PID.TID 0000.0001) %MON dynstat_sss_max              =   4.1347819572003E+01
(PID.TID 0000.0001) %MON dynstat_sss_min              =   1.8752078871778E+01
(PID.TID 0000.0001) %MON dynstat_sss_mean             =   3.4623198509137E+01
(PID.TID 0000.0001) %MON dynstat_sss_sd               =   1.4838519668622E+00
(PID.TID 0000.0001) %MON dynstat_sss_del2             =   1.2028730724777E-02
(PID.TID 0000.0001) %MON forcing_qnet_max             =   1.8819443359375E+03
(PID.TID 0000.0001) %MON forcing_qnet_min             =  -1.1296197509766E+03
(PID.TID 0000.0001) %MON forcing_qnet_mean            =  -5.9032816972251E-01
(PID.TID 0000.0001) %MON forcing_qnet_sd              =   2.1491780517409E+02
(PID.TID 0000.0001) %MON forcing_qnet_del2            =   4.1649244628140E+00
(PID.TID 0000.0001) %MON forcing_qsw_max              =   0.0000000000000E+00
(PID.TID 0000.0001) %MON forcing_qsw_min              =  -1.0375650529321E+02
(PID.TID 0000.0001) %MON forcing_qsw_mean             =  -1.5142479147675E+01
(PID.TID 0000.0001) %MON forcing_qsw_sd               =   2.6443438073049E+01
(PID.TID 0000.0001) %MON forcing_qsw_del2             =   2.1933336997109E-01
(PID.TID 0000.0001) %MON forcing_empmr_max            =   5.8361282572150E-03
(PID.TID 0000.0001) %MON forcing_empmr_min            =  -8.3901099860668E-02
(PID.TID 0000.0001) %MON forcing_empmr_mean           =  -2.5419587978153E-04
(PID.TID 0000.0001) %MON forcing_empmr_sd             =   3.6966603584754E-03
(PID.TID 0000.0001) %MON forcing_empmr_del2           =   1.4573416902989E-04
(PID.TID 0000.0001) %MON forcing_fu_max               =   3.8064506453400E-01
(PID.TID 0000.0001) %MON forcing_fu_min               =  -3.7670049844574E-01
(PID.TID 0000.0001) %MON forcing_fu_mean              =  -3.0610693447187E-03
(PID.TID 0000.0001) %MON forcing_fu_sd                =   6.2871209422392E-02
(PID.TID 0000.0001) %MON forcing_fu_del2              =   6.2285100924568E-04
(PID.TID 0000.0001) %MON forcing_fv_max               =   3.1070736042448E-01
(PID.TID 0000.0001) %MON forcing_fv_min               =  -2.6661641627879E-01
(PID.TID 0000.0001) %MON forcing_fv_mean              =  -1.5129053911827E-02
(PID.TID 0000.0001) %MON forcing_fv_sd                =   6.1903984915339E-02
(PID.TID 0000.0001) %MON forcing_fv_del2              =   5.3922639964019E-04
(PID.TID 0000.0001) %MON trAdv_CFL_u_max              =   2.3265813593375E-03
(PID.TID 0000.0001) %MON trAdv_CFL_v_max              =   2.0502409807163E-03
(PID.TID 0000.0001) %MON trAdv_CFL_w_max              =   1.8961064757099E-03
(PID.TID 0000.0001) %MON advcfl_uvel_max              =   2.3337928996469E-03
(PID.TID 0000.0001) %MON advcfl_vvel_max              =   1.9091678439783E-03
(PID.TID 0000.0001) %MON advcfl_wvel_max              =   2.9182991255885E-03
(PID.TID 0000.0001) %MON advcfl_W_hf_max              =   1.8961064757099E-03
(PID.TID 0000.0001) %MON pe_b_mean                    =   4.9914462018158E-04
(PID.TID 0000.0001) %MON ke_max                       =   2.6571292417233E-01
(PID.TID 0000.0001) %MON ke_mean                      =   1.6699198246045E-04
(PID.TID 0000.0001) %MON ke_vol                       =   1.3398132064497E+18
(PID.TID 0000.0001) %MON vort_r_min                   =  -4.6689848611383E-06
(PID.TID 0000.0001) %MON vort_r_max                   =   2.9317440400203E-06
(PID.TID 0000.0001) %MON vort_a_mean                  =  -2.0549865324846E-05
(PID.TID 0000.0001) %MON vort_a_sd                    =   7.5259739745092E-05
(PID.TID 0000.0001) %MON vort_p_mean                  =  -2.4783268838958E-05
(PID.TID 0000.0001) %MON vort_p_sd                    =   1.2811906630761E-04
(PID.TID 0000.0001) %MON surfExpan_theta_mean         =  -6.7788089373948E-06
(PID.TID 0000.0001) %MON surfExpan_salt_mean          =   1.3450881273146E-06
(PID.TID 0000.0001) // =======================================================
(PID.TID 0000.0001) // End MONITOR dynamic field statistics
(PID.TID 0000.0001) // =======================================================
 Computing Diagnostic #     81  oceTAUX      Counter:       1   Parms: UU      U1      
           Vector  Mate for  oceTAUX      Diagnostic #     82  oceTAUY  exists 
 Computing Diagnostic #     82  oceTAUY      Counter:       1   Parms: VV      U1      
           Vector  Mate for  oceTAUY      Diagnostic #     81  oceTAUX  exists 
 Computing Diagnostic #     85  oceFWflx     Counter:       1   Parms: SM      U1      
 Computing Diagnostic #     86  oceSflux     Counter:       1   Parms: SM      U1      
 Computing Diagnostic #     87  oceQnet      Counter:       1   Parms: SM      U1      
 Computing Diagnostic #     88  oceQsw       Counter:       1   Parms: SM      U1      
 Computing Diagnostic #     27  SALT         Counter:       1   Parms: SMR     MR      
 Computing Diagnostic #     26  THETA        Counter:       1   Parms: SMR     MR      
 Computing Diagnostic #     45  UVELMASS     Counter:       1   Parms: UUr     MR      
           Vector  Mate for  UVELMASS     Diagnostic #     46  VVELMASS exists 
 Computing Diagnostic #     46  VVELMASS     Counter:       1   Parms: VVr     MR      
           Vector  Mate for  VVELMASS     Diagnostic #     45  UVELMASS exists 
 cg2d: Sum(rhs),rhsMax =  -7.06692570068667E+01  3.65485126849179E+01
(PID.TID 0000.0001)      cg2d_init_res =   2.88216080672328E-01
(PID.TID 0000.0001)      cg2d_iters(min,last) =      -1      10
(PID.TID 0000.0001)      cg2d_last_res =   8.51606668907915E-08
(PID.TID 0000.0001) // =======================================================
(PID.TID 0000.0001) // Begin MONITOR dynamic field statistics
(PID.TID 0000.0001) // =======================================================
(PID.TID 0000.0001) %MON time_tsnumber                =                 72064
(PID.TID 0000.0001) %MON time_secondsf                =   6.4857600000000E+07
(PID.TID 0000.0001) %MON dynstat_eta_max              =   1.1907745612351E+00
(PID.TID 0000.0001) %MON dynstat_eta_min              =  -1.5780837206384E+00
(PID.TID 0000.0001) %MON dynstat_eta_mean             =   3.0012447053051E-02
(PID.TID 0000.0001) %MON dynstat_eta_sd               =   6.1131448031409E-01
(PID.TID 0000.0001) %MON dynstat_eta_del2             =   1.3706382079074E-03
(PID.TID 0000.0001) %MON dynstat_uvel_max             =   6.7440692644127E-01
(PID.TID 0000.0001) %MON dynstat_uvel_min             =  -8.0717395515198E-01
(PID.TID 0000.0001) %MON dynstat_uvel_mean            =  -3.0560374796906E-04
(PID.TID 0000.0001) %MON dynstat_uvel_sd              =   1.3071578877610E-02
(PID.TID 0000.0001) %MON dynstat_uvel_del2            =   9.6282782148542E-05
(PID.TID 0000.0001) %MON dynstat_vvel_max             =   5.3529798498238E-01
(PID.TID 0000.0001) %MON dynstat_vvel_min             =  -6.3594274611827E-01
(PID.TID 0000.0001) %MON dynstat_vvel_mean            =   5.4666499308923E-04
(PID.TID 0000.0001) %MON dynstat_vvel_sd              =   1.3793540712976E-02
(PID.TID 0000.0001) %MON dynstat_vvel_del2            =   9.9989880985584E-05
(PID.TID 0000.0001) %MON dynstat_wvel_max             =   1.1220769332216E-04
(PID.TID 0000.0001) %MON dynstat_wvel_min             =  -1.9140624147654E-04
(PID.TID 0000.0001) %MON dynstat_wvel_mean            =  -2.6317789656264E-07
(PID.TID 0000.0001) %MON dynstat_wvel_sd              =   7.9193718682160E-06
(PID.TID 0000.0001) %MON dynstat_wvel_del2            =   7.3033703900916E-08
(PID.TID 0000.0001) %MON dynstat_theta_max            =   3.0924198043149E+01
(PID.TID 0000.0001) %MON dynstat_theta_min            =  -3.0073490252094E+00
(PID.TID 0000.0001) %MON dynstat_theta_mean           =   3.9091544351521E+00
(PID.TID 0000.0001) %MON dynstat_theta_sd             =   4.5714693893425E+00
(PID.TID 0000.0001) %MON dynstat_theta_del2           =   2.6409366349453E-03
(PID.TID 0000.0001) %MON dynstat_salt_max             =   4.1347703255690E+01
(PID.TID 0000.0001) %MON dynstat_salt_min             =   1.8519021994511E+01
(PID.TID 0000.0001) %MON dynstat_salt_mean            =   3.4771933591621E+01
(PID.TID 0000.0001) %MON dynstat_salt_sd              =   5.3202166820030E-01
(PID.TID 0000.0001) %MON dynstat_salt_del2            =   1.0778316915365E-03
(PID.TID 0000.0001) %MON dynstat_sst_max              =   3.0924198043149E+01
(PID.TID 0000.0001) %MON dynstat_sst_min              =  -1.8984661433889E+00
(PID.TID 0000.0001) %MON dynstat_sst_mean             =   1.8107469738414E+01
(PID.TID 0000.0001) %MON dynstat_sst_sd               =   9.8116865116838E+00
(PID.TID 0000.0001) %MON dynstat_sst_del2             =   1.5013321024392E-02
(PID.TID 0000.0001) %MON dynstat_sss_max              =   4.1347703255690E+01
(PID.TID 0000.0001) %MON dynstat_sss_min              =   1.8752099582551E+01
(PID.TID 0000.0001) %MON dynstat_sss_mean             =   3.4623039806611E+01
(PID.TID 0000.0001) %MON dynstat_sss_sd               =   1.4842092597550E+00
(PID.TID 0000.0001) %MON dynstat_sss_del2             =   1.2075979938467E-02
(PID.TID 0000.0001) %MON forcing_qnet_max             =   1.8608116455078E+03
(PID.TID 0000.0001) %MON forcing_qnet_min             =  -1.1123156738281E+03
(PID.TID 0000.0001) %MON forcing_qnet_mean            =  -2.5371037157959E+00
(PID.TID 0000.0001) %MON forcing_qnet_sd              =   2.1366634583821E+02
(PID.TID 0000.0001) %MON forcing_qnet_del2            =   3.9067492502445E+00
(PID.TID 0000.0001) %MON forcing_qsw_max              =   0.0000000000000E+00
(PID.TID 0000.0001) %MON forcing_qsw_min              =  -1.0487721322517E+02
(PID.TID 0000.0001) %MON forcing_qsw_mean             =  -1.5209945480232E+01
(PID.TID 0000.0001) %MON forcing_qsw_sd               =   2.6703587295450E+01
(PID.TID 0000.0001) %MON forcing_qsw_del2             =   2.2198639238940E-01
(PID.TID 0000.0001) %MON forcing_empmr_max            =   5.7760039344430E-03
(PID.TID 0000.0001) %MON forcing_empmr_min            =  -8.3036839962006E-02
(PID.TID 0000.0001) %MON forcing_empmr_mean           =  -2.5159673804922E-04
(PID.TID 0000.0001) %MON forcing_empmr_sd             =   3.6583802514095E-03
(PID.TID 0000.0001) %MON forcing_empmr_del2           =   1.4429711065999E-04
(PID.TID 0000.0001) %MON forcing_fu_max               =   3.7222925371583E-01
(PID.TID 0000.0001) %MON forcing_fu_min               =  -3.7454926662756E-01
(PID.TID 0000.0001) %MON forcing_fu_mean              =  -3.0118082074473E-03
(PID.TID 0000.0001) %MON forcing_fu_sd                =   6.2789478768445E-02
(PID.TID 0000.0001) %MON forcing_fu_del2              =   6.2096979580697E-04
(PID.TID 0000.0001) %MON forcing_fv_max               =   3.1273103168115E-01
(PID.TID 0000.0001) %MON forcing_fv_min               =  -2.6404007518344E-01
(PID.TID 0000.0001) %MON forcing_fv_mean              =  -1.5116420571011E-02
(PID.TID 0000.0001) %MON forcing_fv_sd                =   6.1845330866082E-02
(PID.TID 0000.0001) %MON forcing_fv_del2              =   5.3870148642169E-04
(PID.TID 0000.0001) %MON trAdv_CFL_u_max              =   2.3589008523668E-03
(PID.TID 0000.0001) %MON trAdv_CFL_v_max              =   1.9843050714668E-03
(PID.TID 0000.0001) %MON trAdv_CFL_w_max              =   1.8978560771035E-03
(PID.TID 0000.0001) %MON advcfl_uvel_max              =   2.3456549028454E-03
(PID.TID 0000.0001) %MON advcfl_vvel_max              =   1.8593097714928E-03
(PID.TID 0000.0001) %MON advcfl_wvel_max              =   2.8882379117219E-03
(PID.TID 0000.0001) %MON advcfl_W_hf_max              =   1.8978560771035E-03
(PID.TID 0000.0001) %MON pe_b_mean                    =   4.9904056714608E-04
(PID.TID 0000.0001) %MON ke_max                       =   2.6668559051004E-01
(PID.TID 0000.0001) %MON ke_mean                      =   1.6694918332336E-04
(PID.TID 0000.0001) %MON ke_vol                       =   1.3398132868831E+18
(PID.TID 0000.0001) %MON vort_r_min                   =  -4.6686935092326E-06
(PID.TID 0000.0001) %MON vort_r_max                   =   2.8644618154115E-06
(PID.TID 0000.0001) %MON vort_a_mean                  =  -2.0549865324846E-05
(PID.TID 0000.0001) %MON vort_a_sd                    =   7.5259740719923E-05
(PID.TID 0000.0001) %MON vort_p_mean                  =  -2.4783266987136E-05
(PID.TID 0000.0001) %MON vort_p_sd                    =   1.2811909623921E-04
(PID.TID 0000.0001) %MON surfExpan_theta_mean         =  -6.6610909977009E-06
(PID.TID 0000.0001) %MON surfExpan_salt_mean          =   1.3399792766722E-06
(PID.TID 0000.0001) // =======================================================
(PID.TID 0000.0001) // End MONITOR dynamic field statistics
(PID.TID 0000.0001) // =======================================================
 cg2d: Sum(rhs),rhsMax =  -7.12759757779423E+01  3.64993510815250E+01
(PID.TID 0000.0001)      cg2d_init_res =   2.80332310117998E-01
(PID.TID 0000.0001)      cg2d_iters(min,last) =      -1      10
(PID.TID 0000.0001)      cg2d_last_res =   8.40524005183740E-08
(PID.TID 0000.0001) // =======================================================
(PID.TID 0000.0001) // Begin MONITOR dynamic field statistics
(PID.TID 0000.0001) // =======================================================
(PID.TID 0000.0001) %MON time_tsnumber                =                 72065
(PID.TID 0000.0001) %MON time_secondsf                =   6.4858500000000E+07
(PID.TID 0000.0001) %MON dynstat_eta_max              =   1.0484126390057E+00
(PID.TID 0000.0001) %MON dynstat_eta_min              =  -1.5760361057455E+00
(PID.TID 0000.0001) %MON dynstat_eta_mean             =   3.0229397268822E-02
(PID.TID 0000.0001) %MON dynstat_eta_sd               =   6.1128071638673E-01
(PID.TID 0000.0001) %MON dynstat_eta_del2             =   1.3855084837575E-03
(PID.TID 0000.0001) %MON dynstat_uvel_max             =   6.3988854906032E-01
(PID.TID 0000.0001) %MON dynstat_uvel_min             =  -8.1494610963909E-01
(PID.TID 0000.0001) %MON dynstat_uvel_mean            =  -2.9647597658337E-04
(PID.TID 0000.0001) %MON dynstat_uvel_sd              =   1.3094389763819E-02
(PID.TID 0000.0001) %MON dynstat_uvel_del2            =   9.5520831516496E-05
(PID.TID 0000.0001) %MON dynstat_vvel_max             =   4.7923269316932E-01
(PID.TID 0000.0001) %MON dynstat_vvel_min             =  -6.2197797035452E-01
(PID.TID 0000.0001) %MON dynstat_vvel_mean            =   5.4169379919426E-04
(PID.TID 0000.0001) %MON dynstat_vvel_sd              =   1.3763627274362E-02
(PID.TID 0000.0001) %MON dynstat_vvel_del2            =   9.8599866521043E-05
(PID.TID 0000.0001) %MON dynstat_wvel_max             =   1.1047185668703E-04
(PID.TID 0000.0001) %MON dynstat_wvel_min             =  -1.9144464351976E-04
(PID.TID 0000.0001) %MON dynstat_wvel_mean            =  -2.4457303492351E-07
(PID.TID 0000.0001) %MON dynstat_wvel_sd              =   7.8919829293181E-06
(PID.TID 0000.0001) %MON dynstat_wvel_del2            =   7.2327708297001E-08
(PID.TID 0000.0001) %MON dynstat_theta_max            =   3.0924092756875E+01
(PID.TID 0000.0001) %MON dynstat_theta_min            =  -3.0075307205043E+00
(PID.TID 0000.0001) %MON dynstat_theta_mean           =   3.9091560994479E+00
(PID.TID 0000.0001) %MON dynstat_theta_sd             =   4.5714744382573E+00
(PID.TID 0000.0001) %MON dynstat_theta_del2           =   2.6408083816556E-03
(PID.TID 0000.0001) %MON dynstat_salt_max             =   4.1347600829790E+01
(PID.TID 0000.0001) %MON dynstat_salt_min             =   1.8519032225964E+01
(PID.TID 0000.0001) %MON dynstat_salt_mean            =   3.4771931497375E+01
(PID.TID 0000.0001) %MON dynstat_salt_sd              =   5.3203542368229E-01
(PID.TID 0000.0001) %MON dynstat_salt_del2            =   1.0811157847704E-03
(PID.TID 0000.0001) %MON dynstat_sst_max              =   3.0924092756875E+01
(PID.TID 0000.0001) %MON dynstat_sst_min              =  -1.8985992682381E+00
(PID.TID 0000.0001) %MON dynstat_sst_mean             =   1.8107496177929E+01
(PID.TID 0000.0001) %MON dynstat_sst_sd               =   9.8117478900676E+00
(PID.TID 0000.0001) %MON dynstat_sst_del2             =   1.5011121460203E-02
(PID.TID 0000.0001) %MON dynstat_sss_max              =   4.1347600829790E+01
(PID.TID 0000.0001) %MON dynstat_sss_min              =   1.8752119763939E+01
(PID.TID 0000.0001) %MON dynstat_sss_mean             =   3.4622883614967E+01
(PID.TID 0000.0001) %MON dynstat_sss_sd               =   1.4845623233025E+00
(PID.TID 0000.0001) %MON dynstat_sss_del2             =   1.2122288859887E-02
(PID.TID 0000.0001) %MON forcing_qnet_max             =   1.8389110107422E+03
(PID.TID 0000.0001) %MON forcing_qnet_min             =  -1.0974349365234E+03
(PID.TID 0000.0001) %MON forcing_qnet_mean            =  -5.5243988352839E+00
(PID.TID 0000.0001) %MON forcing_qnet_sd              =   2.1578205541816E+02
(PID.TID 0000.0001) %MON forcing_qnet_del2            =   3.8800231492008E+00
(PID.TID 0000.0001) %MON forcing_qsw_max              =   0.0000000000000E+00
(PID.TID 0000.0001) %MON forcing_qsw_min              =  -1.0664285642378E+02
(PID.TID 0000.0001) %MON forcing_qsw_mean             =  -1.5513255532744E+01
(PID.TID 0000.0001) %MON forcing_qsw_sd               =   2.7375977326300E+01
(PID.TID 0000.0001) %MON forcing_qsw_del2             =   2.2617339039348E-01
(PID.TID 0000.0001) %MON forcing_empmr_max            =   5.7164696045220E-03
(PID.TID 0000.0001) %MON forcing_empmr_min            =  -8.2181803882122E-02
(PID.TID 0000.0001) %MON forcing_empmr_mean           =  -2.4949274813590E-04
(PID.TID 0000.0001) %MON forcing_empmr_sd             =   3.6207087781255E-03
(PID.TID 0000.0001) %MON forcing_empmr_del2           =   1.4279909629225E-04
(PID.TID 0000.0001) %MON forcing_fu_max               =   3.7098050973884E-01
(PID.TID 0000.0001) %MON forcing_fu_min               =  -3.4715672429595E-01
(PID.TID 0000.0001) %MON forcing_fu_mean              =  -2.9642181260877E-03
(PID.TID 0000.0001) %MON forcing_fu_sd                =   6.2473781261743E-02
(PID.TID 0000.0001) %MON forcing_fu_del2              =   6.1659224262287E-04
(PID.TID 0000.0001) %MON forcing_fv_max               =   3.0093235185861E-01
(PID.TID 0000.0001) %MON forcing_fv_min               =  -2.6135264683683E-01
(PID.TID 0000.0001) %MON forcing_fv_mean              =  -1.5097757720485E-02
(PID.TID 0000.0001) %MON forcing_fv_sd                =   6.1588864392199E-02
(PID.TID 0000.0001) %MON forcing_fv_del2              =   5.3570057999719E-04
(PID.TID 0000.0001) %MON trAdv_CFL_u_max              =   2.3836992387742E-03
(PID.TID 0000.0001) %MON trAdv_CFL_v_max              =   1.8813684125430E-03
(PID.TID 0000.0001) %MON trAdv_CFL_w_max              =   1.8943487001471E-03
(PID.TID 0000.0001) %MON advcfl_uvel_max              =   2.3682408549342E-03
(PID.TID 0000.0001) %MON advcfl_vvel_max              =   1.8184808695316E-03
(PID.TID 0000.0001) %MON advcfl_wvel_max              =   2.8584975263347E-03
(PID.TID 0000.0001) %MON advcfl_W_hf_max              =   1.8943487001471E-03
(PID.TID 0000.0001) %MON pe_b_mean                    =   4.9900295668767E-04
(PID.TID 0000.0001) %MON ke_max                       =   2.6593184012899E-01
(PID.TID 0000.0001) %MON ke_mean                      =   1.6683592245618E-04
(PID.TID 0000.0001) %MON ke_vol                       =   1.3398133664942E+18
(PID.TID 0000.0001) %MON vort_r_min                   =  -4.6488800854045E-06
(PID.TID 0000.0001) %MON vort_r_max                   =   2.7655044036860E-06
(PID.TID 0000.0001) %MON vort_a_mean                  =  -2.0549865324846E-05
(PID.TID 0000.0001) %MON vort_a_sd                    =   7.5259740908758E-05
(PID.TID 0000.0001) %MON vort_p_mean                  =  -2.4783265201412E-05
(PID.TID 0000.0001) %MON vort_p_sd                    =   1.2811912421043E-04
(PID.TID 0000.0001) %MON surfExpan_theta_mean         =  -6.5595875690702E-06
(PID.TID 0000.0001) %MON surfExpan_salt_mean          =   1.3326647414769E-06
(PID.TID 0000.0001) // =======================================================
(PID.TID 0000.0001) // End MONITOR dynamic field statistics
(PID.TID 0000.0001) // =======================================================
 cg2d: Sum(rhs),rhsMax =  -7.18836885114662E+01  3.64487075396519E+01
(PID.TID 0000.0001)      cg2d_init_res =   2.70986449104783E-01
(PID.TID 0000.0001)      cg2d_iters(min,last) =      -1      10
(PID.TID 0000.0001)      cg2d_last_res =   7.58143766968483E-08
(PID.TID 0000.0001) // =======================================================
(PID.TID 0000.0001) // Begin MONITOR dynamic field statistics
(PID.TID 0000.0001) // =======================================================
(PID.TID 0000.0001) %MON time_tsnumber                =                 72066
(PID.TID 0000.0001) %MON time_secondsf                =   6.4859400000000E+07
(PID.TID 0000.0001) %MON dynstat_eta_max              =   1.0480651015851E+00
(PID.TID 0000.0001) %MON dynstat_eta_min              =  -1.5739241892739E+00
(PID.TID 0000.0001) %MON dynstat_eta_mean             =   3.0444837463999E-02
(PID.TID 0000.0001) %MON dynstat_eta_sd               =   6.1128284839875E-01
(PID.TID 0000.0001) %MON dynstat_eta_del2             =   1.4171592924428E-03
(PID.TID 0000.0001) %MON dynstat_uvel_max             =   5.9730886467826E-01
(PID.TID 0000.0001) %MON dynstat_uvel_min             =  -8.1985730872511E-01
(PID.TID 0000.0001) %MON dynstat_uvel_mean            =  -2.8955621778372E-04
(PID.TID 0000.0001) %MON dynstat_uvel_sd              =   1.3111778415371E-02
(PID.TID 0000.0001) %MON dynstat_uvel_del2            =   9.4655102621555E-05
(PID.TID 0000.0001) %MON dynstat_vvel_max             =   4.1799404516599E-01
(PID.TID 0000.0001) %MON dynstat_vvel_min             =  -6.0468367419919E-01
(PID.TID 0000.0001) %MON dynstat_vvel_mean            =   5.3389994254285E-04
(PID.TID 0000.0001) %MON dynstat_vvel_sd              =   1.3734368092673E-02
(PID.TID 0000.0001) %MON dynstat_vvel_del2            =   9.6877813055529E-05
(PID.TID 0000.0001) %MON dynstat_wvel_max             =   1.0855815740145E-04
(PID.TID 0000.0001) %MON dynstat_wvel_min             =  -1.9148980543414E-04
(PID.TID 0000.0001) %MON dynstat_wvel_mean            =  -2.2742625379872E-07
(PID.TID 0000.0001) %MON dynstat_wvel_sd              =   7.8663735464656E-06
(PID.TID 0000.0001) %MON dynstat_wvel_del2            =   7.1673656911500E-08
(PID.TID 0000.0001) %MON dynstat_theta_max            =   3.0923981702846E+01
(PID.TID 0000.0001) %MON dynstat_theta_min            =  -3.0077192781682E+00
(PID.TID 0000.0001) %MON dynstat_theta_mean           =   3.9091578624023E+00
(PID.TID 0000.0001) %MON dynstat_theta_sd             =   4.5714798793303E+00
(PID.TID 0000.0001) %MON dynstat_theta_del2           =   2.6406856506346E-03
(PID.TID 0000.0001) %MON dynstat_salt_max             =   4.1347510863150E+01
(PID.TID 0000.0001) %MON dynstat_salt_min             =   1.8519042440944E+01
(PID.TID 0000.0001) %MON dynstat_salt_mean            =   3.4771929431700E+01
(PID.TID 0000.0001) %MON dynstat_salt_sd              =   5.3204898859819E-01
(PID.TID 0000.0001) %MON dynstat_salt_del2            =   1.0843365773705E-03
(PID.TID 0000.0001) %MON dynstat_sst_max              =   3.0923981702846E+01
(PID.TID 0000.0001) %MON dynstat_sst_min              =  -1.8987250114292E+00
(PID.TID 0000.0001) %MON dynstat_sst_mean             =   1.8107529014675E+01
(PID.TID 0000.0001) %MON dynstat_sst_sd               =   9.8118132925477E+00
(PID.TID 0000.0001) %MON dynstat_sst_del2             =   1.5009067136482E-02
(PID.TID 0000.0001) %MON dynstat_sss_max              =   4.1347510863150E+01
(PID.TID 0000.0001) %MON dynstat_sss_min              =   1.8752139489810E+01
(PID.TID 0000.0001) %MON dynstat_sss_mean             =   3.4622729086288E+01
(PID.TID 0000.0001) %MON dynstat_sss_sd               =   1.4849107403098E+00
(PID.TID 0000.0001) %MON dynstat_sss_del2             =   1.2167673588898E-02
(PID.TID 0000.0001) %MON forcing_qnet_max             =   1.8172769775391E+03
(PID.TID 0000.0001) %MON forcing_qnet_min             =  -1.0827476806641E+03
(PID.TID 0000.0001) %MON forcing_qnet_mean            =  -7.2742422039875E+00
(PID.TID 0000.0001) %MON forcing_qnet_sd              =   2.1701332367144E+02
(PID.TID 0000.0001) %MON forcing_qnet_del2            =   3.8354270684932E+00
(PID.TID 0000.0001) %MON forcing_qsw_max              =   0.0000000000000E+00
(PID.TID 0000.0001) %MON forcing_qsw_min              =  -1.0705796599451E+02
(PID.TID 0000.0001) %MON forcing_qsw_mean             =  -1.5672264905204E+01
(PID.TID 0000.0001) %MON forcing_qsw_sd               =   2.7629258693518E+01
(PID.TID 0000.0001) %MON forcing_qsw_del2             =   2.2946416676301E-01
(PID.TID 0000.0001) %MON forcing_empmr_max            =   5.6575257331133E-03
(PID.TID 0000.0001) %MON forcing_empmr_min            =  -8.1335172057152E-02
(PID.TID 0000.0001) %MON forcing_empmr_mean           =  -2.4775622445363E-04
(PID.TID 0000.0001) %MON forcing_empmr_sd             =   3.5836827140230E-03
(PID.TID 0000.0001) %MON forcing_empmr_del2           =   1.4133410260935E-04
(PID.TID 0000.0001) %MON forcing_fu_max               =   3.8176950730306E-01
(PID.TID 0000.0001) %MON forcing_fu_min               =  -3.1626821369519E-01
(PID.TID 0000.0001) %MON forcing_fu_mean              =  -2.9054956791215E-03
(PID.TID 0000.0001) %MON forcing_fu_sd                =   6.2207111757692E-02
(PID.TID 0000.0001) %MON forcing_fu_del2              =   6.1310041097756E-04
(PID.TID 0000.0001) %MON forcing_fv_max               =   2.9528564941927E-01
(PID.TID 0000.0001) %MON forcing_fv_min               =  -2.5897465029525E-01
(PID.TID 0000.0001) %MON forcing_fv_mean              =  -1.5092505397261E-02
(PID.TID 0000.0001) %MON forcing_fv_sd                =   6.1431351394257E-02
(PID.TID 0000.0001) %MON forcing_fv_del2              =   5.3458753574579E-04
(PID.TID 0000.0001) %MON trAdv_CFL_u_max              =   2.4002830186348E-03
(PID.TID 0000.0001) %MON trAdv_CFL_v_max              =   1.7761140213272E-03
(PID.TID 0000.0001) %MON trAdv_CFL_w_max              =   1.8855745326525E-03
(PID.TID 0000.0001) %MON advcfl_uvel_max              =   2.3825128444371E-03
(PID.TID 0000.0001) %MON advcfl_vvel_max              =   1.7679174280441E-03
(PID.TID 0000.0001) %MON advcfl_wvel_max              =   2.8290494628575E-03
(PID.TID 0000.0001) %MON advcfl_W_hf_max              =   1.8855745326525E-03
(PID.TID 0000.0001) %MON pe_b_mean                    =   4.9902381335890E-04
(PID.TID 0000.0001) %MON ke_max                       =   2.6332554985449E-01
(PID.TID 0000.0001) %MON ke_mean                      =   1.6666625741103E-04
(PID.TID 0000.0001) %MON ke_vol                       =   1.3398134454395E+18
(PID.TID 0000.0001) %MON vort_r_min                   =  -4.6090513784220E-06
(PID.TID 0000.0001) %MON vort_r_max                   =   2.6374595358172E-06
(PID.TID 0000.0001) %MON vort_a_mean                  =  -2.0549865324846E-05
(PID.TID 0000.0001) %MON vort_a_sd                    =   7.5259740361425E-05
(PID.TID 0000.0001) %MON vort_p_mean                  =  -2.4783263470890E-05
(PID.TID 0000.0001) %MON vort_p_sd                    =   1.2811914884957E-04
(PID.TID 0000.0001) %MON surfExpan_theta_mean         =  -6.4780397285390E-06
(PID.TID 0000.0001) %MON surfExpan_salt_mean          =   1.3231132330605E-06
(PID.TID 0000.0001) // =======================================================
(PID.TID 0000.0001) // End MONITOR dynamic field statistics
(PID.TID 0000.0001) // =======================================================
 cg2d: Sum(rhs),rhsMax =  -7.24886355635694E+01  3.63977531599946E+01
(PID.TID 0000.0001)      cg2d_init_res =   2.60389117196190E-01
(PID.TID 0000.0001)      cg2d_iters(min,last) =      -1      10
(PID.TID 0000.0001)      cg2d_last_res =   5.58476093114002E-08
(PID.TID 0000.0001) // =======================================================
(PID.TID 0000.0001) // Begin MONITOR dynamic field statistics
(PID.TID 0000.0001) // =======================================================
(PID.TID 0000.0001) %MON time_tsnumber                =                 72067
(PID.TID 0000.0001) %MON time_secondsf                =   6.4860300000000E+07
(PID.TID 0000.0001) %MON dynstat_eta_max              =   1.0462524301489E+00
(PID.TID 0000.0001) %MON dynstat_eta_min              =  -1.5717947127534E+00
(PID.TID 0000.0001) %MON dynstat_eta_mean             =   3.0658130875808E-02
(PID.TID 0000.0001) %MON dynstat_eta_sd               =   6.1131419321381E-01
(PID.TID 0000.0001) %MON dynstat_eta_del2             =   1.4603245252292E-03
(PID.TID 0000.0001) %MON dynstat_uvel_max             =   5.5303809959839E-01
(PID.TID 0000.0001) %MON dynstat_uvel_min             =  -8.2171628591396E-01
(PID.TID 0000.0001) %MON dynstat_uvel_mean            =  -2.8480161288290E-04
(PID.TID 0000.0001) %MON dynstat_uvel_sd              =   1.3123666809356E-02
(PID.TID 0000.0001) %MON dynstat_uvel_del2            =   9.3710039107383E-05
(PID.TID 0000.0001) %MON dynstat_vvel_max             =   3.6512501001887E-01
(PID.TID 0000.0001) %MON dynstat_vvel_min             =  -5.8415538165992E-01
(PID.TID 0000.0001) %MON dynstat_vvel_mean            =   5.2360754468556E-04
(PID.TID 0000.0001) %MON dynstat_vvel_sd              =   1.3706958696889E-02
(PID.TID 0000.0001) %MON dynstat_vvel_del2            =   9.4924510318721E-05
(PID.TID 0000.0001) %MON dynstat_wvel_max             =   1.0646600227456E-04
(PID.TID 0000.0001) %MON dynstat_wvel_min             =  -1.9152655090055E-04
(PID.TID 0000.0001) %MON dynstat_wvel_mean            =  -2.1188182844910E-07
(PID.TID 0000.0001) %MON dynstat_wvel_sd              =   7.8423065329627E-06
(PID.TID 0000.0001) %MON dynstat_wvel_del2            =   7.1085474100344E-08
(PID.TID 0000.0001) %MON dynstat_theta_max            =   3.0923864694520E+01
(PID.TID 0000.0001) %MON dynstat_theta_min            =  -3.0079195094666E+00
(PID.TID 0000.0001) %MON dynstat_theta_mean           =   3.9091597109779E+00
(PID.TID 0000.0001) %MON dynstat_theta_sd             =   4.5714856484733E+00
(PID.TID 0000.0001) %MON dynstat_theta_del2           =   2.6405677458603E-03
(PID.TID 0000.0001) %MON dynstat_salt_max             =   4.1347432043231E+01
(PID.TID 0000.0001) %MON dynstat_salt_min             =   1.8519052637471E+01
(PID.TID 0000.0001) %MON dynstat_salt_mean            =   3.4771927400349E+01
(PID.TID 0000.0001) %MON dynstat_salt_sd              =   5.3206236350953E-01
(PID.TID 0000.0001) %MON dynstat_salt_del2            =   1.0874945983522E-03
(PID.TID 0000.0001) %MON dynstat_sst_max              =   3.0923864694520E+01
(PID.TID 0000.0001) %MON dynstat_sst_min              =  -1.8988414751313E+00
(PID.TID 0000.0001) %MON dynstat_sst_mean             =   1.8107567303564E+01
(PID.TID 0000.0001) %MON dynstat_sst_sd               =   9.8118817880548E+00
(PID.TID 0000.0001) %MON dynstat_sst_del2             =   1.5007124669485E-02
(PID.TID 0000.0001) %MON dynstat_sss_max              =   4.1347432043231E+01
(PID.TID 0000.0001) %MON dynstat_sss_min              =   1.8752158783968E+01
(PID.TID 0000.0001) %MON dynstat_sss_mean             =   3.4622576603899E+01
(PID.TID 0000.0001) %MON dynstat_sss_sd               =   1.4852544561678E+00
(PID.TID 0000.0001) %MON dynstat_sss_del2             =   1.2212142405495E-02
(PID.TID 0000.0001) %MON forcing_qnet_max             =   1.7959058837891E+03
(PID.TID 0000.0001) %MON forcing_qnet_min             =  -1.0682468261719E+03
(PID.TID 0000.0001) %MON forcing_qnet_mean            =  -8.8621833834179E+00
(PID.TID 0000.0001) %MON forcing_qnet_sd              =   2.1809611240097E+02
(PID.TID 0000.0001) %MON forcing_qnet_del2            =   3.7919243936178E+00
(PID.TID 0000.0001) %MON forcing_qsw_max              =   0.0000000000000E+00
(PID.TID 0000.0001) %MON forcing_qsw_min              =  -1.0771949911379E+02
(PID.TID 0000.0001) %MON forcing_qsw_mean             =  -1.5801227295557E+01
(PID.TID 0000.0001) %MON forcing_qsw_sd               =   2.7815143995247E+01
(PID.TID 0000.0001) %MON forcing_qsw_del2             =   2.3226817242670E-01
(PID.TID 0000.0001) %MON forcing_empmr_max            =   5.5992705747485E-03
(PID.TID 0000.0001) %MON forcing_empmr_min            =  -8.0497764050961E-02
(PID.TID 0000.0001) %MON forcing_empmr_mean           =  -2.4528742358086E-04
(PID.TID 0000.0001) %MON forcing_empmr_sd             =   3.5472188426505E-03
(PID.TID 0000.0001) %MON forcing_empmr_del2           =   1.3988817985645E-04
(PID.TID 0000.0001) %MON forcing_fu_max               =   3.8238608380355E-01
(PID.TID 0000.0001) %MON forcing_fu_min               =  -3.1736370973812E-01
(PID.TID 0000.0001) %MON forcing_fu_mean              =  -2.8759618094355E-03
(PID.TID 0000.0001) %MON forcing_fu_sd                =   6.1937338137110E-02
(PID.TID 0000.0001) %MON forcing_fu_del2              =   6.1062190913163E-04
(PID.TID 0000.0001) %MON forcing_fv_max               =   2.9592661435514E-01
(PID.TID 0000.0001) %MON forcing_fv_min               =  -2.5677608010803E-01
(PID.TID 0000.0001) %MON forcing_fv_mean              =  -1.5015404359760E-02
(PID.TID 0000.0001) %MON forcing_fv_sd                =   6.1412736154899E-02
(PID.TID 0000.0001) %MON forcing_fv_del2              =   5.3380674509397E-04
(PID.TID 0000.0001) %MON trAdv_CFL_u_max              =   2.4080449332987E-03
(PID.TID 0000.0001) %MON trAdv_CFL_v_max              =   1.7180915167172E-03
(PID.TID 0000.0001) %MON trAdv_CFL_w_max              =   1.8715458726498E-03
(PID.TID 0000.0001) %MON advcfl_uvel_max              =   2.3879150491657E-03
(PID.TID 0000.0001) %MON advcfl_vvel_max              =   1.7078987311673E-03
(PID.TID 0000.0001) %MON advcfl_wvel_max              =   2.7999222278595E-03
(PID.TID 0000.0001) %MON advcfl_W_hf_max              =   1.8715458726498E-03
(PID.TID 0000.0001) %MON pe_b_mean                    =   4.9909219786268E-04
(PID.TID 0000.0001) %MON ke_max                       =   2.5878889237627E-01
(PID.TID 0000.0001) %MON ke_mean                      =   1.6645430448667E-04
(PID.TID 0000.0001) %MON ke_vol                       =   1.3398135238353E+18
(PID.TID 0000.0001) %MON vort_r_min                   =  -4.5488949433577E-06
(PID.TID 0000.0001) %MON vort_r_max                   =   2.4832345246887E-06
(PID.TID 0000.0001) %MON vort_a_mean                  =  -2.0549865324846E-05
(PID.TID 0000.0001) %MON vort_a_sd                    =   7.5259739127512E-05
(PID.TID 0000.0001) %MON vort_p_mean                  =  -2.4783261783732E-05
(PID.TID 0000.0001) %MON vort_p_sd                    =   1.2811916930465E-04
(PID.TID 0000.0001) %MON surfExpan_theta_mean         =  -6.4029804414616E-06
(PID.TID 0000.0001) %MON surfExpan_salt_mean          =   1.3112375467869E-06
(PID.TID 0000.0001) // =======================================================
(PID.TID 0000.0001) // End MONITOR dynamic field statistics
(PID.TID 0000.0001) // =======================================================
 Computing Diagnostic #     81  oceTAUX      Counter:       1   Parms: UU      U1      
           Vector  Mate for  oceTAUX      Diagnostic #     82  oceTAUY  exists 
 Computing Diagnostic #     82  oceTAUY      Counter:       1   Parms: VV      U1      
           Vector  Mate for  oceTAUY      Diagnostic #     81  oceTAUX  exists 
 Computing Diagnostic #     85  oceFWflx     Counter:       1   Parms: SM      U1      
 Computing Diagnostic #     86  oceSflux     Counter:       1   Parms: SM      U1      
 Computing Diagnostic #     87  oceQnet      Counter:       1   Parms: SM      U1      
 Computing Diagnostic #     88  oceQsw       Counter:       1   Parms: SM      U1      
 Computing Diagnostic #     27  SALT         Counter:       1   Parms: SMR     MR      
 Computing Diagnostic #     26  THETA        Counter:       1   Parms: SMR     MR      
 Computing Diagnostic #     45  UVELMASS     Counter:       1   Parms: UUr     MR      
           Vector  Mate for  UVELMASS     Diagnostic #     46  VVELMASS exists 
 Computing Diagnostic #     46  VVELMASS     Counter:       1   Parms: VVr     MR      
           Vector  Mate for  VVELMASS     Diagnostic #     45  UVELMASS exists 
 cg2d: Sum(rhs),rhsMax =  -7.30872385927979E+01  3.63477397436223E+01
(PID.TID 0000.0001)      cg2d_init_res =   2.49034771476807E-01
(PID.TID 0000.0001)      cg2d_iters(min,last) =      -1      10
(PID.TID 0000.0001)      cg2d_last_res =   4.54776507829898E-08
(PID.TID 0000.0001) // =======================================================
(PID.TID 0000.0001) // Begin MONITOR dynamic field statistics
(PID.TID 0000.0001) // =======================================================
(PID.TID 0000.0001) %MON time_tsnumber                =                 72068
(PID.TID 0000.0001) %MON time_secondsf                =   6.4861200000000E+07
(PID.TID 0000.0001) %MON dynstat_eta_max              =   1.0860215597550E+00
(PID.TID 0000.0001) %MON dynstat_eta_min              =  -1.6847267915207E+00
(PID.TID 0000.0001) %MON dynstat_eta_mean             =   3.0868827689751E-02
(PID.TID 0000.0001) %MON dynstat_eta_sd               =   6.1136673735187E-01
(PID.TID 0000.0001) %MON dynstat_eta_del2             =   1.5094913953288E-03
(PID.TID 0000.0001) %MON dynstat_uvel_max             =   5.4403763336695E-01
(PID.TID 0000.0001) %MON dynstat_uvel_min             =  -8.2036734281760E-01
(PID.TID 0000.0001) %MON dynstat_uvel_mean            =  -2.8215257324231E-04
(PID.TID 0000.0001) %MON dynstat_uvel_sd              =   1.3130563900374E-02
(PID.TID 0000.0001) %MON dynstat_uvel_del2            =   9.2712933947943E-05
(PID.TID 0000.0001) %MON dynstat_vvel_max             =   3.5241156007562E-01
(PID.TID 0000.0001) %MON dynstat_vvel_min             =  -5.6051566495237E-01
(PID.TID 0000.0001) %MON dynstat_vvel_mean            =   5.1109553485368E-04
(PID.TID 0000.0001) %MON dynstat_vvel_sd              =   1.3682288375549E-02
(PID.TID 0000.0001) %MON dynstat_vvel_del2            =   9.2854007165557E-05
(PID.TID 0000.0001) %MON dynstat_wvel_max             =   1.0462027406919E-04
(PID.TID 0000.0001) %MON dynstat_wvel_min             =  -1.9155824463274E-04
(PID.TID 0000.0001) %MON dynstat_wvel_mean            =  -1.9798383200726E-07
(PID.TID 0000.0001) %MON dynstat_wvel_sd              =   7.8203795409818E-06
(PID.TID 0000.0001) %MON dynstat_wvel_del2            =   7.0576167307559E-08
(PID.TID 0000.0001) %MON dynstat_theta_max            =   3.0923740322658E+01
(PID.TID 0000.0001) %MON dynstat_theta_min            =  -3.0081359691811E+00
(PID.TID 0000.0001) %MON dynstat_theta_mean           =   3.9091616591331E+00
(PID.TID 0000.0001) %MON dynstat_theta_sd             =   4.5714918438825E+00
(PID.TID 0000.0001) %MON dynstat_theta_del2           =   2.6404515958180E-03
(PID.TID 0000.0001) %MON dynstat_salt_max             =   4.1347362722656E+01
(PID.TID 0000.0001) %MON dynstat_salt_min             =   1.8519062813910E+01
(PID.TID 0000.0001) %MON dynstat_salt_mean            =   3.4771925407303E+01
(PID.TID 0000.0001) %MON dynstat_salt_sd              =   5.3207553531430E-01
(PID.TID 0000.0001) %MON dynstat_salt_del2            =   1.0905905379832E-03
(PID.TID 0000.0001) %MON dynstat_sst_max              =   3.0923740322658E+01
(PID.TID 0000.0001) %MON dynstat_sst_min              =  -1.8989480337588E+00
(PID.TID 0000.0001) %MON dynstat_sst_mean             =   1.8107612363460E+01
(PID.TID 0000.0001) %MON dynstat_sst_sd               =   9.8119551267712E+00
(PID.TID 0000.0001) %MON dynstat_sst_del2             =   1.5005211037044E-02
(PID.TID 0000.0001) %MON dynstat_sss_max              =   4.1347362722656E+01
(PID.TID 0000.0001) %MON dynstat_sss_min              =   1.8752177641007E+01
(PID.TID 0000.0001) %MON dynstat_sss_mean             =   3.4622426452666E+01
(PID.TID 0000.0001) %MON dynstat_sss_sd               =   1.4855930622952E+00
(PID.TID 0000.0001) %MON dynstat_sss_del2             =   1.2255706936052E-02
(PID.TID 0000.0001) %MON forcing_qnet_max             =   1.7757885742188E+03
(PID.TID 0000.0001) %MON forcing_qnet_min             =  -1.0539304199219E+03
(PID.TID 0000.0001) %MON forcing_qnet_mean            =  -1.0784934968402E+01
(PID.TID 0000.0001) %MON forcing_qnet_sd              =   2.1826808394917E+02
(PID.TID 0000.0001) %MON forcing_qnet_del2            =   3.6608931718387E+00
(PID.TID 0000.0001) %MON forcing_qsw_max              =   0.0000000000000E+00
(PID.TID 0000.0001) %MON forcing_qsw_min              =  -1.0819419427975E+02
(PID.TID 0000.0001) %MON forcing_qsw_mean             =  -1.5902544761445E+01
(PID.TID 0000.0001) %MON forcing_qsw_sd               =   2.7930333664296E+01
(PID.TID 0000.0001) %MON forcing_qsw_del2             =   2.3454986288223E-01
(PID.TID 0000.0001) %MON forcing_empmr_max            =   5.5416058748960E-03
(PID.TID 0000.0001) %MON forcing_empmr_min            =  -7.9668745398521E-02
(PID.TID 0000.0001) %MON forcing_empmr_mean           =  -2.4230133603405E-04
(PID.TID 0000.0001) %MON forcing_empmr_sd             =   3.5107867173071E-03
(PID.TID 0000.0001) %MON forcing_empmr_del2           =   1.3844018847398E-04
(PID.TID 0000.0001) %MON forcing_fu_max               =   3.7592088694591E-01
(PID.TID 0000.0001) %MON forcing_fu_min               =  -3.2044831501770E-01
(PID.TID 0000.0001) %MON forcing_fu_mean              =  -2.8981241536284E-03
(PID.TID 0000.0001) %MON forcing_fu_sd                =   6.1958637614985E-02
(PID.TID 0000.0001) %MON forcing_fu_del2              =   6.0984254709003E-04
(PID.TID 0000.0001) %MON forcing_fv_max               =   2.9573124886172E-01
(PID.TID 0000.0001) %MON forcing_fv_min               =  -2.5420809618950E-01
(PID.TID 0000.0001) %MON forcing_fv_mean              =  -1.4931203201719E-02
(PID.TID 0000.0001) %MON forcing_fv_sd                =   6.1370658829804E-02
(PID.TID 0000.0001) %MON forcing_fv_del2              =   5.3276409701150E-04
(PID.TID 0000.0001) %MON trAdv_CFL_u_max              =   2.4064743703782E-03
(PID.TID 0000.0001) %MON trAdv_CFL_v_max              =   1.6506059612282E-03
(PID.TID 0000.0001) %MON trAdv_CFL_w_max              =   1.8523316852304E-03
(PID.TID 0000.0001) %MON advcfl_uvel_max              =   2.3839950081790E-03
(PID.TID 0000.0001) %MON advcfl_vvel_max              =   1.6387831440520E-03
(PID.TID 0000.0001) %MON advcfl_wvel_max              =   2.7710867964703E-03
(PID.TID 0000.0001) %MON advcfl_W_hf_max              =   1.8523316852304E-03
(PID.TID 0000.0001) %MON pe_b_mean                    =   4.9919502375058E-04
(PID.TID 0000.0001) %MON ke_max                       =   2.5230278055324E-01
(PID.TID 0000.0001) %MON ke_mean                      =   1.6621733170713E-04
(PID.TID 0000.0001) %MON ke_vol                       =   1.3398136014500E+18
(PID.TID 0000.0001) %MON vort_r_min                   =  -4.4683009189240E-06
(PID.TID 0000.0001) %MON vort_r_max                   =   2.3059934073487E-06
(PID.TID 0000.0001) %MON vort_a_mean                  =  -2.0549865324846E-05
(PID.TID 0000.0001) %MON vort_a_sd                    =   7.5259737265050E-05
(PID.TID 0000.0001) %MON vort_p_mean                  =  -2.4783260133913E-05
(PID.TID 0000.0001) %MON vort_p_sd                    =   1.2811918528983E-04
(PID.TID 0000.0001) %MON surfExpan_theta_mean         =  -6.3258152972168E-06
(PID.TID 0000.0001) %MON surfExpan_salt_mean          =   1.2965610233432E-06
(PID.TID 0000.0001) // =======================================================
(PID.TID 0000.0001) // End MONITOR dynamic field statistics
(PID.TID 0000.0001) // =======================================================
 cg2d: Sum(rhs),rhsMax =  -7.36754767473234E+01  3.62998569531117E+01
(PID.TID 0000.0001)      cg2d_init_res =   2.37693923464604E-01
(PID.TID 0000.0001)      cg2d_iters(min,last) =      -1      10
(PID.TID 0000.0001)      cg2d_last_res =   6.04394886047209E-08
(PID.TID 0000.0001) // =======================================================
(PID.TID 0000.0001) // Begin MONITOR dynamic field statistics
(PID.TID 0000.0001) // =======================================================
(PID.TID 0000.0001) %MON time_tsnumber                =                 72069
(PID.TID 0000.0001) %MON time_secondsf                =   6.4862100000000E+07
(PID.TID 0000.0001) %MON dynstat_eta_max              =   1.1345355698940E+00
(PID.TID 0000.0001) %MON dynstat_eta_min              =  -1.8313451988895E+00
(PID.TID 0000.0001) %MON dynstat_eta_mean             =   3.1076281132898E-02
(PID.TID 0000.0001) %MON dynstat_eta_sd               =   6.1143116512130E-01
(PID.TID 0000.0001) %MON dynstat_eta_del2             =   1.5596659905172E-03
(PID.TID 0000.0001) %MON dynstat_uvel_max             =   5.2846356543846E-01
(PID.TID 0000.0001) %MON dynstat_uvel_min             =  -8.1569665390816E-01
(PID.TID 0000.0001) %MON dynstat_uvel_mean            =  -2.8151220609944E-04
(PID.TID 0000.0001) %MON dynstat_uvel_sd              =   1.3132826135126E-02
(PID.TID 0000.0001) %MON dynstat_uvel_del2            =   9.1689828331533E-05
(PID.TID 0000.0001) %MON dynstat_vvel_max             =   3.3861039396877E-01
(PID.TID 0000.0001) %MON dynstat_vvel_min             =  -5.3391194985164E-01
(PID.TID 0000.0001) %MON dynstat_vvel_mean            =   4.9662317345943E-04
(PID.TID 0000.0001) %MON dynstat_vvel_sd              =   1.3661169875422E-02
(PID.TID 0000.0001) %MON dynstat_vvel_del2            =   9.0787928943145E-05
(PID.TID 0000.0001) %MON dynstat_wvel_max             =   1.0443669683855E-04
(PID.TID 0000.0001) %MON dynstat_wvel_min             =  -1.9157673777125E-04
(PID.TID 0000.0001) %MON dynstat_wvel_mean            =  -1.8624199547547E-07
(PID.TID 0000.0001) %MON dynstat_wvel_sd              =   7.8007467889577E-06
(PID.TID 0000.0001) %MON dynstat_wvel_del2            =   7.0135506703508E-08
(PID.TID 0000.0001) %MON dynstat_theta_max            =   3.0923610744734E+01
(PID.TID 0000.0001) %MON dynstat_theta_min            =  -3.0083726791198E+00
(PID.TID 0000.0001) %MON dynstat_theta_mean           =   3.9091637982128E+00
(PID.TID 0000.0001) %MON dynstat_theta_sd             =   4.5714988472347E+00
(PID.TID 0000.0001) %MON dynstat_theta_del2           =   2.6403372903192E-03
(PID.TID 0000.0001) %MON dynstat_salt_max             =   4.1347301644530E+01
(PID.TID 0000.0001) %MON dynstat_salt_min             =   1.8519072969258E+01
(PID.TID 0000.0001) %MON dynstat_salt_mean            =   3.4771923448203E+01
(PID.TID 0000.0001) %MON dynstat_salt_sd              =   5.3208851756044E-01
(PID.TID 0000.0001) %MON dynstat_salt_del2            =   1.0936254585473E-03
(PID.TID 0000.0001) %MON dynstat_sst_max              =   3.0923610744734E+01
(PID.TID 0000.0001) %MON dynstat_sst_min              =  -1.8990419797588E+00
(PID.TID 0000.0001) %MON dynstat_sst_mean             =   1.8107674489794E+01
(PID.TID 0000.0001) %MON dynstat_sst_sd               =   9.8120370767315E+00
(PID.TID 0000.0001) %MON dynstat_sst_del2             =   1.5003286447930E-02
(PID.TID 0000.0001) %MON dynstat_sss_max              =   4.1347301644530E+01
(PID.TID 0000.0001) %MON dynstat_sss_min              =   1.8752196138192E+01
(PID.TID 0000.0001) %MON dynstat_sss_mean             =   3.4622279556535E+01
(PID.TID 0000.0001) %MON dynstat_sss_sd               =   1.4859269681934E+00
(PID.TID 0000.0001) %MON dynstat_sss_del2             =   1.2298373532342E-02
(PID.TID 0000.0001) %MON forcing_qnet_max             =   1.7549251708984E+03
(PID.TID 0000.0001) %MON forcing_qnet_min             =  -1.2459007568359E+03
(PID.TID 0000.0001) %MON forcing_qnet_mean            =  -1.4198189930502E+01
(PID.TID 0000.0001) %MON forcing_qnet_sd              =   2.1886249789562E+02
(PID.TID 0000.0001) %MON forcing_qnet_del2            =   3.6887786697135E+00
(PID.TID 0000.0001) %MON forcing_qsw_max              =   0.0000000000000E+00
(PID.TID 0000.0001) %MON forcing_qsw_min              =  -1.0828688247202E+02
(PID.TID 0000.0001) %MON forcing_qsw_mean             =  -1.6248167521954E+01
(PID.TID 0000.0001) %MON forcing_qsw_sd               =   2.8125482221802E+01
(PID.TID 0000.0001) %MON forcing_qsw_del2             =   2.3726652108846E-01
(PID.TID 0000.0001) %MON forcing_empmr_max            =   5.4845316335559E-03
(PID.TID 0000.0001) %MON forcing_empmr_min            =  -7.8848116099834E-02
(PID.TID 0000.0001) %MON forcing_empmr_mean           =  -2.3857145961870E-04
(PID.TID 0000.0001) %MON forcing_empmr_sd             =   3.4725429057963E-03
(PID.TID 0000.0001) %MON forcing_empmr_del2           =   1.3699239336564E-04
(PID.TID 0000.0001) %MON forcing_fu_max               =   3.6602997068481E-01
(PID.TID 0000.0001) %MON forcing_fu_min               =  -3.2341830249225E-01
(PID.TID 0000.0001) %MON forcing_fu_mean              =  -2.9245068705328E-03
(PID.TID 0000.0001) %MON forcing_fu_sd                =   6.1918392088681E-02
(PID.TID 0000.0001) %MON forcing_fu_del2              =   6.0829060649514E-04
(PID.TID 0000.0001) %MON forcing_fv_max               =   2.9598798622576E-01
(PID.TID 0000.0001) %MON forcing_fv_min               =  -2.5176273522078E-01
(PID.TID 0000.0001) %MON forcing_fv_mean              =  -1.4874439974760E-02
(PID.TID 0000.0001) %MON forcing_fv_sd                =   6.1306618865353E-02
(PID.TID 0000.0001) %MON forcing_fv_del2              =   5.3149425737939E-04
(PID.TID 0000.0001) %MON trAdv_CFL_u_max              =   2.3951785201187E-03
(PID.TID 0000.0001) %MON trAdv_CFL_v_max              =   1.5740645890556E-03
(PID.TID 0000.0001) %MON trAdv_CFL_w_max              =   1.8280473368041E-03
(PID.TID 0000.0001) %MON advcfl_uvel_max              =   2.3704219434509E-03
(PID.TID 0000.0001) %MON advcfl_vvel_max              =   1.5610016963561E-03
(PID.TID 0000.0001) %MON advcfl_wvel_max              =   2.7425431686899E-03
(PID.TID 0000.0001) %MON advcfl_W_hf_max              =   1.8280473368041E-03
(PID.TID 0000.0001) %MON pe_b_mean                    =   4.9931706607392E-04
(PID.TID 0000.0001) %MON ke_max                       =   2.4391387607429E-01
(PID.TID 0000.0001) %MON ke_mean                      =   1.6596981505467E-04
(PID.TID 0000.0001) %MON ke_vol                       =   1.3398136781198E+18
(PID.TID 0000.0001) %MON vort_r_min                   =  -4.3673754029128E-06
(PID.TID 0000.0001) %MON vort_r_max                   =   2.2084486379775E-06
(PID.TID 0000.0001) %MON vort_a_mean                  =  -2.0549865324846E-05
(PID.TID 0000.0001) %MON vort_a_sd                    =   7.5259734826152E-05
(PID.TID 0000.0001) %MON vort_p_mean                  =  -2.4783258515550E-05
(PID.TID 0000.0001) %MON vort_p_sd                    =   1.2811919689637E-04
(PID.TID 0000.0001) %MON surfExpan_theta_mean         =  -6.2660121231958E-06
(PID.TID 0000.0001) %MON surfExpan_salt_mean          =   1.2802603137944E-06
(PID.TID 0000.0001) // =======================================================
(PID.TID 0000.0001) // End MONITOR dynamic field statistics
(PID.TID 0000.0001) // =======================================================
 cg2d: Sum(rhs),rhsMax =  -7.42519882767307E+01  3.62551304237992E+01
(PID.TID 0000.0001)      cg2d_init_res =   2.26814312281497E-01
(PID.TID 0000.0001)      cg2d_iters(min,last) =      -1      10
(PID.TID 0000.0001)      cg2d_last_res =   7.50189827769177E-08
(PID.TID 0000.0001) // =======================================================
(PID.TID 0000.0001) // Begin MONITOR dynamic field statistics
(PID.TID 0000.0001) // =======================================================
(PID.TID 0000.0001) %MON time_tsnumber                =                 72070
(PID.TID 0000.0001) %MON time_secondsf                =   6.4863000000000E+07
(PID.TID 0000.0001) %MON dynstat_eta_max              =   1.1785347732127E+00
(PID.TID 0000.0001) %MON dynstat_eta_min              =  -1.9455343448507E+00
(PID.TID 0000.0001) %MON dynstat_eta_mean             =   3.1280863450773E-02
(PID.TID 0000.0001) %MON dynstat_eta_sd               =   6.1150025644786E-01
(PID.TID 0000.0001) %MON dynstat_eta_del2             =   1.6067502961887E-03
(PID.TID 0000.0001) %MON dynstat_uvel_max             =   5.0672079789877E-01
(PID.TID 0000.0001) %MON dynstat_uvel_min             =  -8.0763331989213E-01
(PID.TID 0000.0001) %MON dynstat_uvel_mean            =  -2.8285598698894E-04
(PID.TID 0000.0001) %MON dynstat_uvel_sd              =   1.3130723046668E-02
(PID.TID 0000.0001) %MON dynstat_uvel_del2            =   9.0666460102282E-05
(PID.TID 0000.0001) %MON dynstat_vvel_max             =   3.2384755921821E-01
(PID.TID 0000.0001) %MON dynstat_vvel_min             =  -5.0451874264028E-01
(PID.TID 0000.0001) %MON dynstat_vvel_mean            =   4.8044547809933E-04
(PID.TID 0000.0001) %MON dynstat_vvel_sd              =   1.3644244752290E-02
(PID.TID 0000.0001) %MON dynstat_vvel_del2            =   8.8847696700731E-05
(PID.TID 0000.0001) %MON dynstat_wvel_max             =   1.0427569733975E-04
(PID.TID 0000.0001) %MON dynstat_wvel_min             =  -1.9159083354344E-04
(PID.TID 0000.0001) %MON dynstat_wvel_mean            =  -1.7573794046854E-07
(PID.TID 0000.0001) %MON dynstat_wvel_sd              =   7.7850593520190E-06
(PID.TID 0000.0001) %MON dynstat_wvel_del2            =   6.9782374292495E-08
(PID.TID 0000.0001) %MON dynstat_theta_max            =   3.0923474550132E+01
(PID.TID 0000.0001) %MON dynstat_theta_min            =  -3.0086329476150E+00
(PID.TID 0000.0001) %MON dynstat_theta_mean           =   3.9091660524246E+00
(PID.TID 0000.0001) %MON dynstat_theta_sd             =   4.5715063004763E+00
(PID.TID 0000.0001) %MON dynstat_theta_del2           =   2.6402315821222E-03
(PID.TID 0000.0001) %MON dynstat_salt_max             =   4.1347247193295E+01
(PID.TID 0000.0001) %MON dynstat_salt_min             =   1.8519083103127E+01
(PID.TID 0000.0001) %MON dynstat_salt_mean            =   3.4771921533757E+01
(PID.TID 0000.0001) %MON dynstat_salt_sd              =   5.3210132523053E-01
(PID.TID 0000.0001) %MON dynstat_salt_del2            =   1.0966027764320E-03
(PID.TID 0000.0001) %MON dynstat_sst_max              =   3.0923474550132E+01
(PID.TID 0000.0001) %MON dynstat_sst_min              =  -1.8991219304154E+00
(PID.TID 0000.0001) %MON dynstat_sst_mean             =   1.8107741848842E+01
(PID.TID 0000.0001) %MON dynstat_sst_sd               =   9.8121224355860E+00
(PID.TID 0000.0001) %MON dynstat_sst_del2             =   1.5001599419465E-02
(PID.TID 0000.0001) %MON dynstat_sss_max              =   4.1347247193295E+01
(PID.TID 0000.0001) %MON dynstat_sss_min              =   1.8752214322100E+01
(PID.TID 0000.0001) %MON dynstat_sss_mean             =   3.4622134561517E+01
(PID.TID 0000.0001) %MON dynstat_sss_sd               =   1.4862563113073E+00
(PID.TID 0000.0001) %MON dynstat_sss_del2             =   1.2340209702740E-02
(PID.TID 0000.0001) %MON forcing_qnet_max             =   1.7343151855469E+03
(PID.TID 0000.0001) %MON forcing_qnet_min             =  -2.6167529296875E+03
(PID.TID 0000.0001) %MON forcing_qnet_mean            =  -1.6442762249101E+01
(PID.TID 0000.0001) %MON forcing_qnet_sd              =   2.2378313098540E+02
(PID.TID 0000.0001) %MON forcing_qnet_del2            =   4.3040136997255E+00
(PID.TID 0000.0001) %MON forcing_qsw_max              =   0.0000000000000E+00
(PID.TID 0000.0001) %MON forcing_qsw_min              =  -1.0788731476121E+02
(PID.TID 0000.0001) %MON forcing_qsw_mean             =  -1.6433566163317E+01
(PID.TID 0000.0001) %MON forcing_qsw_sd               =   2.8188116297381E+01
(PID.TID 0000.0001) %MON forcing_qsw_del2             =   2.3938319705530E-01
(PID.TID 0000.0001) %MON forcing_empmr_max            =   5.4280483163893E-03
(PID.TID 0000.0001) %MON forcing_empmr_min            =  -7.8036718070507E-02
(PID.TID 0000.0001) %MON forcing_empmr_mean           =  -2.3526966555716E-04
(PID.TID 0000.0001) %MON forcing_empmr_sd             =   3.4367313044309E-03
(PID.TID 0000.0001) %MON forcing_empmr_del2           =   1.3558295105426E-04
(PID.TID 0000.0001) %MON forcing_fu_max               =   3.3574304404414E-01
(PID.TID 0000.0001) %MON forcing_fu_min               =  -3.4568563333717E-01
(PID.TID 0000.0001) %MON forcing_fu_mean              =  -3.1269856087429E-03
(PID.TID 0000.0001) %MON forcing_fu_sd                =   6.1681913977355E-02
(PID.TID 0000.0001) %MON forcing_fu_del2              =   6.0715887156921E-04
(PID.TID 0000.0001) %MON forcing_fv_max               =   2.9458273295566E-01
(PID.TID 0000.0001) %MON forcing_fv_min               =  -2.5022726442006E-01
(PID.TID 0000.0001) %MON forcing_fv_mean              =  -1.4813868992564E-02
(PID.TID 0000.0001) %MON forcing_fv_sd                =   6.1171867370952E-02
(PID.TID 0000.0001) %MON forcing_fv_del2              =   5.2997590505351E-04
(PID.TID 0000.0001) %MON trAdv_CFL_u_max              =   2.3738868815873E-03
(PID.TID 0000.0001) %MON trAdv_CFL_v_max              =   1.4889652718347E-03
(PID.TID 0000.0001) %MON trAdv_CFL_w_max              =   1.7988453356949E-03
(PID.TID 0000.0001) %MON advcfl_uvel_max              =   2.3469898209855E-03
(PID.TID 0000.0001) %MON advcfl_vvel_max              =   1.4750645931857E-03
(PID.TID 0000.0001) %MON advcfl_wvel_max              =   2.7143206285394E-03
(PID.TID 0000.0001) %MON advcfl_W_hf_max              =   1.7988453356949E-03
(PID.TID 0000.0001) %MON pe_b_mean                    =   4.9944659331525E-04
(PID.TID 0000.0001) %MON ke_max                       =   2.3373732473664E-01
(PID.TID 0000.0001) %MON ke_mean                      =   1.6572307293210E-04
(PID.TID 0000.0001) %MON ke_vol                       =   1.3398137536093E+18
(PID.TID 0000.0001) %MON vort_r_min                   =  -4.2464510491747E-06
(PID.TID 0000.0001) %MON vort_r_max                   =   2.1644648274892E-06
(PID.TID 0000.0001) %MON vort_a_mean                  =  -2.0549865324846E-05
(PID.TID 0000.0001) %MON vort_a_sd                    =   7.5259731862447E-05
(PID.TID 0000.0001) %MON vort_p_mean                  =  -2.4783256922543E-05
(PID.TID 0000.0001) %MON vort_p_sd                    =   1.2811920459076E-04
(PID.TID 0000.0001) %MON surfExpan_theta_mean         =  -6.2170780057341E-06
(PID.TID 0000.0001) %MON surfExpan_salt_mean          =   1.2635017427041E-06
(PID.TID 0000.0001) // =======================================================
(PID.TID 0000.0001) // End MONITOR dynamic field statistics
(PID.TID 0000.0001) // =======================================================
 cg2d: Sum(rhs),rhsMax =  -7.48171401628310E+01  3.62143289751210E+01
(PID.TID 0000.0001)      cg2d_init_res =   2.16803853906025E-01
(PID.TID 0000.0001)      cg2d_iters(min,last) =      -1      10
(PID.TID 0000.0001)      cg2d_last_res =   8.38771183668417E-08
(PID.TID 0000.0001) // =======================================================
(PID.TID 0000.0001) // Begin MONITOR dynamic field statistics
(PID.TID 0000.0001) // =======================================================
(PID.TID 0000.0001) %MON time_tsnumber                =                 72071
(PID.TID 0000.0001) %MON time_secondsf                =   6.4863900000000E+07
(PID.TID 0000.0001) %MON dynstat_eta_max              =   1.2175884868562E+00
(PID.TID 0000.0001) %MON dynstat_eta_min              =  -2.0269950211304E+00
(PID.TID 0000.0001) %MON dynstat_eta_mean             =   3.1483479167859E-02
(PID.TID 0000.0001) %MON dynstat_eta_sd               =   6.1156707815249E-01
(PID.TID 0000.0001) %MON dynstat_eta_del2             =   1.6475637124579E-03
(PID.TID 0000.0001) %MON dynstat_uvel_max             =   4.7928901915109E-01
(PID.TID 0000.0001) %MON dynstat_uvel_min             =  -7.9615032763934E-01
(PID.TID 0000.0001) %MON dynstat_uvel_mean            =  -2.8605073678825E-04
(PID.TID 0000.0001) %MON dynstat_uvel_sd              =   1.3125100049074E-02
(PID.TID 0000.0001) %MON dynstat_uvel_del2            =   8.9668674413575E-05
(PID.TID 0000.0001) %MON dynstat_vvel_max             =   3.0825888447829E-01
(PID.TID 0000.0001) %MON dynstat_vvel_min             =  -4.7253082621460E-01
(PID.TID 0000.0001) %MON dynstat_vvel_mean            =   4.6279808740085E-04
(PID.TID 0000.0001) %MON dynstat_vvel_sd              =   1.3631839514859E-02
(PID.TID 0000.0001) %MON dynstat_vvel_del2            =   8.7143372478567E-05
(PID.TID 0000.0001) %MON dynstat_wvel_max             =   1.0413607152902E-04
(PID.TID 0000.0001) %MON dynstat_wvel_min             =  -1.9159563685090E-04
(PID.TID 0000.0001) %MON dynstat_wvel_mean            =  -1.6630657834913E-07
(PID.TID 0000.0001) %MON dynstat_wvel_sd              =   7.7727290713480E-06
(PID.TID 0000.0001) %MON dynstat_wvel_del2            =   6.9500992328070E-08
(PID.TID 0000.0001) %MON dynstat_theta_max            =   3.0923331504044E+01
(PID.TID 0000.0001) %MON dynstat_theta_min            =  -3.0089192422277E+00
(PID.TID 0000.0001) %MON dynstat_theta_mean           =   3.9091683523735E+00
(PID.TID 0000.0001) %MON dynstat_theta_sd             =   4.5715139707336E+00
(PID.TID 0000.0001) %MON dynstat_theta_del2           =   2.6401225942145E-03
(PID.TID 0000.0001) %MON dynstat_salt_max             =   4.1347198080930E+01
(PID.TID 0000.0001) %MON dynstat_salt_min             =   1.8519093215606E+01
(PID.TID 0000.0001) %MON dynstat_salt_mean            =   3.4771919647632E+01
(PID.TID 0000.0001) %MON dynstat_salt_sd              =   5.3211394884336E-01
(PID.TID 0000.0001) %MON dynstat_salt_del2            =   1.0995205281323E-03
(PID.TID 0000.0001) %MON dynstat_sst_max              =   3.0923331504044E+01
(PID.TID 0000.0001) %MON dynstat_sst_min              =  -1.8991867223144E+00
(PID.TID 0000.0001) %MON dynstat_sst_mean             =   1.8107811815369E+01
(PID.TID 0000.0001) %MON dynstat_sst_sd               =   9.8122108486664E+00
(PID.TID 0000.0001) %MON dynstat_sst_del2             =   1.4999808438237E-02
(PID.TID 0000.0001) %MON dynstat_sss_max              =   4.1347198080930E+01
(PID.TID 0000.0001) %MON dynstat_sss_min              =   1.8752232207100E+01
(PID.TID 0000.0001) %MON dynstat_sss_mean             =   3.4621991168609E+01
(PID.TID 0000.0001) %MON dynstat_sss_sd               =   1.4865807888440E+00
(PID.TID 0000.0001) %MON dynstat_sss_del2             =   1.2381183721613E-02
(PID.TID 0000.0001) %MON forcing_qnet_max             =   1.7158946533203E+03
(PID.TID 0000.0001) %MON forcing_qnet_min             =  -3.0838540039062E+03
(PID.TID 0000.0001) %MON forcing_qnet_mean            =  -1.7469645750642E+01
(PID.TID 0000.0001) %MON forcing_qnet_sd              =   2.2354995288448E+02
(PID.TID 0000.0001) %MON forcing_qnet_del2            =   4.3248733395300E+00
(PID.TID 0000.0001) %MON forcing_qsw_max              =   0.0000000000000E+00
(PID.TID 0000.0001) %MON forcing_qsw_min              =  -1.0705212606711E+02
(PID.TID 0000.0001) %MON forcing_qsw_mean             =  -1.6588412841196E+01
(PID.TID 0000.0001) %MON forcing_qsw_sd               =   2.8182471115835E+01
(PID.TID 0000.0001) %MON forcing_qsw_del2             =   2.4085429661624E-01
(PID.TID 0000.0001) %MON forcing_empmr_max            =   5.3721549920738E-03
(PID.TID 0000.0001) %MON forcing_empmr_min            =  -7.7232882380486E-02
(PID.TID 0000.0001) %MON forcing_empmr_mean           =  -2.3300807464790E-04
(PID.TID 0000.0001) %MON forcing_empmr_sd             =   3.4014850271369E-03
(PID.TID 0000.0001) %MON forcing_empmr_del2           =   1.3415499628037E-04
(PID.TID 0000.0001) %MON forcing_fu_max               =   3.4165829738644E-01
(PID.TID 0000.0001) %MON forcing_fu_min               =  -3.6374124491228E-01
(PID.TID 0000.0001) %MON forcing_fu_mean              =  -3.2586684734716E-03
(PID.TID 0000.0001) %MON forcing_fu_sd                =   6.1677641322594E-02
(PID.TID 0000.0001) %MON forcing_fu_del2              =   6.0720456942421E-04
(PID.TID 0000.0001) %MON forcing_fv_max               =   2.9619321540043E-01
(PID.TID 0000.0001) %MON forcing_fv_min               =  -2.4891628924001E-01
(PID.TID 0000.0001) %MON forcing_fv_mean              =  -1.4742725858448E-02
(PID.TID 0000.0001) %MON forcing_fv_sd                =   6.1118236321718E-02
(PID.TID 0000.0001) %MON forcing_fv_del2              =   5.2942784770474E-04
(PID.TID 0000.0001) %MON trAdv_CFL_u_max              =   2.3424570574094E-03
(PID.TID 0000.0001) %MON trAdv_CFL_v_max              =   1.3958763828829E-03
(PID.TID 0000.0001) %MON trAdv_CFL_w_max              =   1.7649147806685E-03
(PID.TID 0000.0001) %MON advcfl_uvel_max              =   2.3136201403793E-03
(PID.TID 0000.0001) %MON advcfl_vvel_max              =   1.3815413225092E-03
(PID.TID 0000.0001) %MON advcfl_wvel_max              =   2.6863611262778E-03
(PID.TID 0000.0001) %MON advcfl_W_hf_max              =   1.7649147806685E-03
(PID.TID 0000.0001) %MON pe_b_mean                    =   4.9957238200425E-04
(PID.TID 0000.0001) %MON ke_max                       =   2.2651209232559E-01
(PID.TID 0000.0001) %MON ke_mean                      =   1.6549140731127E-04
(PID.TID 0000.0001) %MON ke_vol                       =   1.3398138280541E+18
(PID.TID 0000.0001) %MON vort_r_min                   =  -4.1060682445661E-06
(PID.TID 0000.0001) %MON vort_r_max                   =   2.1198549535047E-06
(PID.TID 0000.0001) %MON vort_a_mean                  =  -2.0549865324846E-05
(PID.TID 0000.0001) %MON vort_a_sd                    =   7.5259728435440E-05
(PID.TID 0000.0001) %MON vort_p_mean                  =  -2.4783255351264E-05
(PID.TID 0000.0001) %MON vort_p_sd                    =   1.2811920904110E-04
(PID.TID 0000.0001) %MON surfExpan_theta_mean         =  -6.1756982963930E-06
(PID.TID 0000.0001) %MON surfExpan_salt_mean          =   1.2463191993162E-06
(PID.TID 0000.0001) // =======================================================
(PID.TID 0000.0001) // End MONITOR dynamic field statistics
(PID.TID 0000.0001) // =======================================================
 Computing Diagnostic #     81  oceTAUX      Counter:       1   Parms: UU      U1      
           Vector  Mate for  oceTAUX      Diagnostic #     82  oceTAUY  exists 
 Computing Diagnostic #     82  oceTAUY      Counter:       1   Parms: VV      U1      
           Vector  Mate for  oceTAUY      Diagnostic #     81  oceTAUX  exists 
 Computing Diagnostic #     85  oceFWflx     Counter:       1   Parms: SM      U1      
 Computing Diagnostic #     86  oceSflux     Counter:       1   Parms: SM      U1      
 Computing Diagnostic #     87  oceQnet      Counter:       1   Parms: SM      U1      
 Computing Diagnostic #     88  oceQsw       Counter:       1   Parms: SM      U1      
 Computing Diagnostic #     27  SALT         Counter:       1   Parms: SMR     MR      
 Computing Diagnostic #     26  THETA        Counter:       1   Parms: SMR     MR      
 Computing Diagnostic #     45  UVELMASS     Counter:       1   Parms: UUr     MR      
           Vector  Mate for  UVELMASS     Diagnostic #     46  VVELMASS exists 
 Computing Diagnostic #     46  VVELMASS     Counter:       1   Parms: VVr     MR      
           Vector  Mate for  VVELMASS     Diagnostic #     45  UVELMASS exists 
 cg2d: Sum(rhs),rhsMax =  -7.40064793393208E+01  3.68446688939182E+01
(PID.TID 0000.0001)      cg2d_init_res =   2.04193604585684E-01
(PID.TID 0000.0001)      cg2d_iters(min,last) =      -1      10
(PID.TID 0000.0001)      cg2d_last_res =   8.67943796134050E-08
(PID.TID 0000.0001) // =======================================================
(PID.TID 0000.0001) // Begin MONITOR dynamic field statistics
(PID.TID 0000.0001) // =======================================================
(PID.TID 0000.0001) %MON time_tsnumber                =                 72072
(PID.TID 0000.0001) %MON time_secondsf                =   6.4864800000000E+07
(PID.TID 0000.0001) %MON dynstat_eta_max              =   1.2512697480032E+00
(PID.TID 0000.0001) %MON dynstat_eta_min              =  -2.0759471367861E+00
(PID.TID 0000.0001) %MON dynstat_eta_mean             =   3.1684406434453E-02
(PID.TID 0000.0001) %MON dynstat_eta_sd               =   6.1162529974839E-01
(PID.TID 0000.0001) %MON dynstat_eta_del2             =   1.6797428584081E-03
(PID.TID 0000.0001) %MON dynstat_uvel_max             =   4.4671395736657E-01
(PID.TID 0000.0001) %MON dynstat_uvel_min             =  -7.8126611809239E-01
(PID.TID 0000.0001) %MON dynstat_uvel_mean            =  -2.9099230405711E-04
(PID.TID 0000.0001) %MON dynstat_uvel_sd              =   1.3116465090592E-02
(PID.TID 0000.0001) %MON dynstat_uvel_del2            =   8.8718759891216E-05
(PID.TID 0000.0001) %MON dynstat_vvel_max             =   2.9198831546287E-01
(PID.TID 0000.0001) %MON dynstat_vvel_min             =  -4.3816751079739E-01
(PID.TID 0000.0001) %MON dynstat_vvel_mean            =   4.4388679374066E-04
(PID.TID 0000.0001) %MON dynstat_vvel_sd              =   1.3624117226547E-02
(PID.TID 0000.0001) %MON dynstat_vvel_del2            =   8.5765328791477E-05
(PID.TID 0000.0001) %MON dynstat_wvel_max             =   1.0402214796013E-04
(PID.TID 0000.0001) %MON dynstat_wvel_min             =  -1.9159274001464E-04
(PID.TID 0000.0001) %MON dynstat_wvel_mean            =  -1.5743139122830E-07
(PID.TID 0000.0001) %MON dynstat_wvel_sd              =   7.7625333886357E-06
(PID.TID 0000.0001) %MON dynstat_wvel_del2            =   6.9280520421991E-08
(PID.TID 0000.0001) %MON dynstat_theta_max            =   3.0923181368515E+01
(PID.TID 0000.0001) %MON dynstat_theta_min            =  -3.0092331565351E+00
(PID.TID 0000.0001) %MON dynstat_theta_mean           =   3.9091706646664E+00
(PID.TID 0000.0001) %MON dynstat_theta_sd             =   4.5715217724941E+00
(PID.TID 0000.0001) %MON dynstat_theta_del2           =   2.6400057851479E-03
(PID.TID 0000.0001) %MON dynstat_salt_max             =   4.1347153190153E+01
(PID.TID 0000.0001) %MON dynstat_salt_min             =   1.8519103307306E+01
(PID.TID 0000.0001) %MON dynstat_salt_mean            =   3.4771917776004E+01
(PID.TID 0000.0001) %MON dynstat_salt_sd              =   5.3212636142743E-01
(PID.TID 0000.0001) %MON dynstat_salt_del2            =   1.1023774318433E-03
(PID.TID 0000.0001) %MON dynstat_sst_max              =   3.0923181368515E+01
(PID.TID 0000.0001) %MON dynstat_sst_min              =  -1.8992365572540E+00
(PID.TID 0000.0001) %MON dynstat_sst_mean             =   1.8107882370490E+01
(PID.TID 0000.0001) %MON dynstat_sst_sd               =   9.8123029731125E+00
(PID.TID 0000.0001) %MON dynstat_sst_del2             =   1.4997784078514E-02
(PID.TID 0000.0001) %MON dynstat_sss_max              =   4.1347153190153E+01
(PID.TID 0000.0001) %MON dynstat_sss_min              =   1.8752249936952E+01
(PID.TID 0000.0001) %MON dynstat_sss_mean             =   3.4621848551231E+01
(PID.TID 0000.0001) %MON dynstat_sss_sd               =   1.4868995302249E+00
(PID.TID 0000.0001) %MON dynstat_sss_del2             =   1.2421278013500E-02
(PID.TID 0000.0001) %MON forcing_qnet_max             =   1.6957662353516E+03
(PID.TID 0000.0001) %MON forcing_qnet_min             =  -1.0825819091797E+03
(PID.TID 0000.0001) %MON forcing_qnet_mean            =  -1.7917246303802E+01
(PID.TID 0000.0001) %MON forcing_qnet_sd              =   2.1830201657342E+02
(PID.TID 0000.0001) %MON forcing_qnet_del2            =   3.6657550454812E+00
(PID.TID 0000.0001) %MON forcing_qsw_max              =   0.0000000000000E+00
(PID.TID 0000.0001) %MON forcing_qsw_min              =  -1.0718732856247E+02
(PID.TID 0000.0001) %MON forcing_qsw_mean             =  -1.6711362135781E+01
(PID.TID 0000.0001) %MON forcing_qsw_sd               =   2.8108597241165E+01
(PID.TID 0000.0001) %MON forcing_qsw_del2             =   2.4164887576784E-01
(PID.TID 0000.0001) %MON forcing_empmr_max            =   5.3167534060776E-03
(PID.TID 0000.0001) %MON forcing_empmr_min            =  -7.6437421143055E-02
(PID.TID 0000.0001) %MON forcing_empmr_mean           =  -2.3106635658296E-04
(PID.TID 0000.0001) %MON forcing_empmr_sd             =   3.3665844339935E-03
(PID.TID 0000.0001) %MON forcing_empmr_del2           =   1.3276426863474E-04
(PID.TID 0000.0001) %MON forcing_fu_max               =   3.4306015162131E-01
(PID.TID 0000.0001) %MON forcing_fu_min               =  -3.6701217565243E-01
(PID.TID 0000.0001) %MON forcing_fu_mean              =  -3.2802212495426E-03
(PID.TID 0000.0001) %MON forcing_fu_sd                =   6.1583405924792E-02
(PID.TID 0000.0001) %MON forcing_fu_del2              =   6.0569276439578E-04
(PID.TID 0000.0001) %MON forcing_fv_max               =   2.9631208098101E-01
(PID.TID 0000.0001) %MON forcing_fv_min               =  -2.4866228627465E-01
(PID.TID 0000.0001) %MON forcing_fv_mean              =  -1.4714959116100E-02
(PID.TID 0000.0001) %MON forcing_fv_sd                =   6.1057553229762E-02
(PID.TID 0000.0001) %MON forcing_fv_del2              =   5.2842998767230E-04
(PID.TID 0000.0001) %MON trAdv_CFL_u_max              =   2.3008827158299E-03
(PID.TID 0000.0001) %MON trAdv_CFL_v_max              =   1.2954489589976E-03
(PID.TID 0000.0001) %MON trAdv_CFL_w_max              =   1.7264950844557E-03
(PID.TID 0000.0001) %MON advcfl_uvel_max              =   2.2703664911802E-03
(PID.TID 0000.0001) %MON advcfl_vvel_max              =   1.2810730829922E-03
(PID.TID 0000.0001) %MON advcfl_wvel_max              =   2.6586929093237E-03
(PID.TID 0000.0001) %MON advcfl_W_hf_max              =   1.7264950844557E-03
(PID.TID 0000.0001) %MON pe_b_mean                    =   4.9968413500263E-04
(PID.TID 0000.0001) %MON ke_max                       =   2.2623616313891E-01
(PID.TID 0000.0001) %MON ke_mean                      =   1.6528304407604E-04
(PID.TID 0000.0001) %MON ke_vol                       =   1.3398139017833E+18
(PID.TID 0000.0001) %MON vort_r_min                   =  -3.9469938999266E-06
(PID.TID 0000.0001) %MON vort_r_max                   =   2.0746512540078E-06
(PID.TID 0000.0001) %MON vort_a_mean                  =  -2.0549865324846E-05
(PID.TID 0000.0001) %MON vort_a_sd                    =   7.5259724604191E-05
(PID.TID 0000.0001) %MON vort_p_mean                  =  -2.4783253796381E-05
(PID.TID 0000.0001) %MON vort_p_sd                    =   1.2811921090210E-04
(PID.TID 0000.0001) %MON surfExpan_theta_mean         =  -6.1333152238055E-06
(PID.TID 0000.0001) %MON surfExpan_salt_mean          =   1.2286538331134E-06
(PID.TID 0000.0001) // =======================================================
(PID.TID 0000.0001) // End MONITOR dynamic field statistics
(PID.TID 0000.0001) // =======================================================
 cg2d: Sum(rhs),rhsMax =  -7.38730497233565E+01  3.71434125229704E+01
(PID.TID 0000.0001)      cg2d_init_res =   1.95044340624377E-01
(PID.TID 0000.0001)      cg2d_iters(min,last) =      -1      10
(PID.TID 0000.0001)      cg2d_last_res =   8.78387633989615E-08
(PID.TID 0000.0001) // =======================================================
(PID.TID 0000.0001) // Begin MONITOR dynamic field statistics
(PID.TID 0000.0001) // =======================================================
(PID.TID 0000.0001) %MON time_tsnumber                =                 72073
(PID.TID 0000.0001) %MON time_secondsf                =   6.4865700000000E+07
(PID.TID 0000.0001) %MON dynstat_eta_max              =   1.2791933566303E+00
(PID.TID 0000.0001) %MON dynstat_eta_min              =  -2.0929931153810E+00
(PID.TID 0000.0001) %MON dynstat_eta_mean             =   3.1883721241270E-02
(PID.TID 0000.0001) %MON dynstat_eta_sd               =   6.1166955830065E-01
(PID.TID 0000.0001) %MON dynstat_eta_del2             =   1.7016320647835E-03
(PID.TID 0000.0001) %MON dynstat_uvel_max             =   4.0960036917804E-01
(PID.TID 0000.0001) %MON dynstat_uvel_min             =  -7.6304440571874E-01
(PID.TID 0000.0001) %MON dynstat_uvel_mean            =  -2.9763849335909E-04
(PID.TID 0000.0001) %MON dynstat_uvel_sd              =   1.3105242620735E-02
(PID.TID 0000.0001) %MON dynstat_uvel_del2            =   8.7838194349851E-05
(PID.TID 0000.0001) %MON dynstat_vvel_max             =   2.7518677201926E-01
(PID.TID 0000.0001) %MON dynstat_vvel_min             =  -4.0166794921522E-01
(PID.TID 0000.0001) %MON dynstat_vvel_mean            =   4.2393935782612E-04
(PID.TID 0000.0001) %MON dynstat_vvel_sd              =   1.3620982172008E-02
(PID.TID 0000.0001) %MON dynstat_vvel_del2            =   8.4775095843906E-05
(PID.TID 0000.0001) %MON dynstat_wvel_max             =   1.0554960932163E-04
(PID.TID 0000.0001) %MON dynstat_wvel_min             =  -1.9158846624299E-04
(PID.TID 0000.0001) %MON dynstat_wvel_mean            =  -1.4844298980683E-07
(PID.TID 0000.0001) %MON dynstat_wvel_sd              =   7.7542847378618E-06
(PID.TID 0000.0001) %MON dynstat_wvel_del2            =   6.9108050507873E-08
(PID.TID 0000.0001) %MON dynstat_theta_max            =   3.0923023903880E+01
(PID.TID 0000.0001) %MON dynstat_theta_min            =  -3.0095753043026E+00
(PID.TID 0000.0001) %MON dynstat_theta_mean           =   3.9091731461615E+00
(PID.TID 0000.0001) %MON dynstat_theta_sd             =   4.5715303702007E+00
(PID.TID 0000.0001) %MON dynstat_theta_del2           =   2.6398977161008E-03
(PID.TID 0000.0001) %MON dynstat_salt_max             =   4.1347111300833E+01
(PID.TID 0000.0001) %MON dynstat_salt_min             =   1.8519113379504E+01
(PID.TID 0000.0001) %MON dynstat_salt_mean            =   3.4771915925354E+01
(PID.TID 0000.0001) %MON dynstat_salt_sd              =   5.3213859478676E-01
(PID.TID 0000.0001) %MON dynstat_salt_del2            =   1.1051783631485E-03
(PID.TID 0000.0001) %MON dynstat_sst_max              =   3.0923023903880E+01
(PID.TID 0000.0001) %MON dynstat_sst_min              =  -1.8992696282204E+00
(PID.TID 0000.0001) %MON dynstat_sst_mean             =   1.8107966847639E+01
(PID.TID 0000.0001) %MON dynstat_sst_sd               =   9.8124054367050E+00
(PID.TID 0000.0001) %MON dynstat_sst_del2             =   1.4995947095748E-02
(PID.TID 0000.0001) %MON dynstat_sss_max              =   4.1347111300833E+01
(PID.TID 0000.0001) %MON dynstat_sss_min              =   1.8752267257170E+01
(PID.TID 0000.0001) %MON dynstat_sss_mean             =   3.4621707800136E+01
(PID.TID 0000.0001) %MON dynstat_sss_sd               =   1.4872133336523E+00
(PID.TID 0000.0001) %MON dynstat_sss_del2             =   1.2460565218891E-02
(PID.TID 0000.0001) %MON forcing_qnet_max             =   1.6758822021484E+03
(PID.TID 0000.0001) %MON forcing_qnet_min             =  -1.1689458007812E+03
(PID.TID 0000.0001) %MON forcing_qnet_mean            =  -2.1035960618208E+01
(PID.TID 0000.0001) %MON forcing_qnet_sd              =   2.1634740650117E+02
(PID.TID 0000.0001) %MON forcing_qnet_del2            =   3.6170990606599E+00
(PID.TID 0000.0001) %MON forcing_qsw_max              =   0.0000000000000E+00
(PID.TID 0000.0001) %MON forcing_qsw_min              =  -1.0631054795463E+02
(PID.TID 0000.0001) %MON forcing_qsw_mean             =  -1.7136456074850E+01
(PID.TID 0000.0001) %MON forcing_qsw_sd               =   2.8124133958637E+01
(PID.TID 0000.0001) %MON forcing_qsw_del2             =   2.4380060080098E-01
(PID.TID 0000.0001) %MON forcing_empmr_max            =   5.2620409987867E-03
(PID.TID 0000.0001) %MON forcing_empmr_min            =  -7.5650356709957E-02
(PID.TID 0000.0001) %MON forcing_empmr_mean           =  -2.2921202784016E-04
(PID.TID 0000.0001) %MON forcing_empmr_sd             =   3.3321093291668E-03
(PID.TID 0000.0001) %MON forcing_empmr_del2           =   1.3137910715383E-04
(PID.TID 0000.0001) %MON forcing_fu_max               =   3.4151774145104E-01
(PID.TID 0000.0001) %MON forcing_fu_min               =  -3.7166375683085E-01
(PID.TID 0000.0001) %MON forcing_fu_mean              =  -3.3573947265621E-03
(PID.TID 0000.0001) %MON forcing_fu_sd                =   6.1303677737257E-02
(PID.TID 0000.0001) %MON forcing_fu_del2              =   6.0384820715635E-04
(PID.TID 0000.0001) %MON forcing_fv_max               =   2.9774550618868E-01
(PID.TID 0000.0001) %MON forcing_fv_min               =  -2.4911590614837E-01
(PID.TID 0000.0001) %MON forcing_fv_mean              =  -1.4675762656455E-02
(PID.TID 0000.0001) %MON forcing_fv_sd                =   6.0989105355462E-02
(PID.TID 0000.0001) %MON forcing_fv_del2              =   5.2731203779763E-04
(PID.TID 0000.0001) %MON trAdv_CFL_u_max              =   2.2492948800007E-03
(PID.TID 0000.0001) %MON trAdv_CFL_v_max              =   1.1884021934255E-03
(PID.TID 0000.0001) %MON trAdv_CFL_w_max              =   1.6838670905700E-03
(PID.TID 0000.0001) %MON advcfl_uvel_max              =   2.2174140282140E-03
(PID.TID 0000.0001) %MON advcfl_vvel_max              =   1.1743590872447E-03
(PID.TID 0000.0001) %MON advcfl_wvel_max              =   2.6313167551289E-03
(PID.TID 0000.0001) %MON advcfl_W_hf_max              =   1.6838670905700E-03
(PID.TID 0000.0001) %MON pe_b_mean                    =   4.9977311200454E-04
(PID.TID 0000.0001) %MON ke_max                       =   2.2485097978699E-01
(PID.TID 0000.0001) %MON ke_mean                      =   1.6510202290856E-04
(PID.TID 0000.0001) %MON ke_vol                       =   1.3398139748980E+18
(PID.TID 0000.0001) %MON vort_r_min                   =  -3.7702057601033E-06
(PID.TID 0000.0001) %MON vort_r_max                   =   2.1390160379937E-06
(PID.TID 0000.0001) %MON vort_a_mean                  =  -2.0549865324846E-05
(PID.TID 0000.0001) %MON vort_a_sd                    =   7.5259720426779E-05
(PID.TID 0000.0001) %MON vort_p_mean                  =  -2.4783252258339E-05
(PID.TID 0000.0001) %MON vort_p_sd                    =   1.2811921084137E-04
(PID.TID 0000.0001) %MON surfExpan_theta_mean         =  -6.0837936196535E-06
(PID.TID 0000.0001) %MON surfExpan_salt_mean          =   1.2120612256595E-06
(PID.TID 0000.0001) // =======================================================
(PID.TID 0000.0001) // End MONITOR dynamic field statistics
(PID.TID 0000.0001) // =======================================================
 cg2d: Sum(rhs),rhsMax =  -7.48276602175735E+01  3.68964375271569E+01
(PID.TID 0000.0001)      cg2d_init_res =   1.90256019139756E-01
(PID.TID 0000.0001)      cg2d_iters(min,last) =      -1      10
(PID.TID 0000.0001)      cg2d_last_res =   8.88136840495980E-08
(PID.TID 0000.0001) // =======================================================
(PID.TID 0000.0001) // Begin MONITOR dynamic field statistics
(PID.TID 0000.0001) // =======================================================
(PID.TID 0000.0001) %MON time_tsnumber                =                 72074
(PID.TID 0000.0001) %MON time_secondsf                =   6.4866600000000E+07
(PID.TID 0000.0001) %MON dynstat_eta_max              =   1.3009954534114E+00
(PID.TID 0000.0001) %MON dynstat_eta_min              =  -2.0793104253110E+00
(PID.TID 0000.0001) %MON dynstat_eta_mean             =   3.2080990920905E-02
(PID.TID 0000.0001) %MON dynstat_eta_sd               =   6.1169603060084E-01
(PID.TID 0000.0001) %MON dynstat_eta_del2             =   1.7122617424569E-03
(PID.TID 0000.0001) %MON dynstat_uvel_max             =   3.6859988322538E-01
(PID.TID 0000.0001) %MON dynstat_uvel_min             =  -7.4159338391652E-01
(PID.TID 0000.0001) %MON dynstat_uvel_mean            =  -3.0587685394146E-04
(PID.TID 0000.0001) %MON dynstat_uvel_sd              =   1.3092183474970E-02
(PID.TID 0000.0001) %MON dynstat_uvel_del2            =   8.7045440556159E-05
(PID.TID 0000.0001) %MON dynstat_vvel_max             =   2.7138372570908E-01
(PID.TID 0000.0001) %MON dynstat_vvel_min             =  -3.6329318685076E-01
(PID.TID 0000.0001) %MON dynstat_vvel_mean            =   4.0314053844754E-04
(PID.TID 0000.0001) %MON dynstat_vvel_sd              =   1.3622150273019E-02
(PID.TID 0000.0001) %MON dynstat_vvel_del2            =   8.4198302573040E-05
(PID.TID 0000.0001) %MON dynstat_wvel_max             =   1.1149966072003E-04
(PID.TID 0000.0001) %MON dynstat_wvel_min             =  -1.9157656126801E-04
(PID.TID 0000.0001) %MON dynstat_wvel_mean            =  -1.3910507585913E-07
(PID.TID 0000.0001) %MON dynstat_wvel_sd              =   7.7465785677399E-06
(PID.TID 0000.0001) %MON dynstat_wvel_del2            =   6.8969025840111E-08
(PID.TID 0000.0001) %MON dynstat_theta_max            =   3.0922858892619E+01
(PID.TID 0000.0001) %MON dynstat_theta_min            =  -3.0099455131208E+00
(PID.TID 0000.0001) %MON dynstat_theta_mean           =   3.9091757018351E+00
(PID.TID 0000.0001) %MON dynstat_theta_sd             =   4.5715393194984E+00
(PID.TID 0000.0001) %MON dynstat_theta_del2           =   2.6397867561508E-03
(PID.TID 0000.0001) %MON dynstat_salt_max             =   4.1347071508011E+01
(PID.TID 0000.0001) %MON dynstat_salt_min             =   1.8519123434370E+01
(PID.TID 0000.0001) %MON dynstat_salt_mean            =   3.4771914100383E+01
(PID.TID 0000.0001) %MON dynstat_salt_sd              =   5.3215064850429E-01
(PID.TID 0000.0001) %MON dynstat_salt_del2            =   1.1079187433828E-03
(PID.TID 0000.0001) %MON dynstat_sst_max              =   3.0922858892619E+01
(PID.TID 0000.0001) %MON dynstat_sst_min              =  -1.8992855154771E+00
(PID.TID 0000.0001) %MON dynstat_sst_mean             =   1.8108055961279E+01
(PID.TID 0000.0001) %MON dynstat_sst_sd               =   9.8125115391224E+00
(PID.TID 0000.0001) %MON dynstat_sst_del2             =   1.4994049200878E-02
(PID.TID 0000.0001) %MON dynstat_sss_max              =   4.1347071508011E+01
(PID.TID 0000.0001) %MON dynstat_sss_min              =   1.8752284368750E+01
(PID.TID 0000.0001) %MON dynstat_sss_mean             =   3.4621568365444E+01
(PID.TID 0000.0001) %MON dynstat_sss_sd               =   1.4875222484183E+00
(PID.TID 0000.0001) %MON dynstat_sss_del2             =   1.2498977812239E-02
(PID.TID 0000.0001) %MON forcing_qnet_max             =   1.6571849365234E+03
(PID.TID 0000.0001) %MON forcing_qnet_min             =  -1.3124324951172E+03
(PID.TID 0000.0001) %MON forcing_qnet_mean            =  -2.2623796980250E+01
(PID.TID 0000.0001) %MON forcing_qnet_sd              =   2.1566124738472E+02
(PID.TID 0000.0001) %MON forcing_qnet_del2            =   3.6867495622088E+00
(PID.TID 0000.0001) %MON forcing_qsw_max              =   0.0000000000000E+00
(PID.TID 0000.0001) %MON forcing_qsw_min              =  -1.0505934424019E+02
(PID.TID 0000.0001) %MON forcing_qsw_mean             =  -1.7332636067435E+01
(PID.TID 0000.0001) %MON forcing_qsw_sd               =   2.8073557684779E+01
(PID.TID 0000.0001) %MON forcing_qsw_del2             =   2.4380632516172E-01
(PID.TID 0000.0001) %MON forcing_empmr_max            =   5.2078207954764E-03
(PID.TID 0000.0001) %MON forcing_empmr_min            =  -7.4871681630611E-02
(PID.TID 0000.0001) %MON forcing_empmr_mean           =  -2.2686013158004E-04
(PID.TID 0000.0001) %MON forcing_empmr_sd             =   3.2980387331720E-03
(PID.TID 0000.0001) %MON forcing_empmr_del2           =   1.3004975465047E-04
(PID.TID 0000.0001) %MON forcing_fu_max               =   3.3712996594639E-01
(PID.TID 0000.0001) %MON forcing_fu_min               =  -3.6916745722588E-01
(PID.TID 0000.0001) %MON forcing_fu_mean              =  -3.3951515824276E-03
(PID.TID 0000.0001) %MON forcing_fu_sd                =   6.1135529628459E-02
(PID.TID 0000.0001) %MON forcing_fu_del2              =   6.0139871342346E-04
(PID.TID 0000.0001) %MON forcing_fv_max               =   2.9773686218457E-01
(PID.TID 0000.0001) %MON forcing_fv_min               =  -2.4938219924294E-01
(PID.TID 0000.0001) %MON forcing_fv_mean              =  -1.4675904836008E-02
(PID.TID 0000.0001) %MON forcing_fv_sd                =   6.0992351506179E-02
(PID.TID 0000.0001) %MON forcing_fv_del2              =   5.2686155533425E-04
(PID.TID 0000.0001) %MON trAdv_CFL_u_max              =   2.1879628138176E-03
(PID.TID 0000.0001) %MON trAdv_CFL_v_max              =   1.1782065523387E-03
(PID.TID 0000.0001) %MON trAdv_CFL_w_max              =   1.6373374481979E-03
(PID.TID 0000.0001) %MON advcfl_uvel_max              =   2.1550771624860E-03
(PID.TID 0000.0001) %MON advcfl_vvel_max              =   1.1220740992832E-03
(PID.TID 0000.0001) %MON advcfl_wvel_max              =   2.6042324045430E-03
(PID.TID 0000.0001) %MON advcfl_W_hf_max              =   1.6373374481979E-03
(PID.TID 0000.0001) %MON pe_b_mean                    =   4.9983303754209E-04
(PID.TID 0000.0001) %MON ke_max                       =   2.2243268478374E-01
(PID.TID 0000.0001) %MON ke_mean                      =   1.6495395044310E-04
(PID.TID 0000.0001) %MON ke_vol                       =   1.3398140474261E+18
(PID.TID 0000.0001) %MON vort_r_min                   =  -3.5768964358305E-06
(PID.TID 0000.0001) %MON vort_r_max                   =   2.2339132900908E-06
(PID.TID 0000.0001) %MON vort_a_mean                  =  -2.0549865324846E-05
(PID.TID 0000.0001) %MON vort_a_sd                    =   7.5259715969701E-05
(PID.TID 0000.0001) %MON vort_p_mean                  =  -2.4783250740201E-05
(PID.TID 0000.0001) %MON vort_p_sd                    =   1.2811920943888E-04
(PID.TID 0000.0001) %MON surfExpan_theta_mean         =  -6.0136585427606E-06
(PID.TID 0000.0001) %MON surfExpan_salt_mean          =   1.1955775443813E-06
(PID.TID 0000.0001) // =======================================================
(PID.TID 0000.0001) // End MONITOR dynamic field statistics
(PID.TID 0000.0001) // =======================================================
 cg2d: Sum(rhs),rhsMax =  -7.68804495217406E+01  3.61310546504128E+01
(PID.TID 0000.0001)      cg2d_init_res =   1.89739647387901E-01
(PID.TID 0000.0001)      cg2d_iters(min,last) =      -1      10
(PID.TID 0000.0001)      cg2d_last_res =   8.99025844254599E-08
(PID.TID 0000.0001) // =======================================================
(PID.TID 0000.0001) // Begin MONITOR dynamic field statistics
(PID.TID 0000.0001) // =======================================================
(PID.TID 0000.0001) %MON time_tsnumber                =                 72075
(PID.TID 0000.0001) %MON time_secondsf                =   6.4867500000000E+07
(PID.TID 0000.0001) %MON dynstat_eta_max              =   1.3163764062807E+00
(PID.TID 0000.0001) %MON dynstat_eta_min              =  -2.0364345236589E+00
(PID.TID 0000.0001) %MON dynstat_eta_mean             =   3.2277339172716E-02
(PID.TID 0000.0001) %MON dynstat_eta_sd               =   6.1170361101166E-01
(PID.TID 0000.0001) %MON dynstat_eta_del2             =   1.7112659790403E-03
(PID.TID 0000.0001) %MON dynstat_uvel_max             =   3.2440319953208E-01
(PID.TID 0000.0001) %MON dynstat_uvel_min             =  -7.1706422271505E-01
(PID.TID 0000.0001) %MON dynstat_uvel_mean            =  -3.1559744544349E-04
(PID.TID 0000.0001) %MON dynstat_uvel_sd              =   1.3077777087865E-02
(PID.TID 0000.0001) %MON dynstat_uvel_del2            =   8.6354946451284E-05
(PID.TID 0000.0001) %MON dynstat_vvel_max             =   2.6699865020318E-01
(PID.TID 0000.0001) %MON dynstat_vvel_min             =  -3.2332216716533E-01
(PID.TID 0000.0001) %MON dynstat_vvel_mean            =   3.8170283768895E-04
(PID.TID 0000.0001) %MON dynstat_vvel_sd              =   1.3627050852755E-02
(PID.TID 0000.0001) %MON dynstat_vvel_del2            =   8.4023047860857E-05
(PID.TID 0000.0001) %MON dynstat_wvel_max             =   1.1626460167231E-04
(PID.TID 0000.0001) %MON dynstat_wvel_min             =  -1.9156575656865E-04
(PID.TID 0000.0001) %MON dynstat_wvel_mean            =  -1.3030184066029E-07
(PID.TID 0000.0001) %MON dynstat_wvel_sd              =   7.7383655976102E-06
(PID.TID 0000.0001) %MON dynstat_wvel_del2            =   6.8848634644010E-08
(PID.TID 0000.0001) %MON dynstat_theta_max            =   3.0922686134639E+01
(PID.TID 0000.0001) %MON dynstat_theta_min            =  -3.0103429096418E+00
(PID.TID 0000.0001) %MON dynstat_theta_mean           =   3.9091783290194E+00
(PID.TID 0000.0001) %MON dynstat_theta_sd             =   4.5715485998773E+00
(PID.TID 0000.0001) %MON dynstat_theta_del2           =   2.6396744688533E-03
(PID.TID 0000.0001) %MON dynstat_salt_max             =   4.1347032855320E+01
(PID.TID 0000.0001) %MON dynstat_salt_min             =   1.8519133474635E+01
(PID.TID 0000.0001) %MON dynstat_salt_mean            =   3.4771912296007E+01
(PID.TID 0000.0001) %MON dynstat_salt_sd              =   5.3216254366494E-01
(PID.TID 0000.0001) %MON dynstat_salt_del2            =   1.1106027991884E-03
(PID.TID 0000.0001) %MON dynstat_sst_max              =   3.0922686134639E+01
(PID.TID 0000.0001) %MON dynstat_sst_min              =  -1.8992840623600E+00
(PID.TID 0000.0001) %MON dynstat_sst_mean             =   1.8108149867230E+01
(PID.TID 0000.0001) %MON dynstat_sst_sd               =   9.8126216045456E+00
(PID.TID 0000.0001) %MON dynstat_sst_del2             =   1.4992106574094E-02
(PID.TID 0000.0001) %MON dynstat_sss_max              =   4.1347032855320E+01
(PID.TID 0000.0001) %MON dynstat_sss_min              =   1.8752301132278E+01
(PID.TID 0000.0001) %MON dynstat_sss_mean             =   3.4621430278568E+01
(PID.TID 0000.0001) %MON dynstat_sss_sd               =   1.4878267047313E+00
(PID.TID 0000.0001) %MON dynstat_sss_del2             =   1.2536578573945E-02
(PID.TID 0000.0001) %MON forcing_qnet_max             =   1.6377727050781E+03
(PID.TID 0000.0001) %MON forcing_qnet_min             =  -1.5514862060547E+03
(PID.TID 0000.0001) %MON forcing_qnet_mean            =  -2.3979417487436E+01
(PID.TID 0000.0001) %MON forcing_qnet_sd              =   2.1478364390658E+02
(PID.TID 0000.0001) %MON forcing_qnet_del2            =   3.7656660193710E+00
(PID.TID 0000.0001) %MON forcing_qsw_max              =   0.0000000000000E+00
(PID.TID 0000.0001) %MON forcing_qsw_min              =  -1.0462315712033E+02
(PID.TID 0000.0001) %MON forcing_qsw_mean             =  -1.7488538171332E+01
(PID.TID 0000.0001) %MON forcing_qsw_sd               =   2.7974530144800E+01
(PID.TID 0000.0001) %MON forcing_qsw_del2             =   2.4316010957369E-01
(PID.TID 0000.0001) %MON forcing_empmr_max            =   5.1541905850172E-03
(PID.TID 0000.0001) %MON forcing_empmr_min            =  -7.4100561439991E-02
(PID.TID 0000.0001) %MON forcing_empmr_mean           =  -2.2580048958352E-04
(PID.TID 0000.0001) %MON forcing_empmr_sd             =   3.2643710041966E-03
(PID.TID 0000.0001) %MON forcing_empmr_del2           =   1.2871163577246E-04
(PID.TID 0000.0001) %MON forcing_fu_max               =   3.3094659772343E-01
(PID.TID 0000.0001) %MON forcing_fu_min               =  -3.6912938125346E-01
(PID.TID 0000.0001) %MON forcing_fu_mean              =  -3.4605975510168E-03
(PID.TID 0000.0001) %MON forcing_fu_sd                =   6.0962141538351E-02
(PID.TID 0000.0001) %MON forcing_fu_del2              =   5.9966149502596E-04
(PID.TID 0000.0001) %MON forcing_fv_max               =   2.9712444727558E-01
(PID.TID 0000.0001) %MON forcing_fv_min               =  -2.4952161835667E-01
(PID.TID 0000.0001) %MON forcing_fv_mean              =  -1.4681231725033E-02
(PID.TID 0000.0001) %MON forcing_fv_sd                =   6.0950005640585E-02
(PID.TID 0000.0001) %MON forcing_fv_del2              =   5.2580003542672E-04
(PID.TID 0000.0001) %MON trAdv_CFL_u_max              =   2.1172911759556E-03
(PID.TID 0000.0001) %MON trAdv_CFL_v_max              =   1.1807103983328E-03
(PID.TID 0000.0001) %MON trAdv_CFL_w_max              =   1.5872690061194E-03
(PID.TID 0000.0001) %MON advcfl_uvel_max              =   2.0837951954854E-03
(PID.TID 0000.0001) %MON advcfl_vvel_max              =   1.1310238230958E-03
(PID.TID 0000.0001) %MON advcfl_wvel_max              =   2.5774108326953E-03
(PID.TID 0000.0001) %MON advcfl_W_hf_max              =   1.5872690061194E-03
(PID.TID 0000.0001) %MON pe_b_mean                    =   4.9986219936625E-04
(PID.TID 0000.0001) %MON ke_max                       =   2.1907748399608E-01
(PID.TID 0000.0001) %MON ke_mean                      =   1.6483770005871E-04
(PID.TID 0000.0001) %MON ke_vol                       =   1.3398141192099E+18
(PID.TID 0000.0001) %MON vort_r_min                   =  -3.3684556517213E-06
(PID.TID 0000.0001) %MON vort_r_max                   =   2.3232480179683E-06
(PID.TID 0000.0001) %MON vort_a_mean                  =  -2.0549865324846E-05
(PID.TID 0000.0001) %MON vort_a_sd                    =   7.5259711298409E-05
(PID.TID 0000.0001) %MON vort_p_mean                  =  -2.4783249248475E-05
(PID.TID 0000.0001) %MON vort_p_sd                    =   1.2811920720996E-04
(PID.TID 0000.0001) %MON surfExpan_theta_mean         =  -5.9573676379334E-06
(PID.TID 0000.0001) %MON surfExpan_salt_mean          =   1.1797349052710E-06
(PID.TID 0000.0001) // =======================================================
(PID.TID 0000.0001) // End MONITOR dynamic field statistics
(PID.TID 0000.0001) // =======================================================
 Computing Diagnostic #     81  oceTAUX      Counter:       1   Parms: UU      U1      
           Vector  Mate for  oceTAUX      Diagnostic #     82  oceTAUY  exists 
 Computing Diagnostic #     82  oceTAUY      Counter:       1   Parms: VV      U1      
           Vector  Mate for  oceTAUY      Diagnostic #     81  oceTAUX  exists 
 Computing Diagnostic #     85  oceFWflx     Counter:       1   Parms: SM      U1      
 Computing Diagnostic #     86  oceSflux     Counter:       1   Parms: SM      U1      
 Computing Diagnostic #     87  oceQnet      Counter:       1   Parms: SM      U1      
 Computing Diagnostic #     88  oceQsw       Counter:       1   Parms: SM      U1      
 Computing Diagnostic #     27  SALT         Counter:       1   Parms: SMR     MR      
 Computing Diagnostic #     26  THETA        Counter:       1   Parms: SMR     MR      
 Computing Diagnostic #     45  UVELMASS     Counter:       1   Parms: UUr     MR      
           Vector  Mate for  UVELMASS     Diagnostic #     46  VVELMASS exists 
 Computing Diagnostic #     46  VVELMASS     Counter:       1   Parms: VVr     MR      
           Vector  Mate for  VVELMASS     Diagnostic #     45  UVELMASS exists 
 cg2d: Sum(rhs),rhsMax =  -7.73747732507527E+01  3.61166364445998E+01
(PID.TID 0000.0001)      cg2d_init_res =   1.87005639251086E-01
(PID.TID 0000.0001)      cg2d_iters(min,last) =      -1      10
(PID.TID 0000.0001)      cg2d_last_res =   8.81378358635176E-08
(PID.TID 0000.0001) // =======================================================
(PID.TID 0000.0001) // Begin MONITOR dynamic field statistics
(PID.TID 0000.0001) // =======================================================
(PID.TID 0000.0001) %MON time_tsnumber                =                 72076
(PID.TID 0000.0001) %MON time_secondsf                =   6.4868400000000E+07
(PID.TID 0000.0001) %MON dynstat_eta_max              =   1.3250591500359E+00
(PID.TID 0000.0001) %MON dynstat_eta_min              =  -1.9662925425797E+00
(PID.TID 0000.0001) %MON dynstat_eta_mean             =   3.2471911903732E-02
(PID.TID 0000.0001) %MON dynstat_eta_sd               =   6.1169137258153E-01
(PID.TID 0000.0001) %MON dynstat_eta_del2             =   1.6988841501808E-03
(PID.TID 0000.0001) %MON dynstat_uvel_max             =   3.1356967607166E-01
(PID.TID 0000.0001) %MON dynstat_uvel_min             =  -6.8964808700548E-01
(PID.TID 0000.0001) %MON dynstat_uvel_mean            =  -3.2666096081278E-04
(PID.TID 0000.0001) %MON dynstat_uvel_sd              =   1.3062431975400E-02
(PID.TID 0000.0001) %MON dynstat_uvel_del2            =   8.5776624559834E-05
(PID.TID 0000.0001) %MON dynstat_vvel_max             =   2.6071179121232E-01
(PID.TID 0000.0001) %MON dynstat_vvel_min             =  -3.1752938412982E-01
(PID.TID 0000.0001) %MON dynstat_vvel_mean            =   3.5984509312489E-04
(PID.TID 0000.0001) %MON dynstat_vvel_sd              =   1.3635141513433E-02
(PID.TID 0000.0001) %MON dynstat_vvel_del2            =   8.4203903343898E-05
(PID.TID 0000.0001) %MON dynstat_wvel_max             =   1.1982609748443E-04
(PID.TID 0000.0001) %MON dynstat_wvel_min             =  -1.9156003607122E-04
(PID.TID 0000.0001) %MON dynstat_wvel_mean            =  -1.2065344756358E-07
(PID.TID 0000.0001) %MON dynstat_wvel_sd              =   7.7298563600424E-06
(PID.TID 0000.0001) %MON dynstat_wvel_del2            =   6.8733535875830E-08
(PID.TID 0000.0001) %MON dynstat_theta_max            =   3.0922506571165E+01
(PID.TID 0000.0001) %MON dynstat_theta_min            =  -3.0107660117149E+00
(PID.TID 0000.0001) %MON dynstat_theta_mean           =   3.9091810246711E+00
(PID.TID 0000.0001) %MON dynstat_theta_sd             =   4.5715582120873E+00
(PID.TID 0000.0001) %MON dynstat_theta_del2           =   2.6395593024524E-03
(PID.TID 0000.0001) %MON dynstat_salt_max             =   4.1346994899497E+01
(PID.TID 0000.0001) %MON dynstat_salt_min             =   1.8519143502874E+01
(PID.TID 0000.0001) %MON dynstat_salt_mean            =   3.4771910524611E+01
(PID.TID 0000.0001) %MON dynstat_salt_sd              =   5.3217428639061E-01
(PID.TID 0000.0001) %MON dynstat_salt_del2            =   1.1132316863348E-03
(PID.TID 0000.0001) %MON dynstat_sst_max              =   3.0922506571165E+01
(PID.TID 0000.0001) %MON dynstat_sst_min              =  -1.8992653738591E+00
(PID.TID 0000.0001) %MON dynstat_sst_mean             =   1.8108249487135E+01
(PID.TID 0000.0001) %MON dynstat_sst_sd               =   9.8127356708423E+00
(PID.TID 0000.0001) %MON dynstat_sst_del2             =   1.4990070875959E-02
(PID.TID 0000.0001) %MON dynstat_sss_max              =   4.1346994899497E+01
(PID.TID 0000.0001) %MON dynstat_sss_min              =   1.8752317636206E+01
(PID.TID 0000.0001) %MON dynstat_sss_mean             =   3.4621294563359E+01
(PID.TID 0000.0001) %MON dynstat_sss_sd               =   1.4881268976487E+00
(PID.TID 0000.0001) %MON dynstat_sss_del2             =   1.2573385722633E-02
(PID.TID 0000.0001) %MON forcing_qnet_max             =   1.6195258789062E+03
(PID.TID 0000.0001) %MON forcing_qnet_min             =  -2.2532102050781E+03
(PID.TID 0000.0001) %MON forcing_qnet_mean            =  -2.5499899018102E+01
(PID.TID 0000.0001) %MON forcing_qnet_sd              =   2.1501202071204E+02
(PID.TID 0000.0001) %MON forcing_qnet_del2            =   4.0435032754215E+00
(PID.TID 0000.0001) %MON forcing_qsw_max              =   0.0000000000000E+00
(PID.TID 0000.0001) %MON forcing_qsw_min              =  -1.0412542876703E+02
(PID.TID 0000.0001) %MON forcing_qsw_mean             =  -1.7593945686677E+01
(PID.TID 0000.0001) %MON forcing_qsw_sd               =   2.7835229079263E+01
(PID.TID 0000.0001) %MON forcing_qsw_del2             =   2.4188236746409E-01
(PID.TID 0000.0001) %MON forcing_empmr_max            =   5.1010525785387E-03
(PID.TID 0000.0001) %MON forcing_empmr_min            =  -7.3337838053703E-02
(PID.TID 0000.0001) %MON forcing_empmr_mean           =  -2.2375864066837E-04
(PID.TID 0000.0001) %MON forcing_empmr_sd             =   3.2312011345878E-03
(PID.TID 0000.0001) %MON forcing_empmr_del2           =   1.2738865572260E-04
(PID.TID 0000.0001) %MON forcing_fu_max               =   3.1917456891527E-01
(PID.TID 0000.0001) %MON forcing_fu_min               =  -3.7282021452661E-01
(PID.TID 0000.0001) %MON forcing_fu_mean              =  -3.5820468550422E-03
(PID.TID 0000.0001) %MON forcing_fu_sd                =   6.0721153102081E-02
(PID.TID 0000.0001) %MON forcing_fu_del2              =   5.9780459147954E-04
(PID.TID 0000.0001) %MON forcing_fv_max               =   2.9771209223443E-01
(PID.TID 0000.0001) %MON forcing_fv_min               =  -2.4960806926841E-01
(PID.TID 0000.0001) %MON forcing_fv_mean              =  -1.4659431894626E-02
(PID.TID 0000.0001) %MON forcing_fv_sd                =   6.0946565258286E-02
(PID.TID 0000.0001) %MON forcing_fv_del2              =   5.2500316267648E-04
(PID.TID 0000.0001) %MON trAdv_CFL_u_max              =   2.0378137426985E-03
(PID.TID 0000.0001) %MON trAdv_CFL_v_max              =   1.1829037881109E-03
(PID.TID 0000.0001) %MON trAdv_CFL_w_max              =   1.5340413081014E-03
(PID.TID 0000.0001) %MON advcfl_uvel_max              =   2.0041236541357E-03
(PID.TID 0000.0001) %MON advcfl_vvel_max              =   1.1397526381196E-03
(PID.TID 0000.0001) %MON advcfl_wvel_max              =   2.5508813236071E-03
(PID.TID 0000.0001) %MON advcfl_W_hf_max              =   1.5340413081014E-03
(PID.TID 0000.0001) %MON pe_b_mean                    =   4.9985901013713E-04
(PID.TID 0000.0001) %MON ke_max                       =   2.1489584195577E-01
(PID.TID 0000.0001) %MON ke_mean                      =   1.6475152577979E-04
(PID.TID 0000.0001) %MON ke_vol                       =   1.3398141906584E+18
(PID.TID 0000.0001) %MON vort_r_min                   =  -3.1464563319797E-06
(PID.TID 0000.0001) %MON vort_r_max                   =   2.4062864595062E-06
(PID.TID 0000.0001) %MON vort_a_mean                  =  -2.0549865324846E-05
(PID.TID 0000.0001) %MON vort_a_sd                    =   7.5259706476901E-05
(PID.TID 0000.0001) %MON vort_p_mean                  =  -2.4783247778666E-05
(PID.TID 0000.0001) %MON vort_p_sd                    =   1.2811920455932E-04
(PID.TID 0000.0001) %MON surfExpan_theta_mean         =  -5.8650140072461E-06
(PID.TID 0000.0001) %MON surfExpan_salt_mean          =   1.1642854291845E-06
(PID.TID 0000.0001) // =======================================================
(PID.TID 0000.0001) // End MONITOR dynamic field statistics
(PID.TID 0000.0001) // =======================================================
 cg2d: Sum(rhs),rhsMax =  -7.77650578473720E+01  3.61484847016854E+01
(PID.TID 0000.0001)      cg2d_init_res =   1.85692202218286E-01
(PID.TID 0000.0001)      cg2d_iters(min,last) =      -1      10
(PID.TID 0000.0001)      cg2d_last_res =   8.58986299106523E-08
(PID.TID 0000.0001) // =======================================================
(PID.TID 0000.0001) // Begin MONITOR dynamic field statistics
(PID.TID 0000.0001) // =======================================================
(PID.TID 0000.0001) %MON time_tsnumber                =                 72077
(PID.TID 0000.0001) %MON time_secondsf                =   6.4869300000000E+07
(PID.TID 0000.0001) %MON dynstat_eta_max              =   1.3268521600563E+00
(PID.TID 0000.0001) %MON dynstat_eta_min              =  -1.8710859796406E+00
(PID.TID 0000.0001) %MON dynstat_eta_mean             =   3.2664481557592E-02
(PID.TID 0000.0001) %MON dynstat_eta_sd               =   6.1166016980104E-01
(PID.TID 0000.0001) %MON dynstat_eta_del2             =   1.6759063683022E-03
(PID.TID 0000.0001) %MON dynstat_uvel_max             =   3.3651319670971E-01
(PID.TID 0000.0001) %MON dynstat_uvel_min             =  -6.5957208996013E-01
(PID.TID 0000.0001) %MON dynstat_uvel_mean            =  -3.3886098713075E-04
(PID.TID 0000.0001) %MON dynstat_uvel_sd              =   1.3046419520476E-02
(PID.TID 0000.0001) %MON dynstat_uvel_del2            =   8.5314656002295E-05
(PID.TID 0000.0001) %MON dynstat_vvel_max             =   2.5255759919572E-01
(PID.TID 0000.0001) %MON dynstat_vvel_min             =  -3.1927379278181E-01
(PID.TID 0000.0001) %MON dynstat_vvel_mean            =   3.3776395604670E-04
(PID.TID 0000.0001) %MON dynstat_vvel_sd              =   1.3645601124601E-02
(PID.TID 0000.0001) %MON dynstat_vvel_del2            =   8.4668193938083E-05
(PID.TID 0000.0001) %MON dynstat_wvel_max             =   1.2218287803309E-04
(PID.TID 0000.0001) %MON dynstat_wvel_min             =  -1.9155470668121E-04
(PID.TID 0000.0001) %MON dynstat_wvel_mean            =  -1.1092340846034E-07
(PID.TID 0000.0001) %MON dynstat_wvel_sd              =   7.7204907018416E-06
(PID.TID 0000.0001) %MON dynstat_wvel_del2            =   6.8612451631333E-08
(PID.TID 0000.0001) %MON dynstat_theta_max            =   3.0922318615957E+01
(PID.TID 0000.0001) %MON dynstat_theta_min            =  -3.0112130493430E+00
(PID.TID 0000.0001) %MON dynstat_theta_mean           =   3.9091840176038E+00
(PID.TID 0000.0001) %MON dynstat_theta_sd             =   4.5715688071981E+00
(PID.TID 0000.0001) %MON dynstat_theta_del2           =   2.6393868731588E-03
(PID.TID 0000.0001) %MON dynstat_salt_max             =   4.1346957271306E+01
(PID.TID 0000.0001) %MON dynstat_salt_min             =   1.8519153522139E+01
(PID.TID 0000.0001) %MON dynstat_salt_mean            =   3.4771908801981E+01
(PID.TID 0000.0001) %MON dynstat_salt_sd              =   5.3218584007825E-01
(PID.TID 0000.0001) %MON dynstat_salt_del2            =   1.1158034332092E-03
(PID.TID 0000.0001) %MON dynstat_sst_max              =   3.0922318615957E+01
(PID.TID 0000.0001) %MON dynstat_sst_min              =  -1.8992298132677E+00
(PID.TID 0000.0001) %MON dynstat_sst_mean             =   1.8108371443889E+01
(PID.TID 0000.0001) %MON dynstat_sst_sd               =   9.8128516127329E+00
(PID.TID 0000.0001) %MON dynstat_sst_del2             =   1.4986438390009E-02
(PID.TID 0000.0001) %MON dynstat_sss_max              =   4.1346957271306E+01
(PID.TID 0000.0001) %MON dynstat_sss_min              =   1.8752333819327E+01
(PID.TID 0000.0001) %MON dynstat_sss_mean             =   3.4621162421933E+01
(PID.TID 0000.0001) %MON dynstat_sss_sd               =   1.4884219224312E+00
(PID.TID 0000.0001) %MON dynstat_sss_del2             =   1.2609373599661E-02
(PID.TID 0000.0001) %MON forcing_qnet_max             =   1.6005739746094E+03
(PID.TID 0000.0001) %MON forcing_qnet_min             =  -8.7091210937500E+03
(PID.TID 0000.0001) %MON forcing_qnet_mean            =  -3.0832916348298E+01
(PID.TID 0000.0001) %MON forcing_qnet_sd              =   2.4926438995707E+02
(PID.TID 0000.0001) %MON forcing_qnet_del2            =   7.8711219199547E+00
(PID.TID 0000.0001) %MON forcing_qsw_max              =   0.0000000000000E+00
(PID.TID 0000.0001) %MON forcing_qsw_min              =  -1.0596556852186E+02
(PID.TID 0000.0001) %MON forcing_qsw_mean             =  -1.7946926923006E+01
(PID.TID 0000.0001) %MON forcing_qsw_sd               =   2.7765199590832E+01
(PID.TID 0000.0001) %MON forcing_qsw_del2             =   2.4202072101361E-01
(PID.TID 0000.0001) %MON forcing_empmr_max            =   5.0485050305724E-03
(PID.TID 0000.0001) %MON forcing_empmr_min            =  -7.2582662105560E-02
(PID.TID 0000.0001) %MON forcing_empmr_mean           =  -2.2145510193844E-04
(PID.TID 0000.0001) %MON forcing_empmr_sd             =   3.1984658842462E-03
(PID.TID 0000.0001) %MON forcing_empmr_del2           =   1.2606955134573E-04
(PID.TID 0000.0001) %MON forcing_fu_max               =   3.1044427000253E-01
(PID.TID 0000.0001) %MON forcing_fu_min               =  -3.6170633729229E-01
(PID.TID 0000.0001) %MON forcing_fu_mean              =  -3.6755793753024E-03
(PID.TID 0000.0001) %MON forcing_fu_sd                =   6.0298523433033E-02
(PID.TID 0000.0001) %MON forcing_fu_del2              =   5.9363474183229E-04
(PID.TID 0000.0001) %MON forcing_fv_max               =   2.8682626553037E-01
(PID.TID 0000.0001) %MON forcing_fv_min               =  -2.5103346266316E-01
(PID.TID 0000.0001) %MON forcing_fv_mean              =  -1.4686329520198E-02
(PID.TID 0000.0001) %MON forcing_fv_sd                =   6.0842596635640E-02
(PID.TID 0000.0001) %MON forcing_fv_del2              =   5.2245734551835E-04
(PID.TID 0000.0001) %MON trAdv_CFL_u_max              =   1.9501817773715E-03
(PID.TID 0000.0001) %MON trAdv_CFL_v_max              =   1.1848195536686E-03
(PID.TID 0000.0001) %MON trAdv_CFL_w_max              =   1.4780656630370E-03
(PID.TID 0000.0001) %MON advcfl_uvel_max              =   1.9167225313950E-03
(PID.TID 0000.0001) %MON advcfl_vvel_max              =   1.1481426505772E-03
(PID.TID 0000.0001) %MON advcfl_wvel_max              =   2.5246143341064E-03
(PID.TID 0000.0001) %MON advcfl_W_hf_max              =   1.4780656630370E-03
(PID.TID 0000.0001) %MON pe_b_mean                    =   4.9982484188951E-04
(PID.TID 0000.0001) %MON ke_max                       =   2.1000734960256E-01
(PID.TID 0000.0001) %MON ke_mean                      =   1.6468845866381E-04
(PID.TID 0000.0001) %MON ke_vol                       =   1.3398142614608E+18
(PID.TID 0000.0001) %MON vort_r_min                   =  -2.9126343869974E-06
(PID.TID 0000.0001) %MON vort_r_max                   =   2.4823452726864E-06
(PID.TID 0000.0001) %MON vort_a_mean                  =  -2.0549865324846E-05
(PID.TID 0000.0001) %MON vort_a_sd                    =   7.5259701567505E-05
(PID.TID 0000.0001) %MON vort_p_mean                  =  -2.4783246338660E-05
(PID.TID 0000.0001) %MON vort_p_sd                    =   1.2811920187403E-04
(PID.TID 0000.0001) %MON surfExpan_theta_mean         =  -5.7599676756713E-06
(PID.TID 0000.0001) %MON surfExpan_salt_mean          =   1.1485448961347E-06
(PID.TID 0000.0001) // =======================================================
(PID.TID 0000.0001) // End MONITOR dynamic field statistics
(PID.TID 0000.0001) // =======================================================
 cg2d: Sum(rhs),rhsMax =  -7.81590883158597E+01  3.61757102247285E+01
(PID.TID 0000.0001)      cg2d_init_res =   1.85725397273470E-01
(PID.TID 0000.0001)      cg2d_iters(min,last) =      -1      10
(PID.TID 0000.0001)      cg2d_last_res =   8.22220967820350E-08
(PID.TID 0000.0001) // =======================================================
(PID.TID 0000.0001) // Begin MONITOR dynamic field statistics
(PID.TID 0000.0001) // =======================================================
(PID.TID 0000.0001) %MON time_tsnumber                =                 72078
(PID.TID 0000.0001) %MON time_secondsf                =   6.4870200000000E+07
(PID.TID 0000.0001) %MON dynstat_eta_max              =   1.3216094190953E+00
(PID.TID 0000.0001) %MON dynstat_eta_min              =  -1.7533594355196E+00
(PID.TID 0000.0001) %MON dynstat_eta_mean             =   3.2854716524232E-02
(PID.TID 0000.0001) %MON dynstat_eta_sd               =   6.1161167059701E-01
(PID.TID 0000.0001) %MON dynstat_eta_del2             =   1.6436280280547E-03
(PID.TID 0000.0001) %MON dynstat_uvel_max             =   3.5832402813918E-01
(PID.TID 0000.0001) %MON dynstat_uvel_min             =  -6.5712303137558E-01
(PID.TID 0000.0001) %MON dynstat_uvel_mean            =  -3.5198334065550E-04
(PID.TID 0000.0001) %MON dynstat_uvel_sd              =   1.3030040132749E-02
(PID.TID 0000.0001) %MON dynstat_uvel_del2            =   8.4969583200935E-05
(PID.TID 0000.0001) %MON dynstat_vvel_max             =   2.4261948133055E-01
(PID.TID 0000.0001) %MON dynstat_vvel_min             =  -3.2482948225536E-01
(PID.TID 0000.0001) %MON dynstat_vvel_mean            =   3.1570782571104E-04
(PID.TID 0000.0001) %MON dynstat_vvel_sd              =   1.3657725497374E-02
(PID.TID 0000.0001) %MON dynstat_vvel_del2            =   8.5327154052920E-05
(PID.TID 0000.0001) %MON dynstat_wvel_max             =   1.2334419291417E-04
(PID.TID 0000.0001) %MON dynstat_wvel_min             =  -1.9155807441615E-04
(PID.TID 0000.0001) %MON dynstat_wvel_mean            =  -1.0142123441666E-07
(PID.TID 0000.0001) %MON dynstat_wvel_sd              =   7.7099920456509E-06
(PID.TID 0000.0001) %MON dynstat_wvel_del2            =   6.8476193825342E-08
(PID.TID 0000.0001) %MON dynstat_theta_max            =   3.0922123292992E+01
(PID.TID 0000.0001) %MON dynstat_theta_min            =  -3.0116818577185E+00
(PID.TID 0000.0001) %MON dynstat_theta_mean           =   3.9091869209964E+00
(PID.TID 0000.0001) %MON dynstat_theta_sd             =   4.5715795388208E+00
(PID.TID 0000.0001) %MON dynstat_theta_del2           =   2.6392800004099E-03
(PID.TID 0000.0001) %MON dynstat_salt_max             =   4.1346919641369E+01
(PID.TID 0000.0001) %MON dynstat_salt_min             =   1.8519163535556E+01
(PID.TID 0000.0001) %MON dynstat_salt_mean            =   3.4771907081948E+01
(PID.TID 0000.0001) %MON dynstat_salt_sd              =   5.3219725323589E-01
(PID.TID 0000.0001) %MON dynstat_salt_del2            =   1.1183226754314E-03
(PID.TID 0000.0001) %MON dynstat_sst_max              =   3.0922123292992E+01
(PID.TID 0000.0001) %MON dynstat_sst_min              =  -1.8991757291855E+00
(PID.TID 0000.0001) %MON dynstat_sst_mean             =   1.8108487515817E+01
(PID.TID 0000.0001) %MON dynstat_sst_sd               =   9.8129816828766E+00
(PID.TID 0000.0001) %MON dynstat_sst_del2             =   1.4984634317557E-02
(PID.TID 0000.0001) %MON dynstat_sss_max              =   4.1346919641369E+01
(PID.TID 0000.0001) %MON dynstat_sss_min              =   1.8752349770805E+01
(PID.TID 0000.0001) %MON dynstat_sss_mean             =   3.4621030462907E+01
(PID.TID 0000.0001) %MON dynstat_sss_sd               =   1.4887126441938E+00
(PID.TID 0000.0001) %MON dynstat_sss_del2             =   1.2644608889939E-02
(PID.TID 0000.0001) %MON forcing_qnet_max             =   1.5827662353516E+03
(PID.TID 0000.0001) %MON forcing_qnet_min             =  -1.0886124267578E+03
(PID.TID 0000.0001) %MON forcing_qnet_mean            =  -2.9687853528912E+01
(PID.TID 0000.0001) %MON forcing_qnet_sd              =   2.0570706840150E+02
(PID.TID 0000.0001) %MON forcing_qnet_del2            =   3.5309133038852E+00
(PID.TID 0000.0001) %MON forcing_qsw_max              =   0.0000000000000E+00
(PID.TID 0000.0001) %MON forcing_qsw_min              =  -1.0532705481206E+02
(PID.TID 0000.0001) %MON forcing_qsw_mean             =  -1.8125354405572E+01
(PID.TID 0000.0001) %MON forcing_qsw_sd               =   2.7738595217620E+01
(PID.TID 0000.0001) %MON forcing_qsw_del2             =   2.4083663701712E-01
(PID.TID 0000.0001) %MON forcing_empmr_max            =   4.9965479411185E-03
(PID.TID 0000.0001) %MON forcing_empmr_min            =  -7.1835868060589E-02
(PID.TID 0000.0001) %MON forcing_empmr_mean           =  -2.1877021163659E-04
(PID.TID 0000.0001) %MON forcing_empmr_sd             =   3.1659039023864E-03
(PID.TID 0000.0001) %MON forcing_empmr_del2           =   1.2475991657386E-04
(PID.TID 0000.0001) %MON forcing_fu_max               =   2.9624188616501E-01
(PID.TID 0000.0001) %MON forcing_fu_min               =  -3.6578684242364E-01
(PID.TID 0000.0001) %MON forcing_fu_mean              =  -3.8156226467115E-03
(PID.TID 0000.0001) %MON forcing_fu_sd                =   5.9827584581322E-02
(PID.TID 0000.0001) %MON forcing_fu_del2              =   5.9111718346041E-04
(PID.TID 0000.0001) %MON forcing_fv_max               =   2.8900206289910E-01
(PID.TID 0000.0001) %MON forcing_fv_min               =  -2.5204325225220E-01
(PID.TID 0000.0001) %MON forcing_fv_mean              =  -1.4690838437258E-02
(PID.TID 0000.0001) %MON forcing_fv_sd                =   6.0830597615385E-02
(PID.TID 0000.0001) %MON forcing_fv_del2              =   5.2190805095047E-04
(PID.TID 0000.0001) %MON trAdv_CFL_u_max              =   1.8958773182969E-03
(PID.TID 0000.0001) %MON trAdv_CFL_v_max              =   1.1864588095184E-03
(PID.TID 0000.0001) %MON trAdv_CFL_w_max              =   1.4197795267131E-03
(PID.TID 0000.0001) %MON advcfl_uvel_max              =   1.8956948320189E-03
(PID.TID 0000.0001) %MON advcfl_vvel_max              =   1.1560743225532E-03
(PID.TID 0000.0001) %MON advcfl_wvel_max              =   2.4986388890640E-03
(PID.TID 0000.0001) %MON advcfl_W_hf_max              =   1.4197795267131E-03
(PID.TID 0000.0001) %MON pe_b_mean                    =   4.9976238523591E-04
(PID.TID 0000.0001) %MON ke_max                       =   2.0453642502438E-01
(PID.TID 0000.0001) %MON ke_mean                      =   1.6464332526514E-04
(PID.TID 0000.0001) %MON ke_vol                       =   1.3398143315344E+18
(PID.TID 0000.0001) %MON vort_r_min                   =  -2.6688731078634E-06
(PID.TID 0000.0001) %MON vort_r_max                   =   2.5508022149090E-06
(PID.TID 0000.0001) %MON vort_a_mean                  =  -2.0549865324846E-05
(PID.TID 0000.0001) %MON vort_a_sd                    =   7.5259696638690E-05
(PID.TID 0000.0001) %MON vort_p_mean                  =  -2.4783244931175E-05
(PID.TID 0000.0001) %MON vort_p_sd                    =   1.2811919949059E-04
(PID.TID 0000.0001) %MON surfExpan_theta_mean         =  -5.6332039515823E-06
(PID.TID 0000.0001) %MON surfExpan_salt_mean          =   1.1318784970703E-06
(PID.TID 0000.0001) // =======================================================
(PID.TID 0000.0001) // End MONITOR dynamic field statistics
(PID.TID 0000.0001) // =======================================================
 cg2d: Sum(rhs),rhsMax =  -7.85592667405392E+01  3.61977921524196E+01
(PID.TID 0000.0001)      cg2d_init_res =   1.86796876458349E-01
(PID.TID 0000.0001)      cg2d_iters(min,last) =      -1      10
(PID.TID 0000.0001)      cg2d_last_res =   7.73509099617986E-08
(PID.TID 0000.0001) // =======================================================
(PID.TID 0000.0001) // Begin MONITOR dynamic field statistics
(PID.TID 0000.0001) // =======================================================
(PID.TID 0000.0001) %MON time_tsnumber                =                 72079
(PID.TID 0000.0001) %MON time_secondsf                =   6.4871100000000E+07
(PID.TID 0000.0001) %MON dynstat_eta_max              =   1.3092483528323E+00
(PID.TID 0000.0001) %MON dynstat_eta_min              =  -1.6158754719749E+00
(PID.TID 0000.0001) %MON dynstat_eta_mean             =   3.3043091758455E-02
(PID.TID 0000.0001) %MON dynstat_eta_sd               =   6.1154954478913E-01
(PID.TID 0000.0001) %MON dynstat_eta_del2             =   1.6037822151847E-03
(PID.TID 0000.0001) %MON dynstat_uvel_max             =   3.7775935107256E-01
(PID.TID 0000.0001) %MON dynstat_uvel_min             =  -6.7041700436207E-01
(PID.TID 0000.0001) %MON dynstat_uvel_mean            =  -3.6575384353191E-04
(PID.TID 0000.0001) %MON dynstat_uvel_sd              =   1.3013647863077E-02
(PID.TID 0000.0001) %MON dynstat_uvel_del2            =   8.4735752500946E-05
(PID.TID 0000.0001) %MON dynstat_vvel_max             =   2.3098919154012E-01
(PID.TID 0000.0001) %MON dynstat_vvel_min             =  -3.6095602365463E-01
(PID.TID 0000.0001) %MON dynstat_vvel_mean            =   2.9391564389575E-04
(PID.TID 0000.0001) %MON dynstat_vvel_sd              =   1.3670644744675E-02
(PID.TID 0000.0001) %MON dynstat_vvel_del2            =   8.6085757609443E-05
(PID.TID 0000.0001) %MON dynstat_wvel_max             =   1.2334130153080E-04
(PID.TID 0000.0001) %MON dynstat_wvel_min             =  -1.9157032551343E-04
(PID.TID 0000.0001) %MON dynstat_wvel_mean            =  -9.2644247755204E-08
(PID.TID 0000.0001) %MON dynstat_wvel_sd              =   7.6981174725326E-06
(PID.TID 0000.0001) %MON dynstat_wvel_del2            =   6.8315564002690E-08
(PID.TID 0000.0001) %MON dynstat_theta_max            =   3.0921920400408E+01
(PID.TID 0000.0001) %MON dynstat_theta_min            =  -3.0121703066683E+00
(PID.TID 0000.0001) %MON dynstat_theta_mean           =   3.9091898317545E+00
(PID.TID 0000.0001) %MON dynstat_theta_sd             =   4.5715904252596E+00
(PID.TID 0000.0001) %MON dynstat_theta_del2           =   2.6391820977457E-03
(PID.TID 0000.0001) %MON dynstat_salt_max             =   4.1346882057085E+01
(PID.TID 0000.0001) %MON dynstat_salt_min             =   1.8519173546104E+01
(PID.TID 0000.0001) %MON dynstat_salt_mean            =   3.4771905384841E+01
(PID.TID 0000.0001) %MON dynstat_salt_sd              =   5.3220851044046E-01
(PID.TID 0000.0001) %MON dynstat_salt_del2            =   1.1207888807148E-03
(PID.TID 0000.0001) %MON dynstat_sst_max              =   3.0921920400408E+01
(PID.TID 0000.0001) %MON dynstat_sst_min              =  -1.8991073598392E+00
(PID.TID 0000.0001) %MON dynstat_sst_mean             =   1.8108604568357E+01
(PID.TID 0000.0001) %MON dynstat_sst_sd               =   9.8131162213458E+00
(PID.TID 0000.0001) %MON dynstat_sst_del2             =   1.4983076624054E-02
(PID.TID 0000.0001) %MON dynstat_sss_max              =   4.1346882057085E+01
(PID.TID 0000.0001) %MON dynstat_sss_min              =   1.8752365572515E+01
(PID.TID 0000.0001) %MON dynstat_sss_mean             =   3.4620900249696E+01
(PID.TID 0000.0001) %MON dynstat_sss_sd               =   1.4889987957418E+00
(PID.TID 0000.0001) %MON dynstat_sss_del2             =   1.2679085409079E-02
(PID.TID 0000.0001) %MON forcing_qnet_max             =   1.5642636718750E+03
(PID.TID 0000.0001) %MON forcing_qnet_min             =  -9.2327232079417E+02
(PID.TID 0000.0001) %MON forcing_qnet_mean            =  -3.0055802508401E+01
(PID.TID 0000.0001) %MON forcing_qnet_sd              =   2.0311577456410E+02
(PID.TID 0000.0001) %MON forcing_qnet_del2            =   3.4118457324533E+00
(PID.TID 0000.0001) %MON forcing_qsw_max              =   0.0000000000000E+00
(PID.TID 0000.0001) %MON forcing_qsw_min              =  -1.0495280040995E+02
(PID.TID 0000.0001) %MON forcing_qsw_mean             =  -1.8251674717404E+01
(PID.TID 0000.0001) %MON forcing_qsw_sd               =   2.7691514713579E+01
(PID.TID 0000.0001) %MON forcing_qsw_del2             =   2.3920663048507E-01
(PID.TID 0000.0001) %MON forcing_empmr_max            =   4.9450825899839E-03
(PID.TID 0000.0001) %MON forcing_empmr_min            =  -7.1096636354923E-02
(PID.TID 0000.0001) %MON forcing_empmr_mean           =  -2.1663151935560E-04
(PID.TID 0000.0001) %MON forcing_empmr_sd             =   3.1336888728228E-03
(PID.TID 0000.0001) %MON forcing_empmr_del2           =   1.2347794692804E-04
(PID.TID 0000.0001) %MON forcing_fu_max               =   2.8145002581768E-01
(PID.TID 0000.0001) %MON forcing_fu_min               =  -3.5666821025084E-01
(PID.TID 0000.0001) %MON forcing_fu_mean              =  -3.9037186560929E-03
(PID.TID 0000.0001) %MON forcing_fu_sd                =   5.9394774163048E-02
(PID.TID 0000.0001) %MON forcing_fu_del2              =   5.8722542273768E-04
(PID.TID 0000.0001) %MON forcing_fv_max               =   2.9183320832337E-01
(PID.TID 0000.0001) %MON forcing_fv_min               =  -2.5245278490477E-01
(PID.TID 0000.0001) %MON forcing_fv_mean              =  -1.4683076954881E-02
(PID.TID 0000.0001) %MON forcing_fv_sd                =   6.0874807878534E-02
(PID.TID 0000.0001) %MON forcing_fv_del2              =   5.2102101785203E-04
(PID.TID 0000.0001) %MON trAdv_CFL_u_max              =   1.9351055102543E-03
(PID.TID 0000.0001) %MON trAdv_CFL_v_max              =   1.1878228014650E-03
(PID.TID 0000.0001) %MON trAdv_CFL_w_max              =   1.3596419303909E-03
(PID.TID 0000.0001) %MON advcfl_uvel_max              =   1.9340458175790E-03
(PID.TID 0000.0001) %MON advcfl_vvel_max              =   1.1779311712021E-03
(PID.TID 0000.0001) %MON advcfl_wvel_max              =   2.4729264819104E-03
(PID.TID 0000.0001) %MON advcfl_W_hf_max              =   1.3596419303909E-03
(PID.TID 0000.0001) %MON pe_b_mean                    =   4.9967766470554E-04
(PID.TID 0000.0001) %MON ke_max                       =   1.9860577786830E-01
(PID.TID 0000.0001) %MON ke_mean                      =   1.6460940191685E-04
(PID.TID 0000.0001) %MON ke_vol                       =   1.3398144007584E+18
(PID.TID 0000.0001) %MON vort_r_min                   =  -2.4171821970402E-06
(PID.TID 0000.0001) %MON vort_r_max                   =   2.6110970488805E-06
(PID.TID 0000.0001) %MON vort_a_mean                  =  -2.0549865324846E-05
(PID.TID 0000.0001) %MON vort_a_sd                    =   7.5259691756912E-05
(PID.TID 0000.0001) %MON vort_p_mean                  =  -2.4783243557859E-05
(PID.TID 0000.0001) %MON vort_p_sd                    =   1.2811919772259E-04
(PID.TID 0000.0001) %MON surfExpan_theta_mean         =  -5.5133231258520E-06
(PID.TID 0000.0001) %MON surfExpan_salt_mean          =   1.1148501918042E-06
(PID.TID 0000.0001) // =======================================================
(PID.TID 0000.0001) // End MONITOR dynamic field statistics
(PID.TID 0000.0001) // =======================================================
 Computing Diagnostic #     81  oceTAUX      Counter:       1   Parms: UU      U1      
           Vector  Mate for  oceTAUX      Diagnostic #     82  oceTAUY  exists 
 Computing Diagnostic #     82  oceTAUY      Counter:       1   Parms: VV      U1      
           Vector  Mate for  oceTAUY      Diagnostic #     81  oceTAUX  exists 
 Computing Diagnostic #     85  oceFWflx     Counter:       1   Parms: SM      U1      
 Computing Diagnostic #     86  oceSflux     Counter:       1   Parms: SM      U1      
 Computing Diagnostic #     87  oceQnet      Counter:       1   Parms: SM      U1      
 Computing Diagnostic #     88  oceQsw       Counter:       1   Parms: SM      U1      
 Computing Diagnostic #     27  SALT         Counter:       1   Parms: SMR     MR      
 Computing Diagnostic #     26  THETA        Counter:       1   Parms: SMR     MR      
 Computing Diagnostic #     45  UVELMASS     Counter:       1   Parms: UUr     MR      
           Vector  Mate for  UVELMASS     Diagnostic #     46  VVELMASS exists 
 Computing Diagnostic #     46  VVELMASS     Counter:       1   Parms: VVr     MR      
           Vector  Mate for  VVELMASS     Diagnostic #     45  UVELMASS exists 
 cg2d: Sum(rhs),rhsMax =  -7.89665749123148E+01  3.62144881967256E+01
(PID.TID 0000.0001)      cg2d_init_res =   1.88430998522195E-01
(PID.TID 0000.0001)      cg2d_iters(min,last) =      -1      10
(PID.TID 0000.0001)      cg2d_last_res =   7.07439275158444E-08
(PID.TID 0000.0001) // =======================================================
(PID.TID 0000.0001) // Begin MONITOR dynamic field statistics
(PID.TID 0000.0001) // =======================================================
(PID.TID 0000.0001) %MON time_tsnumber                =                 72080
(PID.TID 0000.0001) %MON time_secondsf                =   6.4872000000000E+07
(PID.TID 0000.0001) %MON dynstat_eta_max              =   1.2897571754267E+00
(PID.TID 0000.0001) %MON dynstat_eta_min              =  -1.5621439486351E+00
(PID.TID 0000.0001) %MON dynstat_eta_mean             =   3.3229731068150E-02
(PID.TID 0000.0001) %MON dynstat_eta_sd               =   6.1147735282439E-01
(PID.TID 0000.0001) %MON dynstat_eta_del2             =   1.5584572044492E-03
(PID.TID 0000.0001) %MON dynstat_uvel_max             =   3.9403243053479E-01
(PID.TID 0000.0001) %MON dynstat_uvel_min             =  -6.8209180751262E-01
(PID.TID 0000.0001) %MON dynstat_uvel_mean            =  -3.7991632677700E-04
(PID.TID 0000.0001) %MON dynstat_uvel_sd              =   1.2997699495016E-02
(PID.TID 0000.0001) %MON dynstat_uvel_del2            =   8.4603926432131E-05
(PID.TID 0000.0001) %MON dynstat_vvel_max             =   2.4760132569673E-01
(PID.TID 0000.0001) %MON dynstat_vvel_min             =  -3.9047695528711E-01
(PID.TID 0000.0001) %MON dynstat_vvel_mean            =   2.7261238075663E-04
(PID.TID 0000.0001) %MON dynstat_vvel_sd              =   1.3683410586230E-02
(PID.TID 0000.0001) %MON dynstat_vvel_del2            =   8.6852535429328E-05
(PID.TID 0000.0001) %MON dynstat_wvel_max             =   1.2220723809425E-04
(PID.TID 0000.0001) %MON dynstat_wvel_min             =  -1.9159459938392E-04
(PID.TID 0000.0001) %MON dynstat_wvel_mean            =  -8.4551811012056E-08
(PID.TID 0000.0001) %MON dynstat_wvel_sd              =   7.6846804282653E-06
(PID.TID 0000.0001) %MON dynstat_wvel_del2            =   6.8125918078610E-08
(PID.TID 0000.0001) %MON dynstat_theta_max            =   3.0921708568350E+01
(PID.TID 0000.0001) %MON dynstat_theta_min            =  -3.0126762896032E+00
(PID.TID 0000.0001) %MON dynstat_theta_mean           =   3.9091927459744E+00
(PID.TID 0000.0001) %MON dynstat_theta_sd             =   4.5716013989362E+00
(PID.TID 0000.0001) %MON dynstat_theta_del2           =   2.6390818310322E-03
(PID.TID 0000.0001) %MON dynstat_salt_max             =   4.1346844800746E+01
(PID.TID 0000.0001) %MON dynstat_salt_min             =   1.8519183556557E+01
(PID.TID 0000.0001) %MON dynstat_salt_mean            =   3.4771903711725E+01
(PID.TID 0000.0001) %MON dynstat_salt_sd              =   5.3221960404493E-01
(PID.TID 0000.0001) %MON dynstat_salt_del2            =   1.1232022096429E-03
(PID.TID 0000.0001) %MON dynstat_sst_max              =   3.0921708568350E+01
(PID.TID 0000.0001) %MON dynstat_sst_min              =  -1.8990235142188E+00
(PID.TID 0000.0001) %MON dynstat_sst_mean             =   1.8108722363375E+01
(PID.TID 0000.0001) %MON dynstat_sst_sd               =   9.8132532907205E+00
(PID.TID 0000.0001) %MON dynstat_sst_del2             =   1.4981451613695E-02
(PID.TID 0000.0001) %MON dynstat_sss_max              =   4.1346844800746E+01
(PID.TID 0000.0001) %MON dynstat_sss_min              =   1.8752381155562E+01
(PID.TID 0000.0001) %MON dynstat_sss_mean             =   3.4620771873172E+01
(PID.TID 0000.0001) %MON dynstat_sss_sd               =   1.4892801436110E+00
(PID.TID 0000.0001) %MON dynstat_sss_del2             =   1.2712806949569E-02
(PID.TID 0000.0001) %MON forcing_qnet_max             =   1.5468845214844E+03
(PID.TID 0000.0001) %MON forcing_qnet_min             =  -9.1362762897717E+02
(PID.TID 0000.0001) %MON forcing_qnet_mean            =  -3.0331983373093E+01
(PID.TID 0000.0001) %MON forcing_qnet_sd              =   2.0131609541041E+02
(PID.TID 0000.0001) %MON forcing_qnet_del2            =   3.3829327018026E+00
(PID.TID 0000.0001) %MON forcing_qsw_max              =   0.0000000000000E+00
(PID.TID 0000.0001) %MON forcing_qsw_min              =  -1.0594196282427E+02
(PID.TID 0000.0001) %MON forcing_qsw_mean             =  -1.8323687795694E+01
(PID.TID 0000.0001) %MON forcing_qsw_sd               =   2.7626481126477E+01
(PID.TID 0000.0001) %MON forcing_qsw_del2             =   2.3716633321821E-01
(PID.TID 0000.0001) %MON forcing_empmr_max            =   4.8941094428301E-03
(PID.TID 0000.0001) %MON forcing_empmr_min            =  -7.0364117622375E-02
(PID.TID 0000.0001) %MON forcing_empmr_mean           =  -2.1463520614914E-04
(PID.TID 0000.0001) %MON forcing_empmr_sd             =   3.1017410299031E-03
(PID.TID 0000.0001) %MON forcing_empmr_del2           =   1.2220432272815E-04
(PID.TID 0000.0001) %MON forcing_fu_max               =   2.8438941379661E-01
(PID.TID 0000.0001) %MON forcing_fu_min               =  -3.6019985797862E-01
(PID.TID 0000.0001) %MON forcing_fu_mean              =  -3.9874715089982E-03
(PID.TID 0000.0001) %MON forcing_fu_sd                =   5.9206198777478E-02
(PID.TID 0000.0001) %MON forcing_fu_del2              =   5.8578472261946E-04
(PID.TID 0000.0001) %MON forcing_fv_max               =   2.9073650593395E-01
(PID.TID 0000.0001) %MON forcing_fv_min               =  -2.5253864558318E-01
(PID.TID 0000.0001) %MON forcing_fv_mean              =  -1.4725651497682E-02
(PID.TID 0000.0001) %MON forcing_fv_sd                =   6.0811120763750E-02
(PID.TID 0000.0001) %MON forcing_fv_del2              =   5.1910487409562E-04
(PID.TID 0000.0001) %MON trAdv_CFL_u_max              =   1.9697713852650E-03
(PID.TID 0000.0001) %MON trAdv_CFL_v_max              =   1.2735025536954E-03
(PID.TID 0000.0001) %MON trAdv_CFL_w_max              =   1.2981371080974E-03
(PID.TID 0000.0001) %MON advcfl_uvel_max              =   1.9677257571650E-03
(PID.TID 0000.0001) %MON advcfl_vvel_max              =   1.2742687394764E-03
(PID.TID 0000.0001) %MON advcfl_wvel_max              =   2.4474475694739E-03
(PID.TID 0000.0001) %MON advcfl_W_hf_max              =   1.3221763726781E-03
(PID.TID 0000.0001) %MON pe_b_mean                    =   4.9957649578225E-04
(PID.TID 0000.0001) %MON ke_max                       =   1.9233171535565E-01
(PID.TID 0000.0001) %MON ke_mean                      =   1.6458010865092E-04
(PID.TID 0000.0001) %MON ke_vol                       =   1.3398144693056E+18
(PID.TID 0000.0001) %MON vort_r_min                   =  -2.1954651346770E-06
(PID.TID 0000.0001) %MON vort_r_max                   =   2.6627373817933E-06
(PID.TID 0000.0001) %MON vort_a_mean                  =  -2.0549865324846E-05
(PID.TID 0000.0001) %MON vort_a_sd                    =   7.5259686988716E-05
(PID.TID 0000.0001) %MON vort_p_mean                  =  -2.4783242214579E-05
(PID.TID 0000.0001) %MON vort_p_sd                    =   1.2811919680041E-04
(PID.TID 0000.0001) %MON surfExpan_theta_mean         =  -5.3950497074112E-06
(PID.TID 0000.0001) %MON surfExpan_salt_mean          =   1.0970742089773E-06
(PID.TID 0000.0001) // =======================================================
(PID.TID 0000.0001) // End MONITOR dynamic field statistics
(PID.TID 0000.0001) // =======================================================
 cg2d: Sum(rhs),rhsMax =  -7.93812261863491E+01  3.62258953895931E+01
(PID.TID 0000.0001)      cg2d_init_res =   1.90245079660021E-01
(PID.TID 0000.0001)      cg2d_iters(min,last) =      -1      10
(PID.TID 0000.0001)      cg2d_last_res =   6.22137348079427E-08
(PID.TID 0000.0001) // =======================================================
(PID.TID 0000.0001) // Begin MONITOR dynamic field statistics
(PID.TID 0000.0001) // =======================================================
(PID.TID 0000.0001) %MON time_tsnumber                =                 72081
(PID.TID 0000.0001) %MON time_secondsf                =   6.4872900000000E+07
(PID.TID 0000.0001) %MON dynstat_eta_max              =   1.2631980238373E+00
(PID.TID 0000.0001) %MON dynstat_eta_min              =  -1.5610387600223E+00
(PID.TID 0000.0001) %MON dynstat_eta_mean             =   3.3414741442652E-02
(PID.TID 0000.0001) %MON dynstat_eta_sd               =   6.1139868683026E-01
(PID.TID 0000.0001) %MON dynstat_eta_del2             =   1.5100066142354E-03
(PID.TID 0000.0001) %MON dynstat_uvel_max             =   4.0690541205047E-01
(PID.TID 0000.0001) %MON dynstat_uvel_min             =  -6.9202383845387E-01
(PID.TID 0000.0001) %MON dynstat_uvel_mean            =  -3.9421329663579E-04
(PID.TID 0000.0001) %MON dynstat_uvel_sd              =   1.2982264370739E-02
(PID.TID 0000.0001) %MON dynstat_uvel_del2            =   8.4561041003308E-05
(PID.TID 0000.0001) %MON dynstat_vvel_max             =   2.7234054858538E-01
(PID.TID 0000.0001) %MON dynstat_vvel_min             =  -4.1318642467755E-01
(PID.TID 0000.0001) %MON dynstat_vvel_mean            =   2.5206719986266E-04
(PID.TID 0000.0001) %MON dynstat_vvel_sd              =   1.3695331121589E-02
(PID.TID 0000.0001) %MON dynstat_vvel_del2            =   8.7548790976976E-05
(PID.TID 0000.0001) %MON dynstat_wvel_max             =   1.1997921555885E-04
(PID.TID 0000.0001) %MON dynstat_wvel_min             =  -1.9162703475328E-04
(PID.TID 0000.0001) %MON dynstat_wvel_mean            =  -7.7326946112752E-08
(PID.TID 0000.0001) %MON dynstat_wvel_sd              =   7.6705254084434E-06
(PID.TID 0000.0001) %MON dynstat_wvel_del2            =   6.7904781963932E-08
(PID.TID 0000.0001) %MON dynstat_theta_max            =   3.0921488803885E+01
(PID.TID 0000.0001) %MON dynstat_theta_min            =  -3.0131979414862E+00
(PID.TID 0000.0001) %MON dynstat_theta_mean           =   3.9091957927480E+00
(PID.TID 0000.0001) %MON dynstat_theta_sd             =   4.5716129993428E+00
(PID.TID 0000.0001) %MON dynstat_theta_del2           =   2.6389785830572E-03
(PID.TID 0000.0001) %MON dynstat_salt_max             =   4.1346808290064E+01
(PID.TID 0000.0001) %MON dynstat_salt_min             =   1.8519193569419E+01
(PID.TID 0000.0001) %MON dynstat_salt_mean            =   3.4771902062785E+01
(PID.TID 0000.0001) %MON dynstat_salt_sd              =   5.3223054491378E-01
(PID.TID 0000.0001) %MON dynstat_salt_del2            =   1.1255630569831E-03
(PID.TID 0000.0001) %MON dynstat_sst_max              =   3.0921488803885E+01
(PID.TID 0000.0001) %MON dynstat_sst_min              =  -1.8989277065259E+00
(PID.TID 0000.0001) %MON dynstat_sst_mean             =   1.8108850158689E+01
(PID.TID 0000.0001) %MON dynstat_sst_sd               =   9.8133976428328E+00
(PID.TID 0000.0001) %MON dynstat_sst_del2             =   1.4979796194403E-02
(PID.TID 0000.0001) %MON dynstat_sss_max              =   4.1346808290064E+01
(PID.TID 0000.0001) %MON dynstat_sss_min              =   1.8752396451914E+01
(PID.TID 0000.0001) %MON dynstat_sss_mean             =   3.4620645391805E+01
(PID.TID 0000.0001) %MON dynstat_sss_sd               =   1.4895569704414E+00
(PID.TID 0000.0001) %MON dynstat_sss_del2             =   1.2745784053209E-02
(PID.TID 0000.0001) %MON forcing_qnet_max             =   1.5297120361328E+03
(PID.TID 0000.0001) %MON forcing_qnet_min             =  -9.0439213444441E+02
(PID.TID 0000.0001) %MON forcing_qnet_mean            =  -3.2763118862816E+01
(PID.TID 0000.0001) %MON forcing_qnet_sd              =   1.9820710263193E+02
(PID.TID 0000.0001) %MON forcing_qnet_del2            =   3.3664603795854E+00
(PID.TID 0000.0001) %MON forcing_qsw_max              =   0.0000000000000E+00
(PID.TID 0000.0001) %MON forcing_qsw_min              =  -1.0482928700512E+02
(PID.TID 0000.0001) %MON forcing_qsw_mean             =  -1.8586718916512E+01
(PID.TID 0000.0001) %MON forcing_qsw_sd               =   2.7712654488744E+01
(PID.TID 0000.0001) %MON forcing_qsw_del2             =   2.3169121612574E-01
(PID.TID 0000.0001) %MON forcing_empmr_max            =   4.8437267541885E-03
(PID.TID 0000.0001) %MON forcing_empmr_min            =  -6.9639980792999E-02
(PID.TID 0000.0001) %MON forcing_empmr_mean           =  -2.1276193067745E-04
(PID.TID 0000.0001) %MON forcing_empmr_sd             =   3.0701019528372E-03
(PID.TID 0000.0001) %MON forcing_empmr_del2           =   1.2093973269369E-04
(PID.TID 0000.0001) %MON forcing_fu_max               =   2.8792588159404E-01
(PID.TID 0000.0001) %MON forcing_fu_min               =  -3.5073237498052E-01
(PID.TID 0000.0001) %MON forcing_fu_mean              =  -4.0794880435559E-03
(PID.TID 0000.0001) %MON forcing_fu_sd                =   5.8913249901760E-02
(PID.TID 0000.0001) %MON forcing_fu_del2              =   5.8314528075728E-04
(PID.TID 0000.0001) %MON forcing_fv_max               =   2.9031121563881E-01
(PID.TID 0000.0001) %MON forcing_fv_min               =  -2.5207601382643E-01
(PID.TID 0000.0001) %MON forcing_fv_mean              =  -1.4735816382289E-02
(PID.TID 0000.0001) %MON forcing_fv_sd                =   6.0758587839008E-02
(PID.TID 0000.0001) %MON forcing_fv_del2              =   5.1747161641809E-04
(PID.TID 0000.0001) %MON trAdv_CFL_u_max              =   1.9995142297367E-03
(PID.TID 0000.0001) %MON trAdv_CFL_v_max              =   1.3526629134332E-03
(PID.TID 0000.0001) %MON trAdv_CFL_w_max              =   1.2357415241317E-03
(PID.TID 0000.0001) %MON advcfl_uvel_max              =   1.9963780777014E-03
(PID.TID 0000.0001) %MON advcfl_vvel_max              =   1.3483780218361E-03
(PID.TID 0000.0001) %MON advcfl_wvel_max              =   2.4222602014956E-03
(PID.TID 0000.0001) %MON advcfl_W_hf_max              =   1.3225216771870E-03
(PID.TID 0000.0001) %MON pe_b_mean                    =   4.9946474267271E-04
(PID.TID 0000.0001) %MON ke_max                       =   1.8582009362472E-01
(PID.TID 0000.0001) %MON ke_mean                      =   1.6454741098482E-04
(PID.TID 0000.0001) %MON ke_vol                       =   1.3398145372212E+18
(PID.TID 0000.0001) %MON vort_r_min                   =  -2.2274335990508E-06
(PID.TID 0000.0001) %MON vort_r_max                   =   2.7053051595306E-06
(PID.TID 0000.0001) %MON vort_a_mean                  =  -2.0549865324846E-05
(PID.TID 0000.0001) %MON vort_a_sd                    =   7.5259682392446E-05
(PID.TID 0000.0001) %MON vort_p_mean                  =  -2.4783240899192E-05
(PID.TID 0000.0001) %MON vort_p_sd                    =   1.2811919689824E-04
(PID.TID 0000.0001) %MON surfExpan_theta_mean         =  -5.2781326288299E-06
(PID.TID 0000.0001) %MON surfExpan_salt_mean          =   1.0787091738027E-06
(PID.TID 0000.0001) // =======================================================
(PID.TID 0000.0001) // End MONITOR dynamic field statistics
(PID.TID 0000.0001) // =======================================================
 cg2d: Sum(rhs),rhsMax =  -7.98038114509125E+01  3.62325008174125E+01
(PID.TID 0000.0001)      cg2d_init_res =   1.91967250792067E-01
(PID.TID 0000.0001)      cg2d_iters(min,last) =      -1      10
(PID.TID 0000.0001)      cg2d_last_res =   5.25830112869956E-08
(PID.TID 0000.0001) // =======================================================
(PID.TID 0000.0001) // Begin MONITOR dynamic field statistics
(PID.TID 0000.0001) // =======================================================
(PID.TID 0000.0001) %MON time_tsnumber                =                 72082
(PID.TID 0000.0001) %MON time_secondsf                =   6.4873800000000E+07
(PID.TID 0000.0001) %MON dynstat_eta_max              =   1.2297003461228E+00
(PID.TID 0000.0001) %MON dynstat_eta_min              =  -1.5599154085831E+00
(PID.TID 0000.0001) %MON dynstat_eta_mean             =   3.3598749804345E-02
(PID.TID 0000.0001) %MON dynstat_eta_sd               =   6.1131667905681E-01
(PID.TID 0000.0001) %MON dynstat_eta_del2             =   1.4609328426342E-03
(PID.TID 0000.0001) %MON dynstat_uvel_max             =   4.1623345739812E-01
(PID.TID 0000.0001) %MON dynstat_uvel_min             =  -7.0010265340823E-01
(PID.TID 0000.0001) %MON dynstat_uvel_mean            =  -4.0841996472639E-04
(PID.TID 0000.0001) %MON dynstat_uvel_sd              =   1.2967553020715E-02
(PID.TID 0000.0001) %MON dynstat_uvel_del2            =   8.4591828173813E-05
(PID.TID 0000.0001) %MON dynstat_vvel_max             =   2.9315476730852E-01
(PID.TID 0000.0001) %MON dynstat_vvel_min             =  -4.2898231313693E-01
(PID.TID 0000.0001) %MON dynstat_vvel_mean            =   2.3252188273081E-04
(PID.TID 0000.0001) %MON dynstat_vvel_sd              =   1.3705847864546E-02
(PID.TID 0000.0001) %MON dynstat_vvel_del2            =   8.8111670121215E-05
(PID.TID 0000.0001) %MON dynstat_wvel_max             =   1.1674178581853E-04
(PID.TID 0000.0001) %MON dynstat_wvel_min             =  -1.9167144223789E-04
(PID.TID 0000.0001) %MON dynstat_wvel_mean            =  -7.1229831622988E-08
(PID.TID 0000.0001) %MON dynstat_wvel_sd              =   7.6554489388564E-06
(PID.TID 0000.0001) %MON dynstat_wvel_del2            =   6.7653241856444E-08
(PID.TID 0000.0001) %MON dynstat_theta_max            =   3.0921260935432E+01
(PID.TID 0000.0001) %MON dynstat_theta_min            =  -3.0137336491149E+00
(PID.TID 0000.0001) %MON dynstat_theta_mean           =   3.9091988616965E+00
(PID.TID 0000.0001) %MON dynstat_theta_sd             =   4.5716247617621E+00
(PID.TID 0000.0001) %MON dynstat_theta_del2           =   2.6388779998989E-03
(PID.TID 0000.0001) %MON dynstat_salt_max             =   4.1346773130552E+01
(PID.TID 0000.0001) %MON dynstat_salt_min             =   1.8519203586883E+01
(PID.TID 0000.0001) %MON dynstat_salt_mean            =   3.4771900435610E+01
(PID.TID 0000.0001) %MON dynstat_salt_sd              =   5.3224133654543E-01
(PID.TID 0000.0001) %MON dynstat_salt_del2            =   1.1278727001934E-03
(PID.TID 0000.0001) %MON dynstat_sst_max              =   3.0921260935432E+01
(PID.TID 0000.0001) %MON dynstat_sst_min              =  -1.8988191323669E+00
(PID.TID 0000.0001) %MON dynstat_sst_mean             =   1.8108980364020E+01
(PID.TID 0000.0001) %MON dynstat_sst_sd               =   9.8135448777423E+00
(PID.TID 0000.0001) %MON dynstat_sst_del2             =   1.4978222394822E-02
(PID.TID 0000.0001) %MON dynstat_sss_max              =   4.1346773130552E+01
(PID.TID 0000.0001) %MON dynstat_sss_min              =   1.8752411542967E+01
(PID.TID 0000.0001) %MON dynstat_sss_mean             =   3.4620520703942E+01
(PID.TID 0000.0001) %MON dynstat_sss_sd               =   1.4898293615357E+00
(PID.TID 0000.0001) %MON dynstat_sss_del2             =   1.2778031746734E-02
(PID.TID 0000.0001) %MON forcing_qnet_max             =   1.5127437744141E+03
(PID.TID 0000.0001) %MON forcing_qnet_min             =  -8.9429178119783E+02
(PID.TID 0000.0001) %MON forcing_qnet_mean            =  -3.3236991407637E+01
(PID.TID 0000.0001) %MON forcing_qnet_sd              =   1.9660988969958E+02
(PID.TID 0000.0001) %MON forcing_qnet_del2            =   3.3513536603277E+00
(PID.TID 0000.0001) %MON forcing_qsw_max              =   0.0000000000000E+00
(PID.TID 0000.0001) %MON forcing_qsw_min              =  -1.0528374024627E+02
(PID.TID 0000.0001) %MON forcing_qsw_mean             =  -1.8759114411186E+01
(PID.TID 0000.0001) %MON forcing_qsw_sd               =   2.7806285399434E+01
(PID.TID 0000.0001) %MON forcing_qsw_del2             =   2.3077833921451E-01
(PID.TID 0000.0001) %MON forcing_empmr_max            =   4.7938362695277E-03
(PID.TID 0000.0001) %MON forcing_empmr_min            =  -6.8923398852348E-02
(PID.TID 0000.0001) %MON forcing_empmr_mean           =  -2.1160961594752E-04
(PID.TID 0000.0001) %MON forcing_empmr_sd             =   3.0387638503703E-03
(PID.TID 0000.0001) %MON forcing_empmr_del2           =   1.1969722097164E-04
(PID.TID 0000.0001) %MON forcing_fu_max               =   2.8404510588932E-01
(PID.TID 0000.0001) %MON forcing_fu_min               =  -3.5741418837913E-01
(PID.TID 0000.0001) %MON forcing_fu_mean              =  -4.2277812821862E-03
(PID.TID 0000.0001) %MON forcing_fu_sd                =   5.8697328030935E-02
(PID.TID 0000.0001) %MON forcing_fu_del2              =   5.8142562895310E-04
(PID.TID 0000.0001) %MON forcing_fv_max               =   2.9437196372755E-01
(PID.TID 0000.0001) %MON forcing_fv_min               =  -2.5183301970510E-01
(PID.TID 0000.0001) %MON forcing_fv_mean              =  -1.4736465064171E-02
(PID.TID 0000.0001) %MON forcing_fv_sd                =   6.0767066395684E-02
(PID.TID 0000.0001) %MON forcing_fv_del2              =   5.1672104700470E-04
(PID.TID 0000.0001) %MON trAdv_CFL_u_max              =   2.0240082800084E-03
(PID.TID 0000.0001) %MON trAdv_CFL_v_max              =   1.4077591078579E-03
(PID.TID 0000.0001) %MON trAdv_CFL_w_max              =   1.1729709955005E-03
(PID.TID 0000.0001) %MON advcfl_uvel_max              =   2.0196841665563E-03
(PID.TID 0000.0001) %MON advcfl_vvel_max              =   1.3999257677491E-03
(PID.TID 0000.0001) %MON advcfl_wvel_max              =   2.3973356122556E-03
(PID.TID 0000.0001) %MON advcfl_W_hf_max              =   1.3193677507273E-03
(PID.TID 0000.0001) %MON pe_b_mean                    =   4.9934756481321E-04
(PID.TID 0000.0001) %MON ke_max                       =   1.7916569345592E-01
(PID.TID 0000.0001) %MON ke_mean                      =   1.6450659467625E-04
(PID.TID 0000.0001) %MON ke_vol                       =   1.3398146045440E+18
(PID.TID 0000.0001) %MON vort_r_min                   =  -2.2534370730208E-06
(PID.TID 0000.0001) %MON vort_r_max                   =   2.7384764506554E-06
(PID.TID 0000.0001) %MON vort_a_mean                  =  -2.0549865324846E-05
(PID.TID 0000.0001) %MON vort_a_sd                    =   7.5259678026289E-05
(PID.TID 0000.0001) %MON vort_p_mean                  =  -2.4783239609371E-05
(PID.TID 0000.0001) %MON vort_p_sd                    =   1.2811919810737E-04
(PID.TID 0000.0001) %MON surfExpan_theta_mean         =  -5.1740261928001E-06
(PID.TID 0000.0001) %MON surfExpan_salt_mean          =   1.0596939106209E-06
(PID.TID 0000.0001) // =======================================================
(PID.TID 0000.0001) // End MONITOR dynamic field statistics
(PID.TID 0000.0001) // =======================================================
 cg2d: Sum(rhs),rhsMax =  -8.02299346765546E+01  3.62350619895346E+01
(PID.TID 0000.0001)      cg2d_init_res =   1.93312554589268E-01
(PID.TID 0000.0001)      cg2d_iters(min,last) =      -1      10
(PID.TID 0000.0001)      cg2d_last_res =   4.50666082659599E-08
(PID.TID 0000.0001) // =======================================================
(PID.TID 0000.0001) // Begin MONITOR dynamic field statistics
(PID.TID 0000.0001) // =======================================================
(PID.TID 0000.0001) %MON time_tsnumber                =                 72083
(PID.TID 0000.0001) %MON time_secondsf                =   6.4874700000000E+07
(PID.TID 0000.0001) %MON dynstat_eta_max              =   1.1894460477504E+00
(PID.TID 0000.0001) %MON dynstat_eta_min              =  -1.5587980963757E+00
(PID.TID 0000.0001) %MON dynstat_eta_mean             =   3.3780542546537E-02
(PID.TID 0000.0001) %MON dynstat_eta_sd               =   6.1123221107359E-01
(PID.TID 0000.0001) %MON dynstat_eta_del2             =   1.4137356714930E-03
(PID.TID 0000.0001) %MON dynstat_uvel_max             =   4.2196624591980E-01
(PID.TID 0000.0001) %MON dynstat_uvel_min             =  -7.0622564199575E-01
(PID.TID 0000.0001) %MON dynstat_uvel_mean            =  -4.2228876167086E-04
(PID.TID 0000.0001) %MON dynstat_uvel_sd              =   1.2953569260650E-02
(PID.TID 0000.0001) %MON dynstat_uvel_del2            =   8.4678725407292E-05
(PID.TID 0000.0001) %MON dynstat_vvel_max             =   3.0984940445407E-01
(PID.TID 0000.0001) %MON dynstat_vvel_min             =  -4.3786365639338E-01
(PID.TID 0000.0001) %MON dynstat_vvel_mean            =   2.1419702419870E-04
(PID.TID 0000.0001) %MON dynstat_vvel_sd              =   1.3714381905933E-02
(PID.TID 0000.0001) %MON dynstat_vvel_del2            =   8.8497649252103E-05
(PID.TID 0000.0001) %MON dynstat_wvel_max             =   1.1253523507230E-04
(PID.TID 0000.0001) %MON dynstat_wvel_min             =  -1.9172916882854E-04
(PID.TID 0000.0001) %MON dynstat_wvel_mean            =  -6.5263004793461E-08
(PID.TID 0000.0001) %MON dynstat_wvel_sd              =   7.6409861973800E-06
(PID.TID 0000.0001) %MON dynstat_wvel_del2            =   6.7375416257486E-08
(PID.TID 0000.0001) %MON dynstat_theta_max            =   3.0921024821552E+01
(PID.TID 0000.0001) %MON dynstat_theta_min            =  -3.0142821727417E+00
(PID.TID 0000.0001) %MON dynstat_theta_mean           =   3.9092019387017E+00
(PID.TID 0000.0001) %MON dynstat_theta_sd             =   4.5716366270867E+00
(PID.TID 0000.0001) %MON dynstat_theta_del2           =   2.6387739329416E-03
(PID.TID 0000.0001) %MON dynstat_salt_max             =   4.1346740001758E+01
(PID.TID 0000.0001) %MON dynstat_salt_min             =   1.8519213610760E+01
(PID.TID 0000.0001) %MON dynstat_salt_mean            =   3.4771898838918E+01
(PID.TID 0000.0001) %MON dynstat_salt_sd              =   5.3225197204184E-01
(PID.TID 0000.0001) %MON dynstat_salt_del2            =   1.1301309180127E-03
(PID.TID 0000.0001) %MON dynstat_sst_max              =   3.0921024821552E+01
(PID.TID 0000.0001) %MON dynstat_sst_min              =  -1.8987016430054E+00
(PID.TID 0000.0001) %MON dynstat_sst_mean             =   1.8109112312572E+01
(PID.TID 0000.0001) %MON dynstat_sst_sd               =   9.8136945452858E+00
(PID.TID 0000.0001) %MON dynstat_sst_del2             =   1.4976497337195E-02
(PID.TID 0000.0001) %MON dynstat_sss_max              =   4.1346740001758E+01
(PID.TID 0000.0001) %MON dynstat_sss_min              =   1.8752426433996E+01
(PID.TID 0000.0001) %MON dynstat_sss_mean             =   3.4620398385110E+01
(PID.TID 0000.0001) %MON dynstat_sss_sd               =   1.4900971207823E+00
(PID.TID 0000.0001) %MON dynstat_sss_del2             =   1.2809546094018E-02
(PID.TID 0000.0001) %MON forcing_qnet_max             =   1.4959770507812E+03
(PID.TID 0000.0001) %MON forcing_qnet_min             =  -9.1460386185132E+02
(PID.TID 0000.0001) %MON forcing_qnet_mean            =  -3.3678954807517E+01
(PID.TID 0000.0001) %MON forcing_qnet_sd              =   1.9559962564548E+02
(PID.TID 0000.0001) %MON forcing_qnet_del2            =   3.3712586747793E+00
(PID.TID 0000.0001) %MON forcing_qsw_max              =   0.0000000000000E+00
(PID.TID 0000.0001) %MON forcing_qsw_min              =  -1.0588499646512E+02
(PID.TID 0000.0001) %MON forcing_qsw_mean             =  -1.8885647623095E+01
(PID.TID 0000.0001) %MON forcing_qsw_sd               =   2.7880342682765E+01
(PID.TID 0000.0001) %MON forcing_qsw_del2             =   2.2961836652306E-01
(PID.TID 0000.0001) %MON forcing_empmr_max            =   4.7444375231862E-03
(PID.TID 0000.0001) %MON forcing_empmr_min            =  -6.8213537335396E-02
(PID.TID 0000.0001) %MON forcing_empmr_mean           =  -2.0906165352138E-04
(PID.TID 0000.0001) %MON forcing_empmr_sd             =   3.0077524590352E-03
(PID.TID 0000.0001) %MON forcing_empmr_del2           =   1.1845123946815E-04
(PID.TID 0000.0001) %MON forcing_fu_max               =   2.8008179235877E-01
(PID.TID 0000.0001) %MON forcing_fu_min               =  -3.4880724045058E-01
(PID.TID 0000.0001) %MON forcing_fu_mean              =  -4.3313769956603E-03
(PID.TID 0000.0001) %MON forcing_fu_sd                =   5.8327836029045E-02
(PID.TID 0000.0001) %MON forcing_fu_del2              =   5.7776056723729E-04
(PID.TID 0000.0001) %MON forcing_fv_max               =   2.9197876076592E-01
(PID.TID 0000.0001) %MON forcing_fv_min               =  -2.5248603378867E-01
(PID.TID 0000.0001) %MON forcing_fv_mean              =  -1.4768528645764E-02
(PID.TID 0000.0001) %MON forcing_fv_sd                =   6.0684305670383E-02
(PID.TID 0000.0001) %MON forcing_fv_del2              =   5.1505419445399E-04
(PID.TID 0000.0001) %MON trAdv_CFL_u_max              =   2.0429473504097E-03
(PID.TID 0000.0001) %MON trAdv_CFL_v_max              =   1.4388356179248E-03
(PID.TID 0000.0001) %MON trAdv_CFL_w_max              =   1.1729731438262E-03
(PID.TID 0000.0001) %MON advcfl_uvel_max              =   2.0373480091971E-03
(PID.TID 0000.0001) %MON advcfl_vvel_max              =   1.4289088304447E-03
(PID.TID 0000.0001) %MON advcfl_wvel_max              =   2.3726447768833E-03
(PID.TID 0000.0001) %MON advcfl_W_hf_max              =   1.3130196256395E-03
(PID.TID 0000.0001) %MON pe_b_mean                    =   4.9922628927060E-04
(PID.TID 0000.0001) %MON ke_max                       =   1.7244608400473E-01
(PID.TID 0000.0001) %MON ke_mean                      =   1.6445015699081E-04
(PID.TID 0000.0001) %MON ke_vol                       =   1.3398146715022E+18
(PID.TID 0000.0001) %MON vort_r_min                   =  -2.2731452821150E-06
(PID.TID 0000.0001) %MON vort_r_max                   =   2.7620023688773E-06
(PID.TID 0000.0001) %MON vort_a_mean                  =  -2.0549865324846E-05
(PID.TID 0000.0001) %MON vort_a_sd                    =   7.5259673938452E-05
(PID.TID 0000.0001) %MON vort_p_mean                  =  -2.4783238339504E-05
(PID.TID 0000.0001) %MON vort_p_sd                    =   1.2811920042263E-04
(PID.TID 0000.0001) %MON surfExpan_theta_mean         =  -5.0414435395026E-06
(PID.TID 0000.0001) %MON surfExpan_salt_mean          =   1.0397500196521E-06
(PID.TID 0000.0001) // =======================================================
(PID.TID 0000.0001) // End MONITOR dynamic field statistics
(PID.TID 0000.0001) // =======================================================
 Computing Diagnostic #     81  oceTAUX      Counter:       1   Parms: UU      U1      
           Vector  Mate for  oceTAUX      Diagnostic #     82  oceTAUY  exists 
 Computing Diagnostic #     82  oceTAUY      Counter:       1   Parms: VV      U1      
           Vector  Mate for  oceTAUY      Diagnostic #     81  oceTAUX  exists 
 Computing Diagnostic #     85  oceFWflx     Counter:       1   Parms: SM      U1      
 Computing Diagnostic #     86  oceSflux     Counter:       1   Parms: SM      U1      
 Computing Diagnostic #     87  oceQnet      Counter:       1   Parms: SM      U1      
 Computing Diagnostic #     88  oceQsw       Counter:       1   Parms: SM      U1      
 Computing Diagnostic #     27  SALT         Counter:       1   Parms: SMR     MR      
 Computing Diagnostic #     26  THETA        Counter:       1   Parms: SMR     MR      
 Computing Diagnostic #     45  UVELMASS     Counter:       1   Parms: UUr     MR      
           Vector  Mate for  UVELMASS     Diagnostic #     46  VVELMASS exists 
 Computing Diagnostic #     46  VVELMASS     Counter:       1   Parms: VVr     MR      
           Vector  Mate for  VVELMASS     Diagnostic #     45  UVELMASS exists 
 cg2d: Sum(rhs),rhsMax =  -8.06572684866001E+01  3.62346117972825E+01
(PID.TID 0000.0001)      cg2d_init_res =   1.94103170443893E-01
(PID.TID 0000.0001)      cg2d_iters(min,last) =      -1      10
(PID.TID 0000.0001)      cg2d_last_res =   4.02899368556480E-08
(PID.TID 0000.0001) // =======================================================
(PID.TID 0000.0001) // Begin MONITOR dynamic field statistics
(PID.TID 0000.0001) // =======================================================
(PID.TID 0000.0001) %MON time_tsnumber                =                 72084
(PID.TID 0000.0001) %MON time_secondsf                =   6.4875600000000E+07
(PID.TID 0000.0001) %MON dynstat_eta_max              =   1.1427107493951E+00
(PID.TID 0000.0001) %MON dynstat_eta_min              =  -1.5577075952628E+00
(PID.TID 0000.0001) %MON dynstat_eta_mean             =   3.3960048069192E-02
(PID.TID 0000.0001) %MON dynstat_eta_sd               =   6.1114578617458E-01
(PID.TID 0000.0001) %MON dynstat_eta_del2             =   1.3707439243664E-03
(PID.TID 0000.0001) %MON dynstat_uvel_max             =   4.2414685356860E-01
(PID.TID 0000.0001) %MON dynstat_uvel_min             =  -7.1028202008828E-01
(PID.TID 0000.0001) %MON dynstat_uvel_mean            =  -4.3563285144899E-04
(PID.TID 0000.0001) %MON dynstat_uvel_sd              =   1.2940411369268E-02
(PID.TID 0000.0001) %MON dynstat_uvel_del2            =   8.4804695372870E-05
(PID.TID 0000.0001) %MON dynstat_vvel_max             =   3.2230546734792E-01
(PID.TID 0000.0001) %MON dynstat_vvel_min             =  -4.3993056656504E-01
(PID.TID 0000.0001) %MON dynstat_vvel_mean            =   1.9730540215009E-04
(PID.TID 0000.0001) %MON dynstat_vvel_sd              =   1.3720600018829E-02
(PID.TID 0000.0001) %MON dynstat_vvel_del2            =   8.8683156017646E-05
(PID.TID 0000.0001) %MON dynstat_wvel_max             =   1.0745407888814E-04
(PID.TID 0000.0001) %MON dynstat_wvel_min             =  -1.9180116913063E-04
(PID.TID 0000.0001) %MON dynstat_wvel_mean            =  -6.0012945428077E-08
(PID.TID 0000.0001) %MON dynstat_wvel_sd              =   7.6267702986368E-06
(PID.TID 0000.0001) %MON dynstat_wvel_del2            =   6.7077659471566E-08
(PID.TID 0000.0001) %MON dynstat_theta_max            =   3.0920780330576E+01
(PID.TID 0000.0001) %MON dynstat_theta_min            =  -3.0148426468425E+00
(PID.TID 0000.0001) %MON dynstat_theta_mean           =   3.9092050189692E+00
(PID.TID 0000.0001) %MON dynstat_theta_sd             =   4.5716486005102E+00
(PID.TID 0000.0001) %MON dynstat_theta_del2           =   2.6386658313774E-03
(PID.TID 0000.0001) %MON dynstat_salt_max             =   4.1346709968296E+01
(PID.TID 0000.0001) %MON dynstat_salt_min             =   1.8519223642486E+01
(PID.TID 0000.0001) %MON dynstat_salt_mean            =   3.4771897269793E+01
(PID.TID 0000.0001) %MON dynstat_salt_sd              =   5.3226241987269E-01
(PID.TID 0000.0001) %MON dynstat_salt_del2            =   1.1323385258647E-03
(PID.TID 0000.0001) %MON dynstat_sst_max              =   3.0920780330576E+01
(PID.TID 0000.0001) %MON dynstat_sst_min              =  -1.8985769480796E+00
(PID.TID 0000.0001) %MON dynstat_sst_mean             =   1.8109245939220E+01
(PID.TID 0000.0001) %MON dynstat_sst_sd               =   9.8138470573846E+00
(PID.TID 0000.0001) %MON dynstat_sst_del2             =   1.4974638921724E-02
(PID.TID 0000.0001) %MON dynstat_sss_max              =   4.1346709968296E+01
(PID.TID 0000.0001) %MON dynstat_sss_min              =   1.8752441130105E+01
(PID.TID 0000.0001) %MON dynstat_sss_mean             =   3.4620278268071E+01
(PID.TID 0000.0001) %MON dynstat_sss_sd               =   1.4903594450540E+00
(PID.TID 0000.0001) %MON dynstat_sss_del2             =   1.2840342345822E-02
(PID.TID 0000.0001) %MON forcing_qnet_max             =   1.4794095458984E+03
(PID.TID 0000.0001) %MON forcing_qnet_min             =  -1.0118931235050E+03
(PID.TID 0000.0001) %MON forcing_qnet_mean            =  -3.4005568793384E+01
(PID.TID 0000.0001) %MON forcing_qnet_sd              =   1.9418300057436E+02
(PID.TID 0000.0001) %MON forcing_qnet_del2            =   3.3593083966927E+00
(PID.TID 0000.0001) %MON forcing_qsw_max              =   0.0000000000000E+00
(PID.TID 0000.0001) %MON forcing_qsw_min              =  -1.0604896423898E+02
(PID.TID 0000.0001) %MON forcing_qsw_mean             =  -1.8967438154415E+01
(PID.TID 0000.0001) %MON forcing_qsw_sd               =   2.7932445740144E+01
(PID.TID 0000.0001) %MON forcing_qsw_del2             =   2.2822696570913E-01
(PID.TID 0000.0001) %MON forcing_empmr_max            =   4.6955309808254E-03
(PID.TID 0000.0001) %MON forcing_empmr_min            =  -6.7511223256588E-02
(PID.TID 0000.0001) %MON forcing_empmr_mean           =  -2.0643135105271E-04
(PID.TID 0000.0001) %MON forcing_empmr_sd             =   2.9767414524108E-03
(PID.TID 0000.0001) %MON forcing_empmr_del2           =   1.1720290452013E-04
(PID.TID 0000.0001) %MON forcing_fu_max               =   2.7479225412240E-01
(PID.TID 0000.0001) %MON forcing_fu_min               =  -3.4958103981874E-01
(PID.TID 0000.0001) %MON forcing_fu_mean              =  -4.4433467706932E-03
(PID.TID 0000.0001) %MON forcing_fu_sd                =   5.7953749174235E-02
(PID.TID 0000.0001) %MON forcing_fu_del2              =   5.7516424495437E-04
(PID.TID 0000.0001) %MON forcing_fv_max               =   2.8732553801827E-01
(PID.TID 0000.0001) %MON forcing_fv_min               =  -2.5341302204641E-01
(PID.TID 0000.0001) %MON forcing_fv_mean              =  -1.4834191140428E-02
(PID.TID 0000.0001) %MON forcing_fv_sd                =   6.0564569220909E-02
(PID.TID 0000.0001) %MON forcing_fv_del2              =   5.1317407580593E-04
(PID.TID 0000.0001) %MON trAdv_CFL_u_max              =   2.0559987071592E-03
(PID.TID 0000.0001) %MON trAdv_CFL_v_max              =   1.4463358280438E-03
(PID.TID 0000.0001) %MON trAdv_CFL_w_max              =   1.1808040680322E-03
(PID.TID 0000.0001) %MON advcfl_uvel_max              =   2.0490500111352E-03
(PID.TID 0000.0001) %MON advcfl_vvel_max              =   1.4356539122821E-03
(PID.TID 0000.0001) %MON advcfl_wvel_max              =   2.3482164610987E-03
(PID.TID 0000.0001) %MON advcfl_W_hf_max              =   1.3037862941655E-03
(PID.TID 0000.0001) %MON pe_b_mean                    =   4.9910172768791E-04
(PID.TID 0000.0001) %MON ke_max                       =   1.7340855982023E-01
(PID.TID 0000.0001) %MON ke_mean                      =   1.6437483760340E-04
(PID.TID 0000.0001) %MON ke_vol                       =   1.3398147376542E+18
(PID.TID 0000.0001) %MON vort_r_min                   =  -2.2862016428235E-06
(PID.TID 0000.0001) %MON vort_r_max                   =   2.7756618033666E-06
(PID.TID 0000.0001) %MON vort_a_mean                  =  -2.0549865324846E-05
(PID.TID 0000.0001) %MON vort_a_sd                    =   7.5259670173624E-05
(PID.TID 0000.0001) %MON vort_p_mean                  =  -2.4783237097443E-05
(PID.TID 0000.0001) %MON vort_p_sd                    =   1.2811920375964E-04
(PID.TID 0000.0001) %MON surfExpan_theta_mean         =  -4.9036399951917E-06
(PID.TID 0000.0001) %MON surfExpan_salt_mean          =   1.0177140937827E-06
(PID.TID 0000.0001) // =======================================================
(PID.TID 0000.0001) // End MONITOR dynamic field statistics
(PID.TID 0000.0001) // =======================================================
 cg2d: Sum(rhs),rhsMax =  -8.10847588538794E+01  3.62324415644689E+01
(PID.TID 0000.0001)      cg2d_init_res =   1.94233410962039E-01
(PID.TID 0000.0001)      cg2d_iters(min,last) =      -1      10
(PID.TID 0000.0001)      cg2d_last_res =   3.87235722365861E-08
(PID.TID 0000.0001) // =======================================================
(PID.TID 0000.0001) // Begin MONITOR dynamic field statistics
(PID.TID 0000.0001) // =======================================================
(PID.TID 0000.0001) %MON time_tsnumber                =                 72085
(PID.TID 0000.0001) %MON time_secondsf                =   6.4876500000000E+07
(PID.TID 0000.0001) %MON dynstat_eta_max              =   1.0898089353480E+00
(PID.TID 0000.0001) %MON dynstat_eta_min              =  -1.5566612599401E+00
(PID.TID 0000.0001) %MON dynstat_eta_mean             =   3.4137994425035E-02
(PID.TID 0000.0001) %MON dynstat_eta_sd               =   6.1105853779661E-01
(PID.TID 0000.0001) %MON dynstat_eta_del2             =   1.3339105532117E-03
(PID.TID 0000.0001) %MON dynstat_uvel_max             =   4.2290791459409E-01
(PID.TID 0000.0001) %MON dynstat_uvel_min             =  -7.1221080561501E-01
(PID.TID 0000.0001) %MON dynstat_uvel_mean            =  -4.4830844950942E-04
(PID.TID 0000.0001) %MON dynstat_uvel_sd              =   1.2928166777737E-02
(PID.TID 0000.0001) %MON dynstat_uvel_del2            =   8.4953430876710E-05
(PID.TID 0000.0001) %MON dynstat_vvel_max             =   3.3047665398736E-01
(PID.TID 0000.0001) %MON dynstat_vvel_min             =  -4.3538024593350E-01
(PID.TID 0000.0001) %MON dynstat_vvel_mean            =   1.8207151946870E-04
(PID.TID 0000.0001) %MON dynstat_vvel_sd              =   1.3724387721592E-02
(PID.TID 0000.0001) %MON dynstat_vvel_del2            =   8.8664748090921E-05
(PID.TID 0000.0001) %MON dynstat_wvel_max             =   1.0496181273271E-04
(PID.TID 0000.0001) %MON dynstat_wvel_min             =  -1.9188555237779E-04
(PID.TID 0000.0001) %MON dynstat_wvel_mean            =  -5.6032838161948E-08
(PID.TID 0000.0001) %MON dynstat_wvel_sd              =   7.6140139643921E-06
(PID.TID 0000.0001) %MON dynstat_wvel_del2            =   6.6764802043125E-08
(PID.TID 0000.0001) %MON dynstat_theta_max            =   3.0920529683841E+01
(PID.TID 0000.0001) %MON dynstat_theta_min            =  -3.0154145644516E+00
(PID.TID 0000.0001) %MON dynstat_theta_mean           =   3.9092082170375E+00
(PID.TID 0000.0001) %MON dynstat_theta_sd             =   4.5716612179427E+00
(PID.TID 0000.0001) %MON dynstat_theta_del2           =   2.6385557881462E-03
(PID.TID 0000.0001) %MON dynstat_salt_max             =   4.1346684059944E+01
(PID.TID 0000.0001) %MON dynstat_salt_min             =   1.8519233683112E+01
(PID.TID 0000.0001) %MON dynstat_salt_mean            =   3.4771895725453E+01
(PID.TID 0000.0001) %MON dynstat_salt_sd              =   5.3227272263700E-01
(PID.TID 0000.0001) %MON dynstat_salt_del2            =   1.1344968100681E-03
(PID.TID 0000.0001) %MON dynstat_sst_max              =   3.0920529683841E+01
(PID.TID 0000.0001) %MON dynstat_sst_min              =  -1.8984468311413E+00
(PID.TID 0000.0001) %MON dynstat_sst_mean             =   1.8109389141573E+01
(PID.TID 0000.0001) %MON dynstat_sst_sd               =   9.8140087374877E+00
(PID.TID 0000.0001) %MON dynstat_sst_del2             =   1.4972755144127E-02
(PID.TID 0000.0001) %MON dynstat_sss_max              =   4.1346684059944E+01
(PID.TID 0000.0001) %MON dynstat_sss_min              =   1.8752455635373E+01
(PID.TID 0000.0001) %MON dynstat_sss_mean             =   3.4620160188849E+01
(PID.TID 0000.0001) %MON dynstat_sss_sd               =   1.4906174486295E+00
(PID.TID 0000.0001) %MON dynstat_sss_del2             =   1.2870441151367E-02
(PID.TID 0000.0001) %MON forcing_qnet_max             =   1.4621755371094E+03
(PID.TID 0000.0001) %MON forcing_qnet_min             =  -8.6487277460894E+02
(PID.TID 0000.0001) %MON forcing_qnet_mean            =  -3.6092625678272E+01
(PID.TID 0000.0001) %MON forcing_qnet_sd              =   1.9107148684613E+02
(PID.TID 0000.0001) %MON forcing_qnet_del2            =   3.2474175966178E+00
(PID.TID 0000.0001) %MON forcing_qsw_max              =   0.0000000000000E+00
(PID.TID 0000.0001) %MON forcing_qsw_min              =  -1.0513071889732E+02
(PID.TID 0000.0001) %MON forcing_qsw_mean             =  -1.9186077210506E+01
(PID.TID 0000.0001) %MON forcing_qsw_sd               =   2.8114897363203E+01
(PID.TID 0000.0001) %MON forcing_qsw_del2             =   2.2748829995042E-01
(PID.TID 0000.0001) %MON forcing_empmr_max            =   4.6472148969769E-03
(PID.TID 0000.0001) %MON forcing_empmr_min            =  -6.6816456615925E-02
(PID.TID 0000.0001) %MON forcing_empmr_mean           =  -2.0463830921893E-04
(PID.TID 0000.0001) %MON forcing_empmr_sd             =   2.9462503084642E-03
(PID.TID 0000.0001) %MON forcing_empmr_del2           =   1.1596690923974E-04
(PID.TID 0000.0001) %MON forcing_fu_max               =   2.6980517611069E-01
(PID.TID 0000.0001) %MON forcing_fu_min               =  -3.5015423187716E-01
(PID.TID 0000.0001) %MON forcing_fu_mean              =  -4.5636131930452E-03
(PID.TID 0000.0001) %MON forcing_fu_sd                =   5.7630076685665E-02
(PID.TID 0000.0001) %MON forcing_fu_del2              =   5.7305359337337E-04
(PID.TID 0000.0001) %MON forcing_fv_max               =   2.8610230304925E-01
(PID.TID 0000.0001) %MON forcing_fv_min               =  -2.5481984307504E-01
(PID.TID 0000.0001) %MON forcing_fv_mean              =  -1.4857069537588E-02
(PID.TID 0000.0001) %MON forcing_fv_sd                =   6.0444585840654E-02
(PID.TID 0000.0001) %MON forcing_fv_del2              =   5.1146373021109E-04
(PID.TID 0000.0001) %MON trAdv_CFL_u_max              =   2.0629699806876E-03
(PID.TID 0000.0001) %MON trAdv_CFL_v_max              =   1.4310758403359E-03
(PID.TID 0000.0001) %MON trAdv_CFL_w_max              =   1.2016820781952E-03
(PID.TID 0000.0001) %MON advcfl_uvel_max              =   2.0546142488510E-03
(PID.TID 0000.0001) %MON advcfl_vvel_max              =   1.4208045562399E-03
(PID.TID 0000.0001) %MON advcfl_wvel_max              =   2.3240506649017E-03
(PID.TID 0000.0001) %MON advcfl_W_hf_max              =   1.2919827560917E-03
(PID.TID 0000.0001) %MON pe_b_mean                    =   4.9897578967851E-04
(PID.TID 0000.0001) %MON ke_max                       =   1.7911937626622E-01
(PID.TID 0000.0001) %MON ke_mean                      =   1.6428003887177E-04
(PID.TID 0000.0001) %MON ke_vol                       =   1.3398148029739E+18
(PID.TID 0000.0001) %MON vort_r_min                   =  -2.2924098707036E-06
(PID.TID 0000.0001) %MON vort_r_max                   =   2.7794266521540E-06
(PID.TID 0000.0001) %MON vort_a_mean                  =  -2.0549865324846E-05
(PID.TID 0000.0001) %MON vort_a_sd                    =   7.5259666773853E-05
(PID.TID 0000.0001) %MON vort_p_mean                  =  -2.4783235881776E-05
(PID.TID 0000.0001) %MON vort_p_sd                    =   1.2811920793782E-04
(PID.TID 0000.0001) %MON surfExpan_theta_mean         =  -4.7896205744794E-06
(PID.TID 0000.0001) %MON surfExpan_salt_mean          =   9.9647291282547E-07
(PID.TID 0000.0001) // =======================================================
(PID.TID 0000.0001) // End MONITOR dynamic field statistics
(PID.TID 0000.0001) // =======================================================
 cg2d: Sum(rhs),rhsMax =  -8.15085765223808E+01  3.62299678739662E+01
(PID.TID 0000.0001)      cg2d_init_res =   1.93583308816820E-01
(PID.TID 0000.0001)      cg2d_iters(min,last) =      -1      10
(PID.TID 0000.0001)      cg2d_last_res =   3.95223806048619E-08
(PID.TID 0000.0001) // =======================================================
(PID.TID 0000.0001) // Begin MONITOR dynamic field statistics
(PID.TID 0000.0001) // =======================================================
(PID.TID 0000.0001) %MON time_tsnumber                =                 72086
(PID.TID 0000.0001) %MON time_secondsf                =   6.4877400000000E+07
(PID.TID 0000.0001) %MON dynstat_eta_max              =   1.0311315834626E+00
(PID.TID 0000.0001) %MON dynstat_eta_min              =  -1.5565906156800E+00
(PID.TID 0000.0001) %MON dynstat_eta_mean             =   3.4314085636684E-02
(PID.TID 0000.0001) %MON dynstat_eta_sd               =   6.1096897943412E-01
(PID.TID 0000.0001) %MON dynstat_eta_del2             =   1.3046362535267E-03
(PID.TID 0000.0001) %MON dynstat_uvel_max             =   4.1846542781115E-01
(PID.TID 0000.0001) %MON dynstat_uvel_min             =  -7.1195061942128E-01
(PID.TID 0000.0001) %MON dynstat_uvel_mean            =  -4.6020860343513E-04
(PID.TID 0000.0001) %MON dynstat_uvel_sd              =   1.2916796518007E-02
(PID.TID 0000.0001) %MON dynstat_uvel_del2            =   8.5108477560345E-05
(PID.TID 0000.0001) %MON dynstat_vvel_max             =   3.3438565957640E-01
(PID.TID 0000.0001) %MON dynstat_vvel_min             =  -4.2450446547298E-01
(PID.TID 0000.0001) %MON dynstat_vvel_mean            =   1.6866022154786E-04
(PID.TID 0000.0001) %MON dynstat_vvel_sd              =   1.3725709821873E-02
(PID.TID 0000.0001) %MON dynstat_vvel_del2            =   8.8456128176209E-05
(PID.TID 0000.0001) %MON dynstat_wvel_max             =   1.0518949891199E-04
(PID.TID 0000.0001) %MON dynstat_wvel_min             =  -1.9198149857009E-04
(PID.TID 0000.0001) %MON dynstat_wvel_mean            =  -5.2621271196759E-08
(PID.TID 0000.0001) %MON dynstat_wvel_sd              =   7.6029764481871E-06
(PID.TID 0000.0001) %MON dynstat_wvel_del2            =   6.6443422415024E-08
(PID.TID 0000.0001) %MON dynstat_theta_max            =   3.0920270399370E+01
(PID.TID 0000.0001) %MON dynstat_theta_min            =  -3.0159978637938E+00
(PID.TID 0000.0001) %MON dynstat_theta_mean           =   3.9092114370336E+00
(PID.TID 0000.0001) %MON dynstat_theta_sd             =   4.5716739713199E+00
(PID.TID 0000.0001) %MON dynstat_theta_del2           =   2.6384425244008E-03
(PID.TID 0000.0001) %MON dynstat_salt_max             =   4.1346663416518E+01
(PID.TID 0000.0001) %MON dynstat_salt_min             =   1.8519243733282E+01
(PID.TID 0000.0001) %MON dynstat_salt_mean            =   3.4771894206518E+01
(PID.TID 0000.0001) %MON dynstat_salt_sd              =   5.3228286803159E-01
(PID.TID 0000.0001) %MON dynstat_salt_del2            =   1.1366068117291E-03
(PID.TID 0000.0001) %MON dynstat_sst_max              =   3.0920270399370E+01
(PID.TID 0000.0001) %MON dynstat_sst_min              =  -1.8983131715610E+00
(PID.TID 0000.0001) %MON dynstat_sst_mean             =   1.8109535301768E+01
(PID.TID 0000.0001) %MON dynstat_sst_sd               =   9.8141721478051E+00
(PID.TID 0000.0001) %MON dynstat_sst_del2             =   1.4970796446057E-02
(PID.TID 0000.0001) %MON dynstat_sss_max              =   4.1346663416518E+01
(PID.TID 0000.0001) %MON dynstat_sss_min              =   1.8752469954592E+01
(PID.TID 0000.0001) %MON dynstat_sss_mean             =   3.4620044116759E+01
(PID.TID 0000.0001) %MON dynstat_sss_sd               =   1.4908707855284E+00
(PID.TID 0000.0001) %MON dynstat_sss_del2             =   1.2899856985157E-02
(PID.TID 0000.0001) %MON forcing_qnet_max             =   1.4460061035156E+03
(PID.TID 0000.0001) %MON forcing_qnet_min             =  -8.5456968646099E+02
(PID.TID 0000.0001) %MON forcing_qnet_mean            =  -3.6654474420166E+01
(PID.TID 0000.0001) %MON forcing_qnet_sd              =   1.9010849831792E+02
(PID.TID 0000.0001) %MON forcing_qnet_del2            =   3.2045700008231E+00
(PID.TID 0000.0001) %MON forcing_qsw_max              =   0.0000000000000E+00
(PID.TID 0000.0001) %MON forcing_qsw_min              =  -1.0537150815039E+02
(PID.TID 0000.0001) %MON forcing_qsw_mean             =  -1.9383766840644E+01
(PID.TID 0000.0001) %MON forcing_qsw_sd               =   2.8311485768872E+01
(PID.TID 0000.0001) %MON forcing_qsw_del2             =   2.2745238793292E-01
(PID.TID 0000.0001) %MON forcing_empmr_max            =   4.5992922969162E-03
(PID.TID 0000.0001) %MON forcing_empmr_min            =  -6.6129244863987E-02
(PID.TID 0000.0001) %MON forcing_empmr_mean           =  -2.0250489339634E-04
(PID.TID 0000.0001) %MON forcing_empmr_sd             =   2.9159539062758E-03
(PID.TID 0000.0001) %MON forcing_empmr_del2           =   1.1475164941701E-04
(PID.TID 0000.0001) %MON forcing_fu_max               =   2.6537271451927E-01
(PID.TID 0000.0001) %MON forcing_fu_min               =  -3.3818524341388E-01
(PID.TID 0000.0001) %MON forcing_fu_mean              =  -4.6633990369955E-03
(PID.TID 0000.0001) %MON forcing_fu_sd                =   5.7179871801966E-02
(PID.TID 0000.0001) %MON forcing_fu_del2              =   5.6893438632079E-04
(PID.TID 0000.0001) %MON forcing_fv_max               =   2.8219586066702E-01
(PID.TID 0000.0001) %MON forcing_fv_min               =  -2.5587192083059E-01
(PID.TID 0000.0001) %MON forcing_fv_mean              =  -1.4886977576985E-02
(PID.TID 0000.0001) %MON forcing_fv_sd                =   6.0288786349113E-02
(PID.TID 0000.0001) %MON forcing_fv_del2              =   5.0942835315302E-04
(PID.TID 0000.0001) %MON trAdv_CFL_u_max              =   2.0636652668761E-03
(PID.TID 0000.0001) %MON trAdv_CFL_v_max              =   1.3942170007557E-03
(PID.TID 0000.0001) %MON trAdv_CFL_w_max              =   1.2339621509510E-03
(PID.TID 0000.0001) %MON advcfl_uvel_max              =   2.0538636533015E-03
(PID.TID 0000.0001) %MON advcfl_vvel_max              =   1.3853129174361E-03
(PID.TID 0000.0001) %MON advcfl_wvel_max              =   2.3001476474430E-03
(PID.TID 0000.0001) %MON advcfl_W_hf_max              =   1.2778797962703E-03
(PID.TID 0000.0001) %MON pe_b_mean                    =   4.9884602665628E-04
(PID.TID 0000.0001) %MON ke_max                       =   1.8399480883619E-01
(PID.TID 0000.0001) %MON ke_mean                      =   1.6416467990244E-04
(PID.TID 0000.0001) %MON ke_vol                       =   1.3398148677262E+18
(PID.TID 0000.0001) %MON vort_r_min                   =  -2.2915724032094E-06
(PID.TID 0000.0001) %MON vort_r_max                   =   2.7733039012364E-06
(PID.TID 0000.0001) %MON vort_a_mean                  =  -2.0549865324846E-05
(PID.TID 0000.0001) %MON vort_a_sd                    =   7.5259663769704E-05
(PID.TID 0000.0001) %MON vort_p_mean                  =  -2.4783234687353E-05
(PID.TID 0000.0001) %MON vort_p_sd                    =   1.2811921269580E-04
(PID.TID 0000.0001) %MON surfExpan_theta_mean         =  -4.6692037114595E-06
(PID.TID 0000.0001) %MON surfExpan_salt_mean          =   9.7448317091572E-07
(PID.TID 0000.0001) // =======================================================
(PID.TID 0000.0001) // End MONITOR dynamic field statistics
(PID.TID 0000.0001) // =======================================================
 cg2d: Sum(rhs),rhsMax =  -8.19247525733378E+01  3.62284404548627E+01
(PID.TID 0000.0001)      cg2d_init_res =   1.92180753919904E-01
(PID.TID 0000.0001)      cg2d_iters(min,last) =      -1      10
(PID.TID 0000.0001)      cg2d_last_res =   3.99189284964079E-08
(PID.TID 0000.0001) // =======================================================
(PID.TID 0000.0001) // Begin MONITOR dynamic field statistics
(PID.TID 0000.0001) // =======================================================
(PID.TID 0000.0001) %MON time_tsnumber                =                 72087
(PID.TID 0000.0001) %MON time_secondsf                =   6.4878300000000E+07
(PID.TID 0000.0001) %MON dynstat_eta_max              =   9.8330343321579E-01
(PID.TID 0000.0001) %MON dynstat_eta_min              =  -1.5569463765063E+00
(PID.TID 0000.0001) %MON dynstat_eta_mean             =   3.4487836486275E-02
(PID.TID 0000.0001) %MON dynstat_eta_sd               =   6.1087495080054E-01
(PID.TID 0000.0001) %MON dynstat_eta_del2             =   1.2836044352653E-03
(PID.TID 0000.0001) %MON dynstat_uvel_max             =   4.1111069160528E-01
(PID.TID 0000.0001) %MON dynstat_uvel_min             =  -7.0944720105317E-01
(PID.TID 0000.0001) %MON dynstat_uvel_mean            =  -4.7127910693863E-04
(PID.TID 0000.0001) %MON dynstat_uvel_sd              =   1.2906327546283E-02
(PID.TID 0000.0001) %MON dynstat_uvel_del2            =   8.5256760840641E-05
(PID.TID 0000.0001) %MON dynstat_vvel_max             =   3.3412203879011E-01
(PID.TID 0000.0001) %MON dynstat_vvel_min             =  -4.0767909918091E-01
(PID.TID 0000.0001) %MON dynstat_vvel_mean            =   1.5722515404491E-04
(PID.TID 0000.0001) %MON dynstat_vvel_sd              =   1.3724736927047E-02
(PID.TID 0000.0001) %MON dynstat_vvel_del2            =   8.8086773836704E-05
(PID.TID 0000.0001) %MON dynstat_wvel_max             =   1.0542477971996E-04
(PID.TID 0000.0001) %MON dynstat_wvel_min             =  -1.9209038917942E-04
(PID.TID 0000.0001) %MON dynstat_wvel_mean            =  -4.9507334350716E-08
(PID.TID 0000.0001) %MON dynstat_wvel_sd              =   7.5942596764341E-06
(PID.TID 0000.0001) %MON dynstat_wvel_del2            =   6.6120682087210E-08
(PID.TID 0000.0001) %MON dynstat_theta_max            =   3.0920002373935E+01
(PID.TID 0000.0001) %MON dynstat_theta_min            =  -3.0165926560994E+00
(PID.TID 0000.0001) %MON dynstat_theta_mean           =   3.9092146529167E+00
(PID.TID 0000.0001) %MON dynstat_theta_sd             =   4.5716867452840E+00
(PID.TID 0000.0001) %MON dynstat_theta_del2           =   2.6383250500994E-03
(PID.TID 0000.0001) %MON dynstat_salt_max             =   4.1346649331027E+01
(PID.TID 0000.0001) %MON dynstat_salt_min             =   1.8519253793320E+01
(PID.TID 0000.0001) %MON dynstat_salt_mean            =   3.4771892711298E+01
(PID.TID 0000.0001) %MON dynstat_salt_sd              =   5.3229283875137E-01
(PID.TID 0000.0001) %MON dynstat_salt_del2            =   1.1386674374806E-03
(PID.TID 0000.0001) %MON dynstat_sst_max              =   3.0920002373935E+01
(PID.TID 0000.0001) %MON dynstat_sst_min              =  -1.8981778583699E+00
(PID.TID 0000.0001) %MON dynstat_sst_mean             =   1.8109683220572E+01
(PID.TID 0000.0001) %MON dynstat_sst_sd               =   9.8143354802309E+00
(PID.TID 0000.0001) %MON dynstat_sst_del2             =   1.4968741975919E-02
(PID.TID 0000.0001) %MON dynstat_sss_max              =   4.1346649331027E+01
(PID.TID 0000.0001) %MON dynstat_sss_min              =   1.8752484166740E+01
(PID.TID 0000.0001) %MON dynstat_sss_mean             =   3.4619929966869E+01
(PID.TID 0000.0001) %MON dynstat_sss_sd               =   1.4911190623126E+00
(PID.TID 0000.0001) %MON dynstat_sss_del2             =   1.2928575699683E-02
(PID.TID 0000.0001) %MON forcing_qnet_max             =   1.4300285644531E+03
(PID.TID 0000.0001) %MON forcing_qnet_min             =  -8.4437696912657E+02
(PID.TID 0000.0001) %MON forcing_qnet_mean            =  -3.6817994779180E+01
(PID.TID 0000.0001) %MON forcing_qnet_sd              =   1.9065296585841E+02
(PID.TID 0000.0001) %MON forcing_qnet_del2            =   3.3097403127842E+00
(PID.TID 0000.0001) %MON forcing_qsw_max              =   0.0000000000000E+00
(PID.TID 0000.0001) %MON forcing_qsw_min              =  -1.0546472856447E+02
(PID.TID 0000.0001) %MON forcing_qsw_mean             =  -1.9535193943952E+01
(PID.TID 0000.0001) %MON forcing_qsw_sd               =   2.8478833214730E+01
(PID.TID 0000.0001) %MON forcing_qsw_del2             =   2.2721890880935E-01
(PID.TID 0000.0001) %MON forcing_empmr_max            =   4.5519596897066E-03
(PID.TID 0000.0001) %MON forcing_empmr_min            =  -6.5448746085167E-02
(PID.TID 0000.0001) %MON forcing_empmr_mean           =  -1.9981347703005E-04
(PID.TID 0000.0001) %MON forcing_empmr_sd             =   2.8860421003028E-03
(PID.TID 0000.0001) %MON forcing_empmr_del2           =   1.1355294617355E-04
(PID.TID 0000.0001) %MON forcing_fu_max               =   2.6372902284616E-01
(PID.TID 0000.0001) %MON forcing_fu_min               =  -3.3319828016035E-01
(PID.TID 0000.0001) %MON forcing_fu_mean              =  -4.7576081178597E-03
(PID.TID 0000.0001) %MON forcing_fu_sd                =   5.6772045186068E-02
(PID.TID 0000.0001) %MON forcing_fu_del2              =   5.6583091309773E-04
(PID.TID 0000.0001) %MON forcing_fv_max               =   2.7536820607716E-01
(PID.TID 0000.0001) %MON forcing_fv_min               =  -2.5595426693645E-01
(PID.TID 0000.0001) %MON forcing_fv_mean              =  -1.4895577921149E-02
(PID.TID 0000.0001) %MON forcing_fv_sd                =   6.0101992218929E-02
(PID.TID 0000.0001) %MON forcing_fv_del2              =   5.0689473736157E-04
(PID.TID 0000.0001) %MON trAdv_CFL_u_max              =   2.0579062280019E-03
(PID.TID 0000.0001) %MON trAdv_CFL_v_max              =   1.3372447587106E-03
(PID.TID 0000.0001) %MON trAdv_CFL_w_max              =   1.2578408119566E-03
(PID.TID 0000.0001) %MON advcfl_uvel_max              =   2.0466416917566E-03
(PID.TID 0000.0001) %MON advcfl_vvel_max              =   1.3304056098321E-03
(PID.TID 0000.0001) %MON advcfl_wvel_max              =   2.2764781247015E-03
(PID.TID 0000.0001) %MON advcfl_W_hf_max              =   1.2617273563887E-03
(PID.TID 0000.0001) %MON pe_b_mean                    =   4.9870887706976E-04
(PID.TID 0000.0001) %MON ke_max                       =   1.8794496105269E-01
(PID.TID 0000.0001) %MON ke_mean                      =   1.6403112156166E-04
(PID.TID 0000.0001) %MON ke_vol                       =   1.3398149318034E+18
(PID.TID 0000.0001) %MON vort_r_min                   =  -2.3003559924736E-06
(PID.TID 0000.0001) %MON vort_r_max                   =   2.7573581477908E-06
(PID.TID 0000.0001) %MON vort_a_mean                  =  -2.0549865324846E-05
(PID.TID 0000.0001) %MON vort_a_sd                    =   7.5259661185978E-05
(PID.TID 0000.0001) %MON vort_p_mean                  =  -2.4783233515772E-05
(PID.TID 0000.0001) %MON vort_p_sd                    =   1.2811921775586E-04
(PID.TID 0000.0001) %MON surfExpan_theta_mean         =  -4.5398474966827E-06
(PID.TID 0000.0001) %MON surfExpan_salt_mean          =   9.5144337092590E-07
(PID.TID 0000.0001) // =======================================================
(PID.TID 0000.0001) // End MONITOR dynamic field statistics
(PID.TID 0000.0001) // =======================================================
 Computing Diagnostic #     81  oceTAUX      Counter:       1   Parms: UU      U1      
           Vector  Mate for  oceTAUX      Diagnostic #     82  oceTAUY  exists 
 Computing Diagnostic #     82  oceTAUY      Counter:       1   Parms: VV      U1      
           Vector  Mate for  oceTAUY      Diagnostic #     81  oceTAUX  exists 
 Computing Diagnostic #     85  oceFWflx     Counter:       1   Parms: SM      U1      
 Computing Diagnostic #     86  oceSflux     Counter:       1   Parms: SM      U1      
 Computing Diagnostic #     87  oceQnet      Counter:       1   Parms: SM      U1      
 Computing Diagnostic #     88  oceQsw       Counter:       1   Parms: SM      U1      
 Computing Diagnostic #     27  SALT         Counter:       1   Parms: SMR     MR      
 Computing Diagnostic #     26  THETA        Counter:       1   Parms: SMR     MR      
 Computing Diagnostic #     45  UVELMASS     Counter:       1   Parms: UUr     MR      
           Vector  Mate for  UVELMASS     Diagnostic #     46  VVELMASS exists 
 Computing Diagnostic #     46  VVELMASS     Counter:       1   Parms: VVr     MR      
           Vector  Mate for  VVELMASS     Diagnostic #     45  UVELMASS exists 
 cg2d: Sum(rhs),rhsMax =  -8.23311564867274E+01  3.62290542149190E+01
(PID.TID 0000.0001)      cg2d_init_res =   1.90047826854587E-01
(PID.TID 0000.0001)      cg2d_iters(min,last) =      -1      10
(PID.TID 0000.0001)      cg2d_last_res =   3.93106783819287E-08
(PID.TID 0000.0001) // =======================================================
(PID.TID 0000.0001) // Begin MONITOR dynamic field statistics
(PID.TID 0000.0001) // =======================================================
(PID.TID 0000.0001) %MON time_tsnumber                =                 72088
(PID.TID 0000.0001) %MON time_secondsf                =   6.4879200000000E+07
(PID.TID 0000.0001) %MON dynstat_eta_max              =   9.8137512605609E-01
(PID.TID 0000.0001) %MON dynstat_eta_min              =  -1.5574116549778E+00
(PID.TID 0000.0001) %MON dynstat_eta_mean             =   3.4659507379923E-02
(PID.TID 0000.0001) %MON dynstat_eta_sd               =   6.1077381451033E-01
(PID.TID 0000.0001) %MON dynstat_eta_del2             =   1.2707837768324E-03
(PID.TID 0000.0001) %MON dynstat_uvel_max             =   4.0120007866674E-01
(PID.TID 0000.0001) %MON dynstat_uvel_min             =  -7.0466096827987E-01
(PID.TID 0000.0001) %MON dynstat_uvel_mean            =  -4.8149697034236E-04
(PID.TID 0000.0001) %MON dynstat_uvel_sd              =   1.2896784278520E-02
(PID.TID 0000.0001) %MON dynstat_uvel_del2            =   8.5387027105283E-05
(PID.TID 0000.0001) %MON dynstat_vvel_max             =   3.2983488745875E-01
(PID.TID 0000.0001) %MON dynstat_vvel_min             =  -3.8536163492102E-01
(PID.TID 0000.0001) %MON dynstat_vvel_mean            =   1.4787167793257E-04
(PID.TID 0000.0001) %MON dynstat_vvel_sd              =   1.3721705264739E-02
(PID.TID 0000.0001) %MON dynstat_vvel_del2            =   8.7597156953869E-05
(PID.TID 0000.0001) %MON dynstat_wvel_max             =   1.0566781475691E-04
(PID.TID 0000.0001) %MON dynstat_wvel_min             =  -1.9220975919526E-04
(PID.TID 0000.0001) %MON dynstat_wvel_mean            =  -4.7288635440008E-08
(PID.TID 0000.0001) %MON dynstat_wvel_sd              =   7.5886757395903E-06
(PID.TID 0000.0001) %MON dynstat_wvel_del2            =   6.5804639007249E-08
(PID.TID 0000.0001) %MON dynstat_theta_max            =   3.0919726664566E+01
(PID.TID 0000.0001) %MON dynstat_theta_min            =  -3.0171993653529E+00
(PID.TID 0000.0001) %MON dynstat_theta_mean           =   3.9092178708262E+00
(PID.TID 0000.0001) %MON dynstat_theta_sd             =   4.5716996008931E+00
(PID.TID 0000.0001) %MON dynstat_theta_del2           =   2.6382069371284E-03
(PID.TID 0000.0001) %MON dynstat_salt_max             =   4.1346643119587E+01
(PID.TID 0000.0001) %MON dynstat_salt_min             =   1.8519263863238E+01
(PID.TID 0000.0001) %MON dynstat_salt_mean            =   3.4771891248221E+01
(PID.TID 0000.0001) %MON dynstat_salt_sd              =   5.3230264104806E-01
(PID.TID 0000.0001) %MON dynstat_salt_del2            =   1.1406798480531E-03
(PID.TID 0000.0001) %MON dynstat_sst_max              =   3.0919726664566E+01
(PID.TID 0000.0001) %MON dynstat_sst_min              =  -1.8980416499034E+00
(PID.TID 0000.0001) %MON dynstat_sst_mean             =   1.8109832487285E+01
(PID.TID 0000.0001) %MON dynstat_sst_sd               =   9.8145009959434E+00
(PID.TID 0000.0001) %MON dynstat_sst_del2             =   1.4966679631574E-02
(PID.TID 0000.0001) %MON dynstat_sss_max              =   4.1346643119587E+01
(PID.TID 0000.0001) %MON dynstat_sss_min              =   1.8752498126261E+01
(PID.TID 0000.0001) %MON dynstat_sss_mean             =   3.4619818306980E+01
(PID.TID 0000.0001) %MON dynstat_sss_sd               =   1.4913625713612E+00
(PID.TID 0000.0001) %MON dynstat_sss_del2             =   1.2956615757082E-02
(PID.TID 0000.0001) %MON forcing_qnet_max             =   1.4142408447266E+03
(PID.TID 0000.0001) %MON forcing_qnet_min             =  -8.3429329255020E+02
(PID.TID 0000.0001) %MON forcing_qnet_mean            =  -3.6997565995275E+01
(PID.TID 0000.0001) %MON forcing_qnet_sd              =   1.9010324063902E+02
(PID.TID 0000.0001) %MON forcing_qnet_del2            =   3.1923710631753E+00
(PID.TID 0000.0001) %MON forcing_qsw_max              =   0.0000000000000E+00
(PID.TID 0000.0001) %MON forcing_qsw_min              =  -1.0579707172072E+02
(PID.TID 0000.0001) %MON forcing_qsw_mean             =  -1.9634533326122E+01
(PID.TID 0000.0001) %MON forcing_qsw_sd               =   2.8618089797698E+01
(PID.TID 0000.0001) %MON forcing_qsw_del2             =   2.2678935219487E-01
(PID.TID 0000.0001) %MON forcing_empmr_max            =   4.5050214976072E-03
(PID.TID 0000.0001) %MON forcing_empmr_min            =  -6.4774960279465E-02
(PID.TID 0000.0001) %MON forcing_empmr_mean           =  -1.9742152769493E-04
(PID.TID 0000.0001) %MON forcing_empmr_sd             =   2.8561213503725E-03
(PID.TID 0000.0001) %MON forcing_empmr_del2           =   1.1234794350847E-04
(PID.TID 0000.0001) %MON forcing_fu_max               =   2.6066595641982E-01
(PID.TID 0000.0001) %MON forcing_fu_min               =  -3.3268083005831E-01
(PID.TID 0000.0001) %MON forcing_fu_mean              =  -4.8492727508120E-03
(PID.TID 0000.0001) %MON forcing_fu_sd                =   5.6447925037434E-02
(PID.TID 0000.0001) %MON forcing_fu_del2              =   5.6313081575165E-04
(PID.TID 0000.0001) %MON forcing_fv_max               =   2.7028103973426E-01
(PID.TID 0000.0001) %MON forcing_fv_min               =  -2.5667545925910E-01
(PID.TID 0000.0001) %MON forcing_fv_mean              =  -1.4909795732754E-02
(PID.TID 0000.0001) %MON forcing_fv_sd                =   5.9926507364498E-02
(PID.TID 0000.0001) %MON forcing_fv_del2              =   5.0495752102868E-04
(PID.TID 0000.0001) %MON trAdv_CFL_u_max              =   2.0455548673860E-03
(PID.TID 0000.0001) %MON trAdv_CFL_v_max              =   1.2619215404842E-03
(PID.TID 0000.0001) %MON trAdv_CFL_w_max              =   1.2738807078583E-03
(PID.TID 0000.0001) %MON advcfl_uvel_max              =   2.0328341758122E-03
(PID.TID 0000.0001) %MON advcfl_vvel_max              =   1.2575755832052E-03
(PID.TID 0000.0001) %MON advcfl_wvel_max              =   2.2530420966770E-03
(PID.TID 0000.0001) %MON advcfl_W_hf_max              =   1.2738807078583E-03
(PID.TID 0000.0001) %MON pe_b_mean                    =   4.9856007328382E-04
(PID.TID 0000.0001) %MON ke_max                       =   1.9089277113446E-01
(PID.TID 0000.0001) %MON ke_mean                      =   1.6388255644942E-04
(PID.TID 0000.0001) %MON ke_vol                       =   1.3398149950291E+18
(PID.TID 0000.0001) %MON vort_r_min                   =  -2.3380018977404E-06
(PID.TID 0000.0001) %MON vort_r_max                   =   2.7317314245700E-06
(PID.TID 0000.0001) %MON vort_a_mean                  =  -2.0549865324846E-05
(PID.TID 0000.0001) %MON vort_a_sd                    =   7.5259659040059E-05
(PID.TID 0000.0001) %MON vort_p_mean                  =  -2.4783232370485E-05
(PID.TID 0000.0001) %MON vort_p_sd                    =   1.2811922284210E-04
(PID.TID 0000.0001) %MON surfExpan_theta_mean         =  -4.4179074513065E-06
(PID.TID 0000.0001) %MON surfExpan_salt_mean          =   9.2898996589068E-07
(PID.TID 0000.0001) // =======================================================
(PID.TID 0000.0001) // End MONITOR dynamic field statistics
(PID.TID 0000.0001) // =======================================================
 cg2d: Sum(rhs),rhsMax =  -8.27278989655471E+01  3.62327711449120E+01
(PID.TID 0000.0001)      cg2d_init_res =   1.87254950992134E-01
(PID.TID 0000.0001)      cg2d_iters(min,last) =      -1      10
(PID.TID 0000.0001)      cg2d_last_res =   3.96580015984472E-08
(PID.TID 0000.0001) // =======================================================
(PID.TID 0000.0001) // Begin MONITOR dynamic field statistics
(PID.TID 0000.0001) // =======================================================
(PID.TID 0000.0001) %MON time_tsnumber                =                 72089
(PID.TID 0000.0001) %MON time_secondsf                =   6.4880100000000E+07
(PID.TID 0000.0001) %MON dynstat_eta_max              =   9.7897602120796E-01
(PID.TID 0000.0001) %MON dynstat_eta_min              =  -1.5580019278106E+00
(PID.TID 0000.0001) %MON dynstat_eta_mean             =   3.4830099799179E-02
(PID.TID 0000.0001) %MON dynstat_eta_sd               =   6.1066333550553E-01
(PID.TID 0000.0001) %MON dynstat_eta_del2             =   1.2654200792514E-03
(PID.TID 0000.0001) %MON dynstat_uvel_max             =   3.8914367672733E-01
(PID.TID 0000.0001) %MON dynstat_uvel_min             =  -6.9758337004555E-01
(PID.TID 0000.0001) %MON dynstat_uvel_mean            =  -4.9087449793390E-04
(PID.TID 0000.0001) %MON dynstat_uvel_sd              =   1.2888074773580E-02
(PID.TID 0000.0001) %MON dynstat_uvel_del2            =   8.5489919417695E-05
(PID.TID 0000.0001) %MON dynstat_vvel_max             =   3.2173013497855E-01
(PID.TID 0000.0001) %MON dynstat_vvel_min             =  -3.5808193928422E-01
(PID.TID 0000.0001) %MON dynstat_vvel_mean            =   1.4067954155884E-04
(PID.TID 0000.0001) %MON dynstat_vvel_sd              =   1.3717027556017E-02
(PID.TID 0000.0001) %MON dynstat_vvel_del2            =   8.7035765548563E-05
(PID.TID 0000.0001) %MON dynstat_wvel_max             =   1.0591188704134E-04
(PID.TID 0000.0001) %MON dynstat_wvel_min             =  -1.9234395259687E-04
(PID.TID 0000.0001) %MON dynstat_wvel_mean            =  -4.6258026347790E-08
(PID.TID 0000.0001) %MON dynstat_wvel_sd              =   7.5853835263587E-06
(PID.TID 0000.0001) %MON dynstat_wvel_del2            =   6.5501122335207E-08
(PID.TID 0000.0001) %MON dynstat_theta_max            =   3.0919443184994E+01
(PID.TID 0000.0001) %MON dynstat_theta_min            =  -3.0178185137312E+00
(PID.TID 0000.0001) %MON dynstat_theta_mean           =   3.9092212047008E+00
(PID.TID 0000.0001) %MON dynstat_theta_sd             =   4.5717130365364E+00
(PID.TID 0000.0001) %MON dynstat_theta_del2           =   2.6380842880414E-03
(PID.TID 0000.0001) %MON dynstat_salt_max             =   4.1346646191393E+01
(PID.TID 0000.0001) %MON dynstat_salt_min             =   1.8519273942778E+01
(PID.TID 0000.0001) %MON dynstat_salt_mean            =   3.4771889798912E+01
(PID.TID 0000.0001) %MON dynstat_salt_sd              =   5.3231229528742E-01
(PID.TID 0000.0001) %MON dynstat_salt_del2            =   1.1426453021438E-03
(PID.TID 0000.0001) %MON dynstat_sst_max              =   3.0919443184994E+01
(PID.TID 0000.0001) %MON dynstat_sst_min              =  -1.8979063744282E+00
(PID.TID 0000.0001) %MON dynstat_sst_mean             =   1.8109991948348E+01
(PID.TID 0000.0001) %MON dynstat_sst_sd               =   9.8146727672816E+00
(PID.TID 0000.0001) %MON dynstat_sst_del2             =   1.4964499376203E-02
(PID.TID 0000.0001) %MON dynstat_sss_max              =   4.1346646191393E+01
(PID.TID 0000.0001) %MON dynstat_sss_min              =   1.8752511836225E+01
(PID.TID 0000.0001) %MON dynstat_sss_mean             =   3.4619708003104E+01
(PID.TID 0000.0001) %MON dynstat_sss_sd               =   1.4916017430246E+00
(PID.TID 0000.0001) %MON dynstat_sss_del2             =   1.2983992928410E-02
(PID.TID 0000.0001) %MON forcing_qnet_max             =   1.3986401367188E+03
(PID.TID 0000.0001) %MON forcing_qnet_min             =  -8.2390595110692E+02
(PID.TID 0000.0001) %MON forcing_qnet_mean            =  -3.8957476760238E+01
(PID.TID 0000.0001) %MON forcing_qnet_sd              =   1.9325582811719E+02
(PID.TID 0000.0001) %MON forcing_qnet_del2            =   3.2768198272643E+00
(PID.TID 0000.0001) %MON forcing_qsw_max              =   0.0000000000000E+00
(PID.TID 0000.0001) %MON forcing_qsw_min              =  -1.0634395764662E+02
(PID.TID 0000.0001) %MON forcing_qsw_mean             =  -2.0067679752818E+01
(PID.TID 0000.0001) %MON forcing_qsw_sd               =   2.9126689482131E+01
(PID.TID 0000.0001) %MON forcing_qsw_del2             =   2.2854578721283E-01
(PID.TID 0000.0001) %MON forcing_empmr_max            =   4.4585750438273E-03
(PID.TID 0000.0001) %MON forcing_empmr_min            =  -6.4107887446880E-02
(PID.TID 0000.0001) %MON forcing_empmr_mean           =  -1.9618128214456E-04
(PID.TID 0000.0001) %MON forcing_empmr_sd             =   2.8269089727409E-03
(PID.TID 0000.0001) %MON forcing_empmr_del2           =   1.1117535454041E-04
(PID.TID 0000.0001) %MON forcing_fu_max               =   2.5629986465171E-01
(PID.TID 0000.0001) %MON forcing_fu_min               =  -3.3153208953061E-01
(PID.TID 0000.0001) %MON forcing_fu_mean              =  -4.9628353571541E-03
(PID.TID 0000.0001) %MON forcing_fu_sd                =   5.6043377479266E-02
(PID.TID 0000.0001) %MON forcing_fu_del2              =   5.5973930100469E-04
(PID.TID 0000.0001) %MON forcing_fv_max               =   2.6424400023011E-01
(PID.TID 0000.0001) %MON forcing_fv_min               =  -2.5620259471883E-01
(PID.TID 0000.0001) %MON forcing_fv_mean              =  -1.4920771395200E-02
(PID.TID 0000.0001) %MON forcing_fv_sd                =   5.9723086515249E-02
(PID.TID 0000.0001) %MON forcing_fv_del2              =   5.0286168258326E-04
(PID.TID 0000.0001) %MON trAdv_CFL_u_max              =   2.0265609949390E-03
(PID.TID 0000.0001) %MON trAdv_CFL_v_max              =   1.1702466517923E-03
(PID.TID 0000.0001) %MON trAdv_CFL_w_max              =   1.2827791827861E-03
(PID.TID 0000.0001) %MON advcfl_uvel_max              =   2.0124164370399E-03
(PID.TID 0000.0001) %MON advcfl_vvel_max              =   1.1745173144367E-03
(PID.TID 0000.0001) %MON advcfl_wvel_max              =   2.2298395633698E-03
(PID.TID 0000.0001) %MON advcfl_W_hf_max              =   1.2827791827861E-03
(PID.TID 0000.0001) %MON pe_b_mean                    =   4.9839607460669E-04
(PID.TID 0000.0001) %MON ke_max                       =   1.9278447782057E-01
(PID.TID 0000.0001) %MON ke_mean                      =   1.6372307925676E-04
(PID.TID 0000.0001) %MON ke_vol                       =   1.3398150574978E+18
(PID.TID 0000.0001) %MON vort_r_min                   =  -2.3793733908774E-06
(PID.TID 0000.0001) %MON vort_r_max                   =   2.6966827713753E-06
(PID.TID 0000.0001) %MON vort_a_mean                  =  -2.0549865324846E-05
(PID.TID 0000.0001) %MON vort_a_sd                    =   7.5259657337453E-05
(PID.TID 0000.0001) %MON vort_p_mean                  =  -2.4783231246856E-05
(PID.TID 0000.0001) %MON vort_p_sd                    =   1.2811922766707E-04
(PID.TID 0000.0001) %MON surfExpan_theta_mean         =  -4.3256052055370E-06
(PID.TID 0000.0001) %MON surfExpan_salt_mean          =   9.0732957077319E-07
(PID.TID 0000.0001) // =======================================================
(PID.TID 0000.0001) // End MONITOR dynamic field statistics
(PID.TID 0000.0001) // =======================================================
 cg2d: Sum(rhs),rhsMax =  -8.31106371013887E+01  3.62402017319163E+01
(PID.TID 0000.0001)      cg2d_init_res =   1.83852899194771E-01
(PID.TID 0000.0001)      cg2d_iters(min,last) =      -1      10
(PID.TID 0000.0001)      cg2d_last_res =   3.93015452451972E-08
(PID.TID 0000.0001) // =======================================================
(PID.TID 0000.0001) // Begin MONITOR dynamic field statistics
(PID.TID 0000.0001) // =======================================================
(PID.TID 0000.0001) %MON time_tsnumber                =                 72090
(PID.TID 0000.0001) %MON time_secondsf                =   6.4881000000000E+07
(PID.TID 0000.0001) %MON dynstat_eta_max              =   9.7608085906000E-01
(PID.TID 0000.0001) %MON dynstat_eta_min              =  -1.5587222567281E+00
(PID.TID 0000.0001) %MON dynstat_eta_mean             =   3.4998416182955E-02
(PID.TID 0000.0001) %MON dynstat_eta_sd               =   6.1053924077695E-01
(PID.TID 0000.0001) %MON dynstat_eta_del2             =   1.2662371845939E-03
(PID.TID 0000.0001) %MON dynstat_uvel_max             =   3.7539262235362E-01
(PID.TID 0000.0001) %MON dynstat_uvel_min             =  -6.8822357636129E-01
(PID.TID 0000.0001) %MON dynstat_uvel_mean            =  -4.9944359609295E-04
(PID.TID 0000.0001) %MON dynstat_uvel_sd              =   1.2880304140765E-02
(PID.TID 0000.0001) %MON dynstat_uvel_del2            =   8.5559925057835E-05
(PID.TID 0000.0001) %MON dynstat_vvel_max             =   3.1006392979949E-01
(PID.TID 0000.0001) %MON dynstat_vvel_min             =  -3.4192699689228E-01
(PID.TID 0000.0001) %MON dynstat_vvel_mean            =   1.3568612769694E-04
(PID.TID 0000.0001) %MON dynstat_vvel_sd              =   1.3711168238715E-02
(PID.TID 0000.0001) %MON dynstat_vvel_del2            =   8.6454256550063E-05
(PID.TID 0000.0001) %MON dynstat_wvel_max             =   1.0616011681575E-04
(PID.TID 0000.0001) %MON dynstat_wvel_min             =  -1.9248028214123E-04
(PID.TID 0000.0001) %MON dynstat_wvel_mean            =  -4.4803159334283E-08
(PID.TID 0000.0001) %MON dynstat_wvel_sd              =   7.5850230952470E-06
(PID.TID 0000.0001) %MON dynstat_wvel_del2            =   6.5211987123579E-08
(PID.TID 0000.0001) %MON dynstat_theta_max            =   3.0919150686214E+01
(PID.TID 0000.0001) %MON dynstat_theta_min            =  -3.0184508911709E+00
(PID.TID 0000.0001) %MON dynstat_theta_mean           =   3.9092245993907E+00
(PID.TID 0000.0001) %MON dynstat_theta_sd             =   4.5717268586041E+00
(PID.TID 0000.0001) %MON dynstat_theta_del2           =   2.6379569402127E-03
(PID.TID 0000.0001) %MON dynstat_salt_max             =   4.1346659885441E+01
(PID.TID 0000.0001) %MON dynstat_salt_min             =   1.8519284031490E+01
(PID.TID 0000.0001) %MON dynstat_salt_mean            =   3.4771888378510E+01
(PID.TID 0000.0001) %MON dynstat_salt_sd              =   5.3232179657376E-01
(PID.TID 0000.0001) %MON dynstat_salt_del2            =   1.1445639087151E-03
(PID.TID 0000.0001) %MON dynstat_sst_max              =   3.0919150686214E+01
(PID.TID 0000.0001) %MON dynstat_sst_min              =  -1.8977738397326E+00
(PID.TID 0000.0001) %MON dynstat_sst_mean             =   1.8110156808548E+01
(PID.TID 0000.0001) %MON dynstat_sst_sd               =   9.8148492949898E+00
(PID.TID 0000.0001) %MON dynstat_sst_del2             =   1.4962281619036E-02
(PID.TID 0000.0001) %MON dynstat_sss_max              =   4.1346659885441E+01
(PID.TID 0000.0001) %MON dynstat_sss_min              =   1.8752525375463E+01
(PID.TID 0000.0001) %MON dynstat_sss_mean             =   3.4619599429456E+01
(PID.TID 0000.0001) %MON dynstat_sss_sd               =   1.4918366824054E+00
(PID.TID 0000.0001) %MON dynstat_sss_del2             =   1.3010728393570E-02
(PID.TID 0000.0001) %MON forcing_qnet_max             =   1.3823957519531E+03
(PID.TID 0000.0001) %MON forcing_qnet_min             =  -8.1289151068794E+02
(PID.TID 0000.0001) %MON forcing_qnet_mean            =  -4.0257636776891E+01
(PID.TID 0000.0001) %MON forcing_qnet_sd              =   1.9400370095108E+02
(PID.TID 0000.0001) %MON forcing_qnet_del2            =   3.1485927016024E+00
(PID.TID 0000.0001) %MON forcing_qsw_max              =   0.0000000000000E+00
(PID.TID 0000.0001) %MON forcing_qsw_min              =  -1.0659089869602E+02
(PID.TID 0000.0001) %MON forcing_qsw_mean             =  -2.0292235823949E+01
(PID.TID 0000.0001) %MON forcing_qsw_sd               =   2.9356915549693E+01
(PID.TID 0000.0001) %MON forcing_qsw_del2             =   2.2990073919907E-01
(PID.TID 0000.0001) %MON forcing_empmr_max            =   4.4127185828984E-03
(PID.TID 0000.0001) %MON forcing_empmr_min            =  -6.3448362052441E-02
(PID.TID 0000.0001) %MON forcing_empmr_mean           =  -1.9356384134287E-04
(PID.TID 0000.0001) %MON forcing_empmr_sd             =   2.7973578213029E-03
(PID.TID 0000.0001) %MON forcing_empmr_del2           =   1.0998664355375E-04
(PID.TID 0000.0001) %MON forcing_fu_max               =   2.5283153018515E-01
(PID.TID 0000.0001) %MON forcing_fu_min               =  -3.3196907585667E-01
(PID.TID 0000.0001) %MON forcing_fu_mean              =  -5.0910564188017E-03
(PID.TID 0000.0001) %MON forcing_fu_sd                =   5.5900257039733E-02
(PID.TID 0000.0001) %MON forcing_fu_del2              =   5.5920983004831E-04
(PID.TID 0000.0001) %MON forcing_fv_max               =   2.6130023970416E-01
(PID.TID 0000.0001) %MON forcing_fv_min               =  -2.5511818700996E-01
(PID.TID 0000.0001) %MON forcing_fv_mean              =  -1.4928705650309E-02
(PID.TID 0000.0001) %MON forcing_fv_sd                =   5.9532274309457E-02
(PID.TID 0000.0001) %MON forcing_fv_del2              =   5.0123932774812E-04
(PID.TID 0000.0001) %MON trAdv_CFL_u_max              =   2.0009249556977E-03
(PID.TID 0000.0001) %MON trAdv_CFL_v_max              =   1.1617421180086E-03
(PID.TID 0000.0001) %MON trAdv_CFL_w_max              =   1.2853418098285E-03
(PID.TID 0000.0001) %MON advcfl_uvel_max              =   1.9854149294548E-03
(PID.TID 0000.0001) %MON advcfl_vvel_max              =   1.1663727910337E-03
(PID.TID 0000.0001) %MON advcfl_wvel_max              =   2.2068995496501E-03
(PID.TID 0000.0001) %MON advcfl_W_hf_max              =   1.2853418098285E-03
(PID.TID 0000.0001) %MON pe_b_mean                    =   4.9820982514048E-04
(PID.TID 0000.0001) %MON ke_max                       =   1.9358350616962E-01
(PID.TID 0000.0001) %MON ke_mean                      =   1.6355979818364E-04
(PID.TID 0000.0001) %MON ke_vol                       =   1.3398151195741E+18
(PID.TID 0000.0001) %MON vort_r_min                   =  -2.4270975767959E-06
(PID.TID 0000.0001) %MON vort_r_max                   =   2.6525413183125E-06
(PID.TID 0000.0001) %MON vort_a_mean                  =  -2.0549865324846E-05
(PID.TID 0000.0001) %MON vort_a_sd                    =   7.5259656081211E-05
(PID.TID 0000.0001) %MON vort_p_mean                  =  -2.4783230137024E-05
(PID.TID 0000.0001) %MON vort_p_sd                    =   1.2811923196248E-04
(PID.TID 0000.0001) %MON surfExpan_theta_mean         =  -4.2016924483233E-06
(PID.TID 0000.0001) %MON surfExpan_salt_mean          =   8.8569205379195E-07
(PID.TID 0000.0001) // =======================================================
(PID.TID 0000.0001) // End MONITOR dynamic field statistics
(PID.TID 0000.0001) // =======================================================
 cg2d: Sum(rhs),rhsMax =  -8.34798797959243E+01  3.62516740884588E+01
(PID.TID 0000.0001)      cg2d_init_res =   1.79969102023019E-01
(PID.TID 0000.0001)      cg2d_iters(min,last) =      -1      10
(PID.TID 0000.0001)      cg2d_last_res =   3.83050695150872E-08
(PID.TID 0000.0001) // =======================================================
(PID.TID 0000.0001) // Begin MONITOR dynamic field statistics
(PID.TID 0000.0001) // =======================================================
(PID.TID 0000.0001) %MON time_tsnumber                =                 72091
(PID.TID 0000.0001) %MON time_secondsf                =   6.4881900000000E+07
(PID.TID 0000.0001) %MON dynstat_eta_max              =   9.7277888444640E-01
(PID.TID 0000.0001) %MON dynstat_eta_min              =  -1.5595826854445E+00
(PID.TID 0000.0001) %MON dynstat_eta_mean             =   3.5165035096744E-02
(PID.TID 0000.0001) %MON dynstat_eta_sd               =   6.1039815067107E-01
(PID.TID 0000.0001) %MON dynstat_eta_del2             =   1.2716138334839E-03
(PID.TID 0000.0001) %MON dynstat_uvel_max             =   3.6042572602078E-01
(PID.TID 0000.0001) %MON dynstat_uvel_min             =  -6.7656798209204E-01
(PID.TID 0000.0001) %MON dynstat_uvel_mean            =  -5.0723756022512E-04
(PID.TID 0000.0001) %MON dynstat_uvel_sd              =   1.2873376410887E-02
(PID.TID 0000.0001) %MON dynstat_uvel_del2            =   8.5593053288341E-05
(PID.TID 0000.0001) %MON dynstat_vvel_max             =   2.9513549131569E-01
(PID.TID 0000.0001) %MON dynstat_vvel_min             =  -3.4359627145639E-01
(PID.TID 0000.0001) %MON dynstat_vvel_mean            =   1.3290599580486E-04
(PID.TID 0000.0001) %MON dynstat_vvel_sd              =   1.3704575838351E-02
(PID.TID 0000.0001) %MON dynstat_vvel_del2            =   8.5902824536343E-05
(PID.TID 0000.0001) %MON dynstat_wvel_max             =   1.0640747029900E-04
(PID.TID 0000.0001) %MON dynstat_wvel_min             =  -1.9261921957171E-04
(PID.TID 0000.0001) %MON dynstat_wvel_mean            =  -4.4016687759331E-08
(PID.TID 0000.0001) %MON dynstat_wvel_sd              =   7.5873990115766E-06
(PID.TID 0000.0001) %MON dynstat_wvel_del2            =   6.4943280900615E-08
(PID.TID 0000.0001) %MON dynstat_theta_max            =   3.0918850266167E+01
(PID.TID 0000.0001) %MON dynstat_theta_min            =  -3.0190971026324E+00
(PID.TID 0000.0001) %MON dynstat_theta_mean           =   3.9092280358273E+00
(PID.TID 0000.0001) %MON dynstat_theta_sd             =   4.5717409441484E+00
(PID.TID 0000.0001) %MON dynstat_theta_del2           =   2.6378327034662E-03
(PID.TID 0000.0001) %MON dynstat_salt_max             =   4.1346685394809E+01
(PID.TID 0000.0001) %MON dynstat_salt_min             =   1.8519294128786E+01
(PID.TID 0000.0001) %MON dynstat_salt_mean            =   3.4771886981846E+01
(PID.TID 0000.0001) %MON dynstat_salt_sd              =   5.3233114396711E-01
(PID.TID 0000.0001) %MON dynstat_salt_del2            =   1.1464413895439E-03
(PID.TID 0000.0001) %MON dynstat_sst_max              =   3.0918850266167E+01
(PID.TID 0000.0001) %MON dynstat_sst_min              =  -1.8976457151063E+00
(PID.TID 0000.0001) %MON dynstat_sst_mean             =   1.8110327569229E+01
(PID.TID 0000.0001) %MON dynstat_sst_sd               =   9.8150298892088E+00
(PID.TID 0000.0001) %MON dynstat_sst_del2             =   1.4960046602731E-02
(PID.TID 0000.0001) %MON dynstat_sss_max              =   4.1346685394809E+01
(PID.TID 0000.0001) %MON dynstat_sss_min              =   1.8752538747125E+01
(PID.TID 0000.0001) %MON dynstat_sss_mean             =   3.4619493261043E+01
(PID.TID 0000.0001) %MON dynstat_sss_sd               =   1.4920672215757E+00
(PID.TID 0000.0001) %MON dynstat_sss_del2             =   1.3036867760990E-02
(PID.TID 0000.0001) %MON forcing_qnet_max             =   1.3671695556641E+03
(PID.TID 0000.0001) %MON forcing_qnet_min             =  -8.0260558535197E+02
(PID.TID 0000.0001) %MON forcing_qnet_mean            =  -4.1080670774529E+01
(PID.TID 0000.0001) %MON forcing_qnet_sd              =   1.9620324855502E+02
(PID.TID 0000.0001) %MON forcing_qnet_del2            =   3.2341371715797E+00
(PID.TID 0000.0001) %MON forcing_qsw_max              =   0.0000000000000E+00
(PID.TID 0000.0001) %MON forcing_qsw_min              =  -1.0640868914214E+02
(PID.TID 0000.0001) %MON forcing_qsw_mean             =  -2.0472700977271E+01
(PID.TID 0000.0001) %MON forcing_qsw_sd               =   2.9538096124108E+01
(PID.TID 0000.0001) %MON forcing_qsw_del2             =   2.3092638311455E-01
(PID.TID 0000.0001) %MON forcing_empmr_max            =   4.3672560714185E-03
(PID.TID 0000.0001) %MON forcing_empmr_min            =  -6.2795557081699E-02
(PID.TID 0000.0001) %MON forcing_empmr_mean           =  -1.9161175085703E-04
(PID.TID 0000.0001) %MON forcing_empmr_sd             =   2.7688798982463E-03
(PID.TID 0000.0001) %MON forcing_empmr_del2           =   1.0881857280612E-04
(PID.TID 0000.0001) %MON forcing_fu_max               =   2.4991557777463E-01
(PID.TID 0000.0001) %MON forcing_fu_min               =  -3.3276029617211E-01
(PID.TID 0000.0001) %MON forcing_fu_mean              =  -5.2045163727698E-03
(PID.TID 0000.0001) %MON forcing_fu_sd                =   5.5810944394136E-02
(PID.TID 0000.0001) %MON forcing_fu_del2              =   5.5876117149729E-04
(PID.TID 0000.0001) %MON forcing_fv_max               =   2.5925882684996E-01
(PID.TID 0000.0001) %MON forcing_fv_min               =  -2.5485567128136E-01
(PID.TID 0000.0001) %MON forcing_fv_mean              =  -1.4914029244644E-02
(PID.TID 0000.0001) %MON forcing_fv_sd                =   5.9363174828034E-02
(PID.TID 0000.0001) %MON forcing_fv_del2              =   4.9960923383856E-04
(PID.TID 0000.0001) %MON trAdv_CFL_u_max              =   1.9685799840374E-03
(PID.TID 0000.0001) %MON trAdv_CFL_v_max              =   1.1523490259098E-03
(PID.TID 0000.0001) %MON trAdv_CFL_w_max              =   1.2824596405643E-03
(PID.TID 0000.0001) %MON advcfl_uvel_max              =   1.9517904044186E-03
(PID.TID 0000.0001) %MON advcfl_vvel_max              =   1.1561460142866E-03
(PID.TID 0000.0001) %MON advcfl_wvel_max              =   2.1841932897982E-03
(PID.TID 0000.0001) %MON advcfl_W_hf_max              =   1.2824596405643E-03
(PID.TID 0000.0001) %MON pe_b_mean                    =   4.9799589331749E-04
(PID.TID 0000.0001) %MON ke_max                       =   1.9324941429896E-01
(PID.TID 0000.0001) %MON ke_mean                      =   1.6339724817979E-04
(PID.TID 0000.0001) %MON ke_vol                       =   1.3398151808222E+18
(PID.TID 0000.0001) %MON vort_r_min                   =  -2.4738454190995E-06
(PID.TID 0000.0001) %MON vort_r_max                   =   2.5996279889466E-06
(PID.TID 0000.0001) %MON vort_a_mean                  =  -2.0549865324846E-05
(PID.TID 0000.0001) %MON vort_a_sd                    =   7.5259655259384E-05
(PID.TID 0000.0001) %MON vort_p_mean                  =  -2.4783229048686E-05
(PID.TID 0000.0001) %MON vort_p_sd                    =   1.2811923554233E-04
(PID.TID 0000.0001) %MON surfExpan_theta_mean         =  -4.0922421588203E-06
(PID.TID 0000.0001) %MON surfExpan_salt_mean          =   8.6474495533532E-07
(PID.TID 0000.0001) // =======================================================
(PID.TID 0000.0001) // End MONITOR dynamic field statistics
(PID.TID 0000.0001) // =======================================================
 Computing Diagnostic #     81  oceTAUX      Counter:       1   Parms: UU      U1      
           Vector  Mate for  oceTAUX      Diagnostic #     82  oceTAUY  exists 
 Computing Diagnostic #     82  oceTAUY      Counter:       1   Parms: VV      U1      
           Vector  Mate for  oceTAUY      Diagnostic #     81  oceTAUX  exists 
 Computing Diagnostic #     85  oceFWflx     Counter:       1   Parms: SM      U1      
 Computing Diagnostic #     86  oceSflux     Counter:       1   Parms: SM      U1      
 Computing Diagnostic #     87  oceQnet      Counter:       1   Parms: SM      U1      
 Computing Diagnostic #     88  oceQsw       Counter:       1   Parms: SM      U1      
 Computing Diagnostic #     27  SALT         Counter:       1   Parms: SMR     MR      
 Computing Diagnostic #     26  THETA        Counter:       1   Parms: SMR     MR      
 Computing Diagnostic #     45  UVELMASS     Counter:       1   Parms: UUr     MR      
           Vector  Mate for  UVELMASS     Diagnostic #     46  VVELMASS exists 
 Computing Diagnostic #     46  VVELMASS     Counter:       1   Parms: VVr     MR      
           Vector  Mate for  VVELMASS     Diagnostic #     45  UVELMASS exists 
 cg2d: Sum(rhs),rhsMax =  -8.38351671113471E+01  3.62670357265677E+01
(PID.TID 0000.0001)      cg2d_init_res =   1.75715263838554E-01
(PID.TID 0000.0001)      cg2d_iters(min,last) =      -1      10
(PID.TID 0000.0001)      cg2d_last_res =   3.70140125680786E-08
(PID.TID 0000.0001) // =======================================================
(PID.TID 0000.0001) // Begin MONITOR dynamic field statistics
(PID.TID 0000.0001) // =======================================================
(PID.TID 0000.0001) %MON time_tsnumber                =                 72092
(PID.TID 0000.0001) %MON time_secondsf                =   6.4882800000000E+07
(PID.TID 0000.0001) %MON dynstat_eta_max              =   9.6912565415023E-01
(PID.TID 0000.0001) %MON dynstat_eta_min              =  -1.5605906277170E+00
(PID.TID 0000.0001) %MON dynstat_eta_mean             =   3.5329660794032E-02
(PID.TID 0000.0001) %MON dynstat_eta_sd               =   6.1023668056241E-01
(PID.TID 0000.0001) %MON dynstat_eta_del2             =   1.2797747321007E-03
(PID.TID 0000.0001) %MON dynstat_uvel_max             =   3.4473575808758E-01
(PID.TID 0000.0001) %MON dynstat_uvel_min             =  -6.6268648410368E-01
(PID.TID 0000.0001) %MON dynstat_uvel_mean            =  -5.1429240677368E-04
(PID.TID 0000.0001) %MON dynstat_uvel_sd              =   1.2867073476071E-02
(PID.TID 0000.0001) %MON dynstat_uvel_del2            =   8.5587372653212E-05
(PID.TID 0000.0001) %MON dynstat_vvel_max             =   3.0408077208351E-01
(PID.TID 0000.0001) %MON dynstat_vvel_min             =  -3.4524949708748E-01
(PID.TID 0000.0001) %MON dynstat_vvel_mean            =   1.3231107679175E-04
(PID.TID 0000.0001) %MON dynstat_vvel_sd              =   1.3697840280167E-02
(PID.TID 0000.0001) %MON dynstat_vvel_del2            =   8.5426916191007E-05
(PID.TID 0000.0001) %MON dynstat_wvel_max             =   1.0664509638899E-04
(PID.TID 0000.0001) %MON dynstat_wvel_min             =  -1.9276442458308E-04
(PID.TID 0000.0001) %MON dynstat_wvel_mean            =  -4.3368767077618E-08
(PID.TID 0000.0001) %MON dynstat_wvel_sd              =   7.5922761622857E-06
(PID.TID 0000.0001) %MON dynstat_wvel_del2            =   6.4696685390418E-08
(PID.TID 0000.0001) %MON dynstat_theta_max            =   3.0918541871201E+01
(PID.TID 0000.0001) %MON dynstat_theta_min            =  -3.0197577488772E+00
(PID.TID 0000.0001) %MON dynstat_theta_mean           =   3.9092315160515E+00
(PID.TID 0000.0001) %MON dynstat_theta_sd             =   4.5717553267516E+00
(PID.TID 0000.0001) %MON dynstat_theta_del2           =   2.6377076887365E-03
(PID.TID 0000.0001) %MON dynstat_salt_max             =   4.1346724259380E+01
(PID.TID 0000.0001) %MON dynstat_salt_min             =   1.8519304233996E+01
(PID.TID 0000.0001) %MON dynstat_salt_mean            =   3.4771885613076E+01
(PID.TID 0000.0001) %MON dynstat_salt_sd              =   5.3234035825695E-01
(PID.TID 0000.0001) %MON dynstat_salt_del2            =   1.1482762519718E-03
(PID.TID 0000.0001) %MON dynstat_sst_max              =   3.0918541871201E+01
(PID.TID 0000.0001) %MON dynstat_sst_min              =  -1.8975235905597E+00
(PID.TID 0000.0001) %MON dynstat_sst_mean             =   1.8110504047749E+01
(PID.TID 0000.0001) %MON dynstat_sst_sd               =   9.8152146873924E+00
(PID.TID 0000.0001) %MON dynstat_sst_del2             =   1.4957778272066E-02
(PID.TID 0000.0001) %MON dynstat_sss_max              =   4.1346724259380E+01
(PID.TID 0000.0001) %MON dynstat_sss_min              =   1.8752551998926E+01
(PID.TID 0000.0001) %MON dynstat_sss_mean             =   3.4619389496272E+01
(PID.TID 0000.0001) %MON dynstat_sss_sd               =   1.4922940735309E+00
(PID.TID 0000.0001) %MON dynstat_sss_del2             =   1.3062404894286E-02
(PID.TID 0000.0001) %MON forcing_qnet_max             =   1.3529392089844E+03
(PID.TID 0000.0001) %MON forcing_qnet_min             =  -7.9243838012852E+02
(PID.TID 0000.0001) %MON forcing_qnet_mean            =  -4.2030713605882E+01
(PID.TID 0000.0001) %MON forcing_qnet_sd              =   1.9842278507100E+02
(PID.TID 0000.0001) %MON forcing_qnet_del2            =   3.2203857971557E+00
(PID.TID 0000.0001) %MON forcing_qsw_max              =   0.0000000000000E+00
(PID.TID 0000.0001) %MON forcing_qsw_min              =  -1.0585341230911E+02
(PID.TID 0000.0001) %MON forcing_qsw_mean             =  -2.0608379967139E+01
(PID.TID 0000.0001) %MON forcing_qsw_sd               =   2.9666845206909E+01
(PID.TID 0000.0001) %MON forcing_qsw_del2             =   2.3161819735375E-01
(PID.TID 0000.0001) %MON forcing_empmr_max            =   4.3222852982581E-03
(PID.TID 0000.0001) %MON forcing_empmr_min            =  -6.2149457633495E-02
(PID.TID 0000.0001) %MON forcing_empmr_mean           =  -1.8931955188076E-04
(PID.TID 0000.0001) %MON forcing_empmr_sd             =   2.7407974415682E-03
(PID.TID 0000.0001) %MON forcing_empmr_del2           =   1.0769379654935E-04
(PID.TID 0000.0001) %MON forcing_fu_max               =   2.4667452243821E-01
(PID.TID 0000.0001) %MON forcing_fu_min               =  -3.3183985886260E-01
(PID.TID 0000.0001) %MON forcing_fu_mean              =  -5.2650415410182E-03
(PID.TID 0000.0001) %MON forcing_fu_sd                =   5.5521140583202E-02
(PID.TID 0000.0001) %MON forcing_fu_del2              =   5.5644669005931E-04
(PID.TID 0000.0001) %MON forcing_fv_max               =   2.5713780374912E-01
(PID.TID 0000.0001) %MON forcing_fv_min               =  -2.5362318962872E-01
(PID.TID 0000.0001) %MON forcing_fv_mean              =  -1.4887092314413E-02
(PID.TID 0000.0001) %MON forcing_fv_sd                =   5.9179292492862E-02
(PID.TID 0000.0001) %MON forcing_fv_del2              =   4.9815457394043E-04
(PID.TID 0000.0001) %MON trAdv_CFL_u_max              =   1.9297018624249E-03
(PID.TID 0000.0001) %MON trAdv_CFL_v_max              =   1.1412953421884E-03
(PID.TID 0000.0001) %MON trAdv_CFL_w_max              =   1.2750821729629E-03
(PID.TID 0000.0001) %MON advcfl_uvel_max              =   1.9117445032087E-03
(PID.TID 0000.0001) %MON advcfl_vvel_max              =   1.1438176487087E-03
(PID.TID 0000.0001) %MON advcfl_wvel_max              =   2.1617202655129E-03
(PID.TID 0000.0001) %MON advcfl_W_hf_max              =   1.2750821729629E-03
(PID.TID 0000.0001) %MON pe_b_mean                    =   4.9774876511774E-04
(PID.TID 0000.0001) %MON ke_max                       =   1.9179364315119E-01
(PID.TID 0000.0001) %MON ke_mean                      =   1.6324032582324E-04
(PID.TID 0000.0001) %MON ke_vol                       =   1.3398152414527E+18
(PID.TID 0000.0001) %MON vort_r_min                   =  -2.5193570261893E-06
(PID.TID 0000.0001) %MON vort_r_max                   =   2.5384380028934E-06
(PID.TID 0000.0001) %MON vort_a_mean                  =  -2.0549865324846E-05
(PID.TID 0000.0001) %MON vort_a_sd                    =   7.5259654846347E-05
(PID.TID 0000.0001) %MON vort_p_mean                  =  -2.4783227976721E-05
(PID.TID 0000.0001) %MON vort_p_sd                    =   1.2811923817080E-04
(PID.TID 0000.0001) %MON surfExpan_theta_mean         =  -3.9789134353615E-06
(PID.TID 0000.0001) %MON surfExpan_salt_mean          =   8.4518751343863E-07
(PID.TID 0000.0001) // =======================================================
(PID.TID 0000.0001) // End MONITOR dynamic field statistics
(PID.TID 0000.0001) // =======================================================
 cg2d: Sum(rhs),rhsMax =  -8.41784228426039E+01  3.62856615385242E+01
(PID.TID 0000.0001)      cg2d_init_res =   1.71293915083036E-01
(PID.TID 0000.0001)      cg2d_iters(min,last) =      -1      10
(PID.TID 0000.0001)      cg2d_last_res =   3.49524828281480E-08
(PID.TID 0000.0001) // =======================================================
(PID.TID 0000.0001) // Begin MONITOR dynamic field statistics
(PID.TID 0000.0001) // =======================================================
(PID.TID 0000.0001) %MON time_tsnumber                =                 72093
(PID.TID 0000.0001) %MON time_secondsf                =   6.4883700000000E+07
(PID.TID 0000.0001) %MON dynstat_eta_max              =   9.6511871629953E-01
(PID.TID 0000.0001) %MON dynstat_eta_min              =  -1.5617428165828E+00
(PID.TID 0000.0001) %MON dynstat_eta_mean             =   3.5492533679392E-02
(PID.TID 0000.0001) %MON dynstat_eta_sd               =   6.1005202402271E-01
(PID.TID 0000.0001) %MON dynstat_eta_del2             =   1.2889989363128E-03
(PID.TID 0000.0001) %MON dynstat_uvel_max             =   3.2881571261047E-01
(PID.TID 0000.0001) %MON dynstat_uvel_min             =  -6.4666575094308E-01
(PID.TID 0000.0001) %MON dynstat_uvel_mean            =  -5.2069689181406E-04
(PID.TID 0000.0001) %MON dynstat_uvel_sd              =   1.2861420347486E-02
(PID.TID 0000.0001) %MON dynstat_uvel_del2            =   8.5544415977750E-05
(PID.TID 0000.0001) %MON dynstat_vvel_max             =   3.3078929952716E-01
(PID.TID 0000.0001) %MON dynstat_vvel_min             =  -3.4689983008732E-01
(PID.TID 0000.0001) %MON dynstat_vvel_mean            =   1.3383598745889E-04
(PID.TID 0000.0001) %MON dynstat_vvel_sd              =   1.3691490569317E-02
(PID.TID 0000.0001) %MON dynstat_vvel_del2            =   8.5062130861458E-05
(PID.TID 0000.0001) %MON dynstat_wvel_max             =   1.0688107830783E-04
(PID.TID 0000.0001) %MON dynstat_wvel_min             =  -1.9290107027610E-04
(PID.TID 0000.0001) %MON dynstat_wvel_mean            =  -4.3296931214800E-08
(PID.TID 0000.0001) %MON dynstat_wvel_sd              =   7.5995067789504E-06
(PID.TID 0000.0001) %MON dynstat_wvel_del2            =   6.4473546805005E-08
(PID.TID 0000.0001) %MON dynstat_theta_max            =   3.0918225449759E+01
(PID.TID 0000.0001) %MON dynstat_theta_min            =  -3.0204333061659E+00
(PID.TID 0000.0001) %MON dynstat_theta_mean           =   3.9092351646627E+00
(PID.TID 0000.0001) %MON dynstat_theta_sd             =   4.5717705632455E+00
(PID.TID 0000.0001) %MON dynstat_theta_del2           =   2.6375784280271E-03
(PID.TID 0000.0001) %MON dynstat_salt_max             =   4.1346777728302E+01
(PID.TID 0000.0001) %MON dynstat_salt_min             =   1.8519314346449E+01
(PID.TID 0000.0001) %MON dynstat_salt_mean            =   3.4771884266806E+01
(PID.TID 0000.0001) %MON dynstat_salt_sd              =   5.3234944529150E-01
(PID.TID 0000.0001) %MON dynstat_salt_del2            =   1.1500690524422E-03
(PID.TID 0000.0001) %MON dynstat_sst_max              =   3.0918225449759E+01
(PID.TID 0000.0001) %MON dynstat_sst_min              =  -1.8974100032653E+00
(PID.TID 0000.0001) %MON dynstat_sst_mean             =   1.8110694991339E+01
(PID.TID 0000.0001) %MON dynstat_sst_sd               =   9.8154094283934E+00
(PID.TID 0000.0001) %MON dynstat_sst_del2             =   1.4955392037021E-02
(PID.TID 0000.0001) %MON dynstat_sss_max              =   4.1346777728302E+01
(PID.TID 0000.0001) %MON dynstat_sss_min              =   1.8752565164877E+01
(PID.TID 0000.0001) %MON dynstat_sss_mean             =   3.4619287657304E+01
(PID.TID 0000.0001) %MON dynstat_sss_sd               =   1.4925174268656E+00
(PID.TID 0000.0001) %MON dynstat_sss_del2             =   1.3087350290742E-02
(PID.TID 0000.0001) %MON forcing_qnet_max             =   1.3380651855469E+03
(PID.TID 0000.0001) %MON forcing_qnet_min             =  -7.8109585517624E+02
(PID.TID 0000.0001) %MON forcing_qnet_mean            =  -4.5010823989220E+01
(PID.TID 0000.0001) %MON forcing_qnet_sd              =   2.0218714983387E+02
(PID.TID 0000.0001) %MON forcing_qnet_del2            =   3.2456224511628E+00
(PID.TID 0000.0001) %MON forcing_qsw_max              =   0.0000000000000E+00
(PID.TID 0000.0001) %MON forcing_qsw_min              =  -1.0347788834551E+02
(PID.TID 0000.0001) %MON forcing_qsw_mean             =  -2.1125199779752E+01
(PID.TID 0000.0001) %MON forcing_qsw_sd               =   3.0096989381746E+01
(PID.TID 0000.0001) %MON forcing_qsw_del2             =   2.3228250876019E-01
(PID.TID 0000.0001) %MON forcing_empmr_max            =   4.2777084745467E-03
(PID.TID 0000.0001) %MON forcing_empmr_min            =  -6.1510074883699E-02
(PID.TID 0000.0001) %MON forcing_empmr_mean           =  -1.8730381816458E-04
(PID.TID 0000.0001) %MON forcing_empmr_sd             =   2.7130852517954E-03
(PID.TID 0000.0001) %MON forcing_empmr_del2           =   1.0660316196995E-04
(PID.TID 0000.0001) %MON forcing_fu_max               =   2.4384319659355E-01
(PID.TID 0000.0001) %MON forcing_fu_min               =  -3.3277790273163E-01
(PID.TID 0000.0001) %MON forcing_fu_mean              =  -5.3733765339973E-03
(PID.TID 0000.0001) %MON forcing_fu_sd                =   5.5366227163457E-02
(PID.TID 0000.0001) %MON forcing_fu_del2              =   5.5627261403024E-04
(PID.TID 0000.0001) %MON forcing_fv_max               =   2.5954371340304E-01
(PID.TID 0000.0001) %MON forcing_fv_min               =  -2.5182157973489E-01
(PID.TID 0000.0001) %MON forcing_fv_mean              =  -1.4839104110395E-02
(PID.TID 0000.0001) %MON forcing_fv_sd                =   5.9060054269510E-02
(PID.TID 0000.0001) %MON forcing_fv_del2              =   4.9724548236685E-04
(PID.TID 0000.0001) %MON trAdv_CFL_u_max              =   1.8845166683473E-03
(PID.TID 0000.0001) %MON trAdv_CFL_v_max              =   1.2132700945246E-03
(PID.TID 0000.0001) %MON trAdv_CFL_w_max              =   1.2641876675682E-03
(PID.TID 0000.0001) %MON advcfl_uvel_max              =   1.8655272507193E-03
(PID.TID 0000.0001) %MON advcfl_vvel_max              =   1.1713064667784E-03
(PID.TID 0000.0001) %MON advcfl_wvel_max              =   2.1394808655200E-03
(PID.TID 0000.0001) %MON advcfl_W_hf_max              =   1.2641876675682E-03
(PID.TID 0000.0001) %MON pe_b_mean                    =   4.9746392545276E-04
(PID.TID 0000.0001) %MON ke_max                       =   1.8924903317237E-01
(PID.TID 0000.0001) %MON ke_mean                      =   1.6309605595647E-04
(PID.TID 0000.0001) %MON ke_vol                       =   1.3398153013578E+18
(PID.TID 0000.0001) %MON vort_r_min                   =  -2.5633690632234E-06
(PID.TID 0000.0001) %MON vort_r_max                   =   2.4695819110629E-06
(PID.TID 0000.0001) %MON vort_a_mean                  =  -2.0549865324846E-05
(PID.TID 0000.0001) %MON vort_a_sd                    =   7.5259654814763E-05
(PID.TID 0000.0001) %MON vort_p_mean                  =  -2.4783226922277E-05
(PID.TID 0000.0001) %MON vort_p_sd                    =   1.2811923969415E-04
(PID.TID 0000.0001) %MON surfExpan_theta_mean         =  -3.8784935591973E-06
(PID.TID 0000.0001) %MON surfExpan_salt_mean          =   8.2699751076334E-07
(PID.TID 0000.0001) // =======================================================
(PID.TID 0000.0001) // End MONITOR dynamic field statistics
(PID.TID 0000.0001) // =======================================================
 cg2d: Sum(rhs),rhsMax =  -8.45124350989063E+01  3.63067411199781E+01
(PID.TID 0000.0001)      cg2d_init_res =   1.66804180181497E-01
(PID.TID 0000.0001)      cg2d_iters(min,last) =      -1      10
(PID.TID 0000.0001)      cg2d_last_res =   3.34197431778197E-08
(PID.TID 0000.0001) // =======================================================
(PID.TID 0000.0001) // Begin MONITOR dynamic field statistics
(PID.TID 0000.0001) // =======================================================
(PID.TID 0000.0001) %MON time_tsnumber                =                 72094
(PID.TID 0000.0001) %MON time_secondsf                =   6.4884600000000E+07
(PID.TID 0000.0001) %MON dynstat_eta_max              =   9.6086857728472E-01
(PID.TID 0000.0001) %MON dynstat_eta_min              =  -1.5630380760688E+00
(PID.TID 0000.0001) %MON dynstat_eta_mean             =   3.5654065435652E-02
(PID.TID 0000.0001) %MON dynstat_eta_sd               =   6.0984239578013E-01
(PID.TID 0000.0001) %MON dynstat_eta_del2             =   1.2977661606464E-03
(PID.TID 0000.0001) %MON dynstat_uvel_max             =   3.1314533490102E-01
(PID.TID 0000.0001) %MON dynstat_uvel_min             =  -6.2859687974952E-01
(PID.TID 0000.0001) %MON dynstat_uvel_mean            =  -5.2650443394471E-04
(PID.TID 0000.0001) %MON dynstat_uvel_sd              =   1.2856418560700E-02
(PID.TID 0000.0001) %MON dynstat_uvel_del2            =   8.5467234801177E-05
(PID.TID 0000.0001) %MON dynstat_vvel_max             =   3.5683335496220E-01
(PID.TID 0000.0001) %MON dynstat_vvel_min             =  -3.4853736716401E-01
(PID.TID 0000.0001) %MON dynstat_vvel_mean            =   1.3735346582815E-04
(PID.TID 0000.0001) %MON dynstat_vvel_sd              =   1.3685893363284E-02
(PID.TID 0000.0001) %MON dynstat_vvel_del2            =   8.4831704972872E-05
(PID.TID 0000.0001) %MON dynstat_wvel_max             =   1.0710035520510E-04
(PID.TID 0000.0001) %MON dynstat_wvel_min             =  -1.9303424460076E-04
(PID.TID 0000.0001) %MON dynstat_wvel_mean            =  -4.3735252329073E-08
(PID.TID 0000.0001) %MON dynstat_wvel_sd              =   7.6078402853651E-06
(PID.TID 0000.0001) %MON dynstat_wvel_del2            =   6.4264819993601E-08
(PID.TID 0000.0001) %MON dynstat_theta_max            =   3.0917900963944E+01
(PID.TID 0000.0001) %MON dynstat_theta_min            =  -3.0211241620853E+00
(PID.TID 0000.0001) %MON dynstat_theta_mean           =   3.9092389077348E+00
(PID.TID 0000.0001) %MON dynstat_theta_sd             =   4.5717863092382E+00
(PID.TID 0000.0001) %MON dynstat_theta_del2           =   2.6374408325421E-03
(PID.TID 0000.0001) %MON dynstat_salt_max             =   4.1346846986833E+01
(PID.TID 0000.0001) %MON dynstat_salt_min             =   1.8519324465478E+01
(PID.TID 0000.0001) %MON dynstat_salt_mean            =   3.4771882937014E+01
(PID.TID 0000.0001) %MON dynstat_salt_sd              =   5.3235839801961E-01
(PID.TID 0000.0001) %MON dynstat_salt_del2            =   1.1518184683570E-03
(PID.TID 0000.0001) %MON dynstat_sst_max              =   3.0917900963944E+01
(PID.TID 0000.0001) %MON dynstat_sst_min              =  -1.8973062569204E+00
(PID.TID 0000.0001) %MON dynstat_sst_mean             =   1.8110896134932E+01
(PID.TID 0000.0001) %MON dynstat_sst_sd               =   9.8156089631980E+00
(PID.TID 0000.0001) %MON dynstat_sst_del2             =   1.4952637743610E-02
(PID.TID 0000.0001) %MON dynstat_sss_max              =   4.1346846986833E+01
(PID.TID 0000.0001) %MON dynstat_sss_min              =   1.8752578173985E+01
(PID.TID 0000.0001) %MON dynstat_sss_mean             =   3.4619187542280E+01
(PID.TID 0000.0001) %MON dynstat_sss_sd               =   1.4927372538154E+00
(PID.TID 0000.0001) %MON dynstat_sss_del2             =   1.3111679739166E-02
(PID.TID 0000.0001) %MON forcing_qnet_max             =   1.8615115966797E+03
(PID.TID 0000.0001) %MON forcing_qnet_min             =  -7.7063919035081E+02
(PID.TID 0000.0001) %MON forcing_qnet_mean            =  -4.6673555198855E+01
(PID.TID 0000.0001) %MON forcing_qnet_sd              =   2.0534715904475E+02
(PID.TID 0000.0001) %MON forcing_qnet_del2            =   3.5018144109811E+00
(PID.TID 0000.0001) %MON forcing_qsw_max              =   0.0000000000000E+00
(PID.TID 0000.0001) %MON forcing_qsw_min              =  -1.0220527701046E+02
(PID.TID 0000.0001) %MON forcing_qsw_mean             =  -2.1359905010972E+01
(PID.TID 0000.0001) %MON forcing_qsw_sd               =   3.0226643647712E+01
(PID.TID 0000.0001) %MON forcing_qsw_del2             =   2.3351377878882E-01
(PID.TID 0000.0001) %MON forcing_empmr_max            =   4.2336238548160E-03
(PID.TID 0000.0001) %MON forcing_empmr_min            =  -6.0876563191414E-02
(PID.TID 0000.0001) %MON forcing_empmr_mean           =  -1.8576151969814E-04
(PID.TID 0000.0001) %MON forcing_empmr_sd             =   2.6854842775855E-03
(PID.TID 0000.0001) %MON forcing_empmr_del2           =   1.0545158916413E-04
(PID.TID 0000.0001) %MON forcing_fu_max               =   2.3746635497017E-01
(PID.TID 0000.0001) %MON forcing_fu_min               =  -3.3339993544200E-01
(PID.TID 0000.0001) %MON forcing_fu_mean              =  -5.4834449456458E-03
(PID.TID 0000.0001) %MON forcing_fu_sd                =   5.5283563892012E-02
(PID.TID 0000.0001) %MON forcing_fu_del2              =   5.5569144582425E-04
(PID.TID 0000.0001) %MON forcing_fv_max               =   2.5543641185088E-01
(PID.TID 0000.0001) %MON forcing_fv_min               =  -2.5012649560416E-01
(PID.TID 0000.0001) %MON forcing_fv_mean              =  -1.4811906983615E-02
(PID.TID 0000.0001) %MON forcing_fv_sd                =   5.8881096927073E-02
(PID.TID 0000.0001) %MON forcing_fv_del2              =   4.9589339510420E-04
(PID.TID 0000.0001) %MON trAdv_CFL_u_max              =   1.8332650228380E-03
(PID.TID 0000.0001) %MON trAdv_CFL_v_max              =   1.3085568485922E-03
(PID.TID 0000.0001) %MON trAdv_CFL_w_max              =   1.2507581703292E-03
(PID.TID 0000.0001) %MON advcfl_uvel_max              =   1.8134014476253E-03
(PID.TID 0000.0001) %MON advcfl_vvel_max              =   1.2635270150119E-03
(PID.TID 0000.0001) %MON advcfl_wvel_max              =   2.1174456762231E-03
(PID.TID 0000.0001) %MON advcfl_W_hf_max              =   1.2507581703292E-03
(PID.TID 0000.0001) %MON pe_b_mean                    =   4.9713854457534E-04
(PID.TID 0000.0001) %MON ke_max                       =   1.8565717506576E-01
(PID.TID 0000.0001) %MON ke_mean                      =   1.6296910366167E-04
(PID.TID 0000.0001) %MON ke_vol                       =   1.3398153606250E+18
(PID.TID 0000.0001) %MON vort_r_min                   =  -2.6056112336015E-06
(PID.TID 0000.0001) %MON vort_r_max                   =   2.3936585931207E-06
(PID.TID 0000.0001) %MON vort_a_mean                  =  -2.0549865324846E-05
(PID.TID 0000.0001) %MON vort_a_sd                    =   7.5259655127572E-05
(PID.TID 0000.0001) %MON vort_p_mean                  =  -2.4783225881885E-05
(PID.TID 0000.0001) %MON vort_p_sd                    =   1.2811923997612E-04
(PID.TID 0000.0001) %MON surfExpan_theta_mean         =  -3.7976472490328E-06
(PID.TID 0000.0001) %MON surfExpan_salt_mean          =   8.0969175309342E-07
(PID.TID 0000.0001) // =======================================================
(PID.TID 0000.0001) // End MONITOR dynamic field statistics
(PID.TID 0000.0001) // =======================================================
 cg2d: Sum(rhs),rhsMax =  -8.48387655991493E+01  3.63289949832648E+01
(PID.TID 0000.0001)      cg2d_init_res =   1.62412287496219E-01
(PID.TID 0000.0001)      cg2d_iters(min,last) =      -1      10
(PID.TID 0000.0001)      cg2d_last_res =   3.23841173071605E-08
(PID.TID 0000.0001) // =======================================================
(PID.TID 0000.0001) // Begin MONITOR dynamic field statistics
(PID.TID 0000.0001) // =======================================================
(PID.TID 0000.0001) %MON time_tsnumber                =                 72095
(PID.TID 0000.0001) %MON time_secondsf                =   6.4885500000000E+07
(PID.TID 0000.0001) %MON dynstat_eta_max              =   9.5640470783050E-01
(PID.TID 0000.0001) %MON dynstat_eta_min              =  -1.5645003168154E+00
(PID.TID 0000.0001) %MON dynstat_eta_mean             =   3.5813675786890E-02
(PID.TID 0000.0001) %MON dynstat_eta_sd               =   6.0960533861476E-01
(PID.TID 0000.0001) %MON dynstat_eta_del2             =   1.3048847659598E-03
(PID.TID 0000.0001) %MON dynstat_uvel_max             =   2.9817861405312E-01
(PID.TID 0000.0001) %MON dynstat_uvel_min             =  -6.0858891670119E-01
(PID.TID 0000.0001) %MON dynstat_uvel_mean            =  -5.3175213777318E-04
(PID.TID 0000.0001) %MON dynstat_uvel_sd              =   1.2851991841306E-02
(PID.TID 0000.0001) %MON dynstat_uvel_del2            =   8.5360151943743E-05
(PID.TID 0000.0001) %MON dynstat_vvel_max             =   3.8168620321821E-01
(PID.TID 0000.0001) %MON dynstat_vvel_min             =  -3.5015707532334E-01
(PID.TID 0000.0001) %MON dynstat_vvel_mean            =   1.4270275317979E-04
(PID.TID 0000.0001) %MON dynstat_vvel_sd              =   1.3681363900896E-02
(PID.TID 0000.0001) %MON dynstat_vvel_del2            =   8.4744896901737E-05
(PID.TID 0000.0001) %MON dynstat_wvel_max             =   1.0731248381535E-04
(PID.TID 0000.0001) %MON dynstat_wvel_min             =  -1.9315940205465E-04
(PID.TID 0000.0001) %MON dynstat_wvel_mean            =  -4.4024905072898E-08
(PID.TID 0000.0001) %MON dynstat_wvel_sd              =   7.6178450665879E-06
(PID.TID 0000.0001) %MON dynstat_wvel_del2            =   6.4079875216696E-08
(PID.TID 0000.0001) %MON dynstat_theta_max            =   3.0917568382510E+01
(PID.TID 0000.0001) %MON dynstat_theta_min            =  -3.0218303824796E+00
(PID.TID 0000.0001) %MON dynstat_theta_mean           =   3.9092427457184E+00
(PID.TID 0000.0001) %MON dynstat_theta_sd             =   4.5718025480363E+00
(PID.TID 0000.0001) %MON dynstat_theta_del2           =   2.6373045621161E-03
(PID.TID 0000.0001) %MON dynstat_salt_max             =   4.1346933084086E+01
(PID.TID 0000.0001) %MON dynstat_salt_min             =   1.8519334590428E+01
(PID.TID 0000.0001) %MON dynstat_salt_mean            =   3.4771881637849E+01
(PID.TID 0000.0001) %MON dynstat_salt_sd              =   5.3236722696063E-01
(PID.TID 0000.0001) %MON dynstat_salt_del2            =   1.1535274831013E-03
(PID.TID 0000.0001) %MON dynstat_sst_max              =   3.0917568382510E+01
(PID.TID 0000.0001) %MON dynstat_sst_min              =  -1.8972123337677E+00
(PID.TID 0000.0001) %MON dynstat_sst_mean             =   1.8111106234655E+01
(PID.TID 0000.0001) %MON dynstat_sst_sd               =   9.8158142073306E+00
(PID.TID 0000.0001) %MON dynstat_sst_del2             =   1.4950023421911E-02
(PID.TID 0000.0001) %MON dynstat_sss_max              =   4.1346933084086E+01
(PID.TID 0000.0001) %MON dynstat_sss_min              =   1.8752591029253E+01
(PID.TID 0000.0001) %MON dynstat_sss_mean             =   3.4619089755917E+01
(PID.TID 0000.0001) %MON dynstat_sss_sd               =   1.4929537569669E+00
(PID.TID 0000.0001) %MON dynstat_sss_del2             =   1.3135447358402E-02
(PID.TID 0000.0001) %MON forcing_qnet_max             =   1.3087653176299E+03
(PID.TID 0000.0001) %MON forcing_qnet_min             =  -7.6032256349633E+02
(PID.TID 0000.0001) %MON forcing_qnet_mean            =  -4.8485698006232E+01
(PID.TID 0000.0001) %MON forcing_qnet_sd              =   2.0667705448474E+02
(PID.TID 0000.0001) %MON forcing_qnet_del2            =   3.1545192070398E+00
(PID.TID 0000.0001) %MON forcing_qsw_max              =   0.0000000000000E+00
(PID.TID 0000.0001) %MON forcing_qsw_min              =  -1.0309331914936E+02
(PID.TID 0000.0001) %MON forcing_qsw_mean             =  -2.1538169829291E+01
(PID.TID 0000.0001) %MON forcing_qsw_sd               =   3.0299707625242E+01
(PID.TID 0000.0001) %MON forcing_qsw_del2             =   2.3425276431206E-01
(PID.TID 0000.0001) %MON forcing_empmr_max            =   4.1900309734046E-03
(PID.TID 0000.0001) %MON forcing_empmr_min            =  -6.0250606387854E-02
(PID.TID 0000.0001) %MON forcing_empmr_mean           =  -1.8355190392382E-04
(PID.TID 0000.0001) %MON forcing_empmr_sd             =   2.6582596830586E-03
(PID.TID 0000.0001) %MON forcing_empmr_del2           =   1.0433896373439E-04
(PID.TID 0000.0001) %MON forcing_fu_max               =   2.4009533214376E-01
(PID.TID 0000.0001) %MON forcing_fu_min               =  -3.3321242268248E-01
(PID.TID 0000.0001) %MON forcing_fu_mean              =  -5.5481427844364E-03
(PID.TID 0000.0001) %MON forcing_fu_sd                =   5.5128412538758E-02
(PID.TID 0000.0001) %MON forcing_fu_del2              =   5.5448137687162E-04
(PID.TID 0000.0001) %MON forcing_fv_max               =   2.4491133359424E-01
(PID.TID 0000.0001) %MON forcing_fv_min               =  -2.4836468595708E-01
(PID.TID 0000.0001) %MON forcing_fv_mean              =  -1.4826760532600E-02
(PID.TID 0000.0001) %MON forcing_fv_sd                =   5.8573633986170E-02
(PID.TID 0000.0001) %MON forcing_fv_del2              =   4.9286974459703E-04
(PID.TID 0000.0001) %MON trAdv_CFL_u_max              =   1.7762422261313E-03
(PID.TID 0000.0001) %MON trAdv_CFL_v_max              =   1.3996221217941E-03
(PID.TID 0000.0001) %MON trAdv_CFL_w_max              =   1.2357640933587E-03
(PID.TID 0000.0001) %MON advcfl_uvel_max              =   1.7556816747076E-03
(PID.TID 0000.0001) %MON advcfl_vvel_max              =   1.3515295650392E-03
(PID.TID 0000.0001) %MON advcfl_wvel_max              =   2.0956732656645E-03
(PID.TID 0000.0001) %MON advcfl_W_hf_max              =   1.2357640933587E-03
(PID.TID 0000.0001) %MON pe_b_mean                    =   4.9676861615447E-04
(PID.TID 0000.0001) %MON ke_max                       =   1.8107637887252E-01
(PID.TID 0000.0001) %MON ke_mean                      =   1.6286255670825E-04
(PID.TID 0000.0001) %MON ke_vol                       =   1.3398154194043E+18
(PID.TID 0000.0001) %MON vort_r_min                   =  -2.6458035066395E-06
(PID.TID 0000.0001) %MON vort_r_max                   =   2.3113138405424E-06
(PID.TID 0000.0001) %MON vort_a_mean                  =  -2.0549865324846E-05
(PID.TID 0000.0001) %MON vort_a_sd                    =   7.5259655739153E-05
(PID.TID 0000.0001) %MON vort_p_mean                  =  -2.4783224851070E-05
(PID.TID 0000.0001) %MON vort_p_sd                    =   1.2811923891599E-04
(PID.TID 0000.0001) %MON surfExpan_theta_mean         =  -3.7069610856549E-06
(PID.TID 0000.0001) %MON surfExpan_salt_mean          =   7.9308164257796E-07
(PID.TID 0000.0001) // =======================================================
(PID.TID 0000.0001) // End MONITOR dynamic field statistics
(PID.TID 0000.0001) // =======================================================
 Computing Diagnostic #     81  oceTAUX      Counter:       1   Parms: UU      U1      
           Vector  Mate for  oceTAUX      Diagnostic #     82  oceTAUY  exists 
 Computing Diagnostic #     82  oceTAUY      Counter:       1   Parms: VV      U1      
           Vector  Mate for  oceTAUY      Diagnostic #     81  oceTAUX  exists 
 Computing Diagnostic #     85  oceFWflx     Counter:       1   Parms: SM      U1      
 Computing Diagnostic #     86  oceSflux     Counter:       1   Parms: SM      U1      
 Computing Diagnostic #     87  oceQnet      Counter:       1   Parms: SM      U1      
 Computing Diagnostic #     88  oceQsw       Counter:       1   Parms: SM      U1      
 Computing Diagnostic #     27  SALT         Counter:       1   Parms: SMR     MR      
 Computing Diagnostic #     26  THETA        Counter:       1   Parms: SMR     MR      
 Computing Diagnostic #     45  UVELMASS     Counter:       1   Parms: UUr     MR      
           Vector  Mate for  UVELMASS     Diagnostic #     46  VVELMASS exists 
 Computing Diagnostic #     46  VVELMASS     Counter:       1   Parms: VVr     MR      
           Vector  Mate for  VVELMASS     Diagnostic #     45  UVELMASS exists 
 cg2d: Sum(rhs),rhsMax =  -8.51630960926972E+01  3.63509600456083E+01
(PID.TID 0000.0001)      cg2d_init_res =   1.58223792374191E-01
(PID.TID 0000.0001)      cg2d_iters(min,last) =      -1      10
(PID.TID 0000.0001)      cg2d_last_res =   3.36542453749759E-08
(PID.TID 0000.0001) // =======================================================
(PID.TID 0000.0001) // Begin MONITOR dynamic field statistics
(PID.TID 0000.0001) // =======================================================
(PID.TID 0000.0001) %MON time_tsnumber                =                 72096
(PID.TID 0000.0001) %MON time_secondsf                =   6.4886400000000E+07
(PID.TID 0000.0001) %MON dynstat_eta_max              =   9.5181510325030E-01
(PID.TID 0000.0001) %MON dynstat_eta_min              =  -1.5661018347075E+00
(PID.TID 0000.0001) %MON dynstat_eta_mean             =   3.5972324318767E-02
(PID.TID 0000.0001) %MON dynstat_eta_sd               =   6.0934130940947E-01
(PID.TID 0000.0001) %MON dynstat_eta_del2             =   1.3095061794132E-03
(PID.TID 0000.0001) %MON dynstat_uvel_max             =   2.8433228905877E-01
(PID.TID 0000.0001) %MON dynstat_uvel_min             =  -5.9109727311137E-01
(PID.TID 0000.0001) %MON dynstat_uvel_mean            =  -5.3649578283899E-04
(PID.TID 0000.0001) %MON dynstat_uvel_sd              =   1.2848061240003E-02
(PID.TID 0000.0001) %MON dynstat_uvel_del2            =   8.5229574680346E-05
(PID.TID 0000.0001) %MON dynstat_vvel_max             =   4.0485685637837E-01
(PID.TID 0000.0001) %MON dynstat_vvel_min             =  -3.5175282071997E-01
(PID.TID 0000.0001) %MON dynstat_vvel_mean            =   1.4971553392170E-04
(PID.TID 0000.0001) %MON dynstat_vvel_sd              =   1.3678288255143E-02
(PID.TID 0000.0001) %MON dynstat_vvel_del2            =   8.4797826639036E-05
(PID.TID 0000.0001) %MON dynstat_wvel_max             =   1.0751454903691E-04
(PID.TID 0000.0001) %MON dynstat_wvel_min             =  -1.9326408545658E-04
(PID.TID 0000.0001) %MON dynstat_wvel_mean            =  -4.5215686486474E-08
(PID.TID 0000.0001) %MON dynstat_wvel_sd              =   7.6290268415526E-06
(PID.TID 0000.0001) %MON dynstat_wvel_del2            =   6.3910418058753E-08
(PID.TID 0000.0001) %MON dynstat_theta_max            =   3.0917228845721E+01
(PID.TID 0000.0001) %MON dynstat_theta_min            =  -3.0225520635502E+00
(PID.TID 0000.0001) %MON dynstat_theta_mean           =   3.9092466372339E+00
(PID.TID 0000.0001) %MON dynstat_theta_sd             =   4.5718190877142E+00
(PID.TID 0000.0001) %MON dynstat_theta_del2           =   2.6371675787249E-03
(PID.TID 0000.0001) %MON dynstat_salt_max             =   4.1347037069432E+01
(PID.TID 0000.0001) %MON dynstat_salt_min             =   1.8519344721025E+01
(PID.TID 0000.0001) %MON dynstat_salt_mean            =   3.4771880348369E+01
(PID.TID 0000.0001) %MON dynstat_salt_sd              =   5.3237593479114E-01
(PID.TID 0000.0001) %MON dynstat_salt_del2            =   1.1551971161395E-03
(PID.TID 0000.0001) %MON dynstat_sst_max              =   3.0917228845721E+01
(PID.TID 0000.0001) %MON dynstat_sst_min              =  -1.8971291527022E+00
(PID.TID 0000.0001) %MON dynstat_sst_mean             =   1.8111322052290E+01
(PID.TID 0000.0001) %MON dynstat_sst_sd               =   9.8160226571574E+00
(PID.TID 0000.0001) %MON dynstat_sst_del2             =   1.4947415283859E-02
(PID.TID 0000.0001) %MON dynstat_sss_max              =   4.1347037069432E+01
(PID.TID 0000.0001) %MON dynstat_sss_min              =   1.8752603734023E+01
(PID.TID 0000.0001) %MON dynstat_sss_mean             =   3.4618992975636E+01
(PID.TID 0000.0001) %MON dynstat_sss_sd               =   1.4931670613475E+00
(PID.TID 0000.0001) %MON dynstat_sss_del2             =   1.3158663736706E-02
(PID.TID 0000.0001) %MON forcing_qnet_max             =   2.0539965820312E+03
(PID.TID 0000.0001) %MON forcing_qnet_min             =  -7.5021895985294E+02
(PID.TID 0000.0001) %MON forcing_qnet_mean            =  -4.9352322998142E+01
(PID.TID 0000.0001) %MON forcing_qnet_sd              =   2.0973062945819E+02
(PID.TID 0000.0001) %MON forcing_qnet_del2            =   3.4666103617849E+00
(PID.TID 0000.0001) %MON forcing_qsw_max              =   0.0000000000000E+00
(PID.TID 0000.0001) %MON forcing_qsw_min              =  -1.0427403482856E+02
(PID.TID 0000.0001) %MON forcing_qsw_mean             =  -2.1655558333093E+01
(PID.TID 0000.0001) %MON forcing_qsw_sd               =   3.0317146041312E+01
(PID.TID 0000.0001) %MON forcing_qsw_del2             =   2.3448342044357E-01
(PID.TID 0000.0001) %MON forcing_empmr_max            =   4.1468315757811E-03
(PID.TID 0000.0001) %MON forcing_empmr_min            =  -5.9630516916513E-02
(PID.TID 0000.0001) %MON forcing_empmr_mean           =  -1.8244581165903E-04
(PID.TID 0000.0001) %MON forcing_empmr_sd             =   2.6316164410847E-03
(PID.TID 0000.0001) %MON forcing_empmr_del2           =   1.0325410078559E-04
(PID.TID 0000.0001) %MON forcing_fu_max               =   2.3616329351261E-01
(PID.TID 0000.0001) %MON forcing_fu_min               =  -3.3167262863690E-01
(PID.TID 0000.0001) %MON forcing_fu_mean              =  -5.6161966781355E-03
(PID.TID 0000.0001) %MON forcing_fu_sd                =   5.4835222253587E-02
(PID.TID 0000.0001) %MON forcing_fu_del2              =   5.5221153398510E-04
(PID.TID 0000.0001) %MON forcing_fv_max               =   2.4173672795121E-01
(PID.TID 0000.0001) %MON forcing_fv_min               =  -2.4667219227472E-01
(PID.TID 0000.0001) %MON forcing_fv_mean              =  -1.4817665632087E-02
(PID.TID 0000.0001) %MON forcing_fv_sd                =   5.8363017484907E-02
(PID.TID 0000.0001) %MON forcing_fv_del2              =   4.9200153481571E-04
(PID.TID 0000.0001) %MON trAdv_CFL_u_max              =   1.7137896374382E-03
(PID.TID 0000.0001) %MON trAdv_CFL_v_max              =   1.4846952014291E-03
(PID.TID 0000.0001) %MON trAdv_CFL_w_max              =   1.2201252473193E-03
(PID.TID 0000.0001) %MON advcfl_uvel_max              =   1.6929933955174E-03
(PID.TID 0000.0001) %MON advcfl_vvel_max              =   1.4335755560213E-03
(PID.TID 0000.0001) %MON advcfl_wvel_max              =   2.0741049362266E-03
(PID.TID 0000.0001) %MON advcfl_W_hf_max              =   1.2617633027144E-03
(PID.TID 0000.0001) %MON pe_b_mean                    =   4.9635502350963E-04
(PID.TID 0000.0001) %MON ke_max                       =   1.7557900877263E-01
(PID.TID 0000.0001) %MON ke_mean                      =   1.6278038711876E-04
(PID.TID 0000.0001) %MON ke_vol                       =   1.3398154774844E+18
(PID.TID 0000.0001) %MON vort_r_min                   =  -2.6836549058610E-06
(PID.TID 0000.0001) %MON vort_r_max                   =   2.2232283364266E-06
(PID.TID 0000.0001) %MON vort_a_mean                  =  -2.0549865324846E-05
(PID.TID 0000.0001) %MON vort_a_sd                    =   7.5259656603068E-05
(PID.TID 0000.0001) %MON vort_p_mean                  =  -2.4783223832636E-05
(PID.TID 0000.0001) %MON vort_p_sd                    =   1.2811923644354E-04
(PID.TID 0000.0001) %MON surfExpan_theta_mean         =  -3.6552735287479E-06
(PID.TID 0000.0001) %MON surfExpan_salt_mean          =   7.7845690434785E-07
(PID.TID 0000.0001) // =======================================================
(PID.TID 0000.0001) // End MONITOR dynamic field statistics
(PID.TID 0000.0001) // =======================================================
(PID.TID 0000.0001) %CHECKPOINT     72096 ckptA
