(PID.TID 0000.0001) 
(PID.TID 0000.0001) // ======================================================
(PID.TID 0000.0001) //                      MITgcm UV
(PID.TID 0000.0001) //                      =========
(PID.TID 0000.0001) // ======================================================
(PID.TID 0000.0001) // execution environment starting up...
(PID.TID 0000.0001) 
(PID.TID 0000.0001) // MITgcmUV version:  checkpoint66k
(PID.TID 0000.0001) // Build user:        heracles
(PID.TID 0000.0001) // Build host:        heracles
(PID.TID 0000.0001) // Build date:        Fri Sep 29 18:39:06 PDT 2017
(PID.TID 0000.0001) 
(PID.TID 0000.0001) // =======================================================
(PID.TID 0000.0001) // Execution Environment parameter file "eedata"
(PID.TID 0000.0001) // =======================================================
(PID.TID 0000.0001) ># Example "eedata" file
(PID.TID 0000.0001) ># Lines beginning "#" are comments
(PID.TID 0000.0001) ># nTx - No. threads per process in X
(PID.TID 0000.0001) ># nTy - No. threads per process in Y
(PID.TID 0000.0001) > &EEPARMS
(PID.TID 0000.0001) > useCubedSphereExchange=.TRUE.,
(PID.TID 0000.0001) > nTx=1,
(PID.TID 0000.0001) > nTy=1,
(PID.TID 0000.0001) > &end
(PID.TID 0000.0001) ># Note: Some systems use & as the
(PID.TID 0000.0001) ># namelist terminator. Other systems
(PID.TID 0000.0001) ># use a / character (as shown here).
(PID.TID 0000.0001) 
(PID.TID 0000.0001) // =======================================================
(PID.TID 0000.0001) // Computational Grid Specification ( see files "SIZE.h" )
(PID.TID 0000.0001) //                                  ( and "eedata"       )
(PID.TID 0000.0001) // =======================================================
(PID.TID 0000.0001)      nPx =    6 ; /* No. processes in X */
(PID.TID 0000.0001)      nPy =    1 ; /* No. processes in Y */
(PID.TID 0000.0001)      nSx =    1 ; /* No. tiles in X per process */
(PID.TID 0000.0001)      nSy =    1 ; /* No. tiles in Y per process */
(PID.TID 0000.0001)      sNx =   32 ; /* Tile size in X */
(PID.TID 0000.0001)      sNy =   32 ; /* Tile size in Y */
(PID.TID 0000.0001)      OLx =    4 ; /* Tile overlap distance in X */
(PID.TID 0000.0001)      OLy =    4 ; /* Tile overlap distance in Y */
(PID.TID 0000.0001)      nTx =    1 ; /* No. threads in X per process */
(PID.TID 0000.0001)      nTy =    1 ; /* No. threads in Y per process */
(PID.TID 0000.0001)       Nr =   15 ; /* No. levels in the vertical   */
(PID.TID 0000.0001)       Nx =  192 ; /* Total domain size in X ( = nPx*nSx*sNx ) */
(PID.TID 0000.0001)       Ny =   32 ; /* Total domain size in Y ( = nPy*nSy*sNy ) */
(PID.TID 0000.0001)   nTiles =    1 ; /* Total no. tiles per process ( = nSx*nSy ) */
(PID.TID 0000.0001)   nProcs =    6 ; /* Total no. processes ( = nPx*nPy ) */
(PID.TID 0000.0001) nThreads =    1 ; /* Total no. threads per process ( = nTx*nTy ) */
(PID.TID 0000.0001) usingMPI =    T ; /* Flag used to control whether MPI is in use */
(PID.TID 0000.0001)                   /*  note: To execute a program with MPI calls */
(PID.TID 0000.0001)                   /*  it must be launched appropriately e.g     */
(PID.TID 0000.0001)                   /*  "mpirun -np 64 ......"                    */
(PID.TID 0000.0001) useCoupler=    F ;/* Flag used to control communications with   */
(PID.TID 0000.0001)                   /*  other model components, through a coupler */
(PID.TID 0000.0001) debugMode =    F ; /* print debug msg. (sequence of S/R calls)  */
(PID.TID 0000.0001) printMapIncludesZeros=    F ; /* print zeros in Std.Output maps */
(PID.TID 0000.0001) maxLengthPrt1D=   65 /* maxLength of 1D array printed to StdOut */
(PID.TID 0000.0001) 
(PID.TID 0000.0001) ======= Starting MPI parallel Run =========
(PID.TID 0000.0001)  My Processor Name (len:  8 ) = heracles
(PID.TID 0000.0001)  Located at (  0,  0) on processor grid (0:  5,0:  0)
(PID.TID 0000.0001)  Origin at  (     1,     1) on global grid (1:   192,1:    32)
(PID.TID 0000.0001)  North neighbor = processor 0000
(PID.TID 0000.0001)  South neighbor = processor 0000
(PID.TID 0000.0001)   East neighbor = processor 0001
(PID.TID 0000.0001)   West neighbor = processor 0005
(PID.TID 0000.0001) // ======================================================
(PID.TID 0000.0001) // Mapping of tiles to threads
(PID.TID 0000.0001) // ======================================================
(PID.TID 0000.0001) // -o- Thread   1, tiles (   1:   1,   1:   1)
(PID.TID 0000.0001) 
(PID.TID 0000.0001) W2_READPARMS: file data.exch2 not found
(PID.TID 0000.0001) => use W2_EXCH2 default: regular 6-facets Cube
(PID.TID 0000.0001) W2_useE2ioLayOut=    T ;/* T: use Exch2 glob IO map; F: use model default */
(PID.TID 0000.0001) W2_mapIO        =  -1 ; /* select option for Exch2 global-IO map */
(PID.TID 0000.0001) W2_printMsg     =  -1 ; /* select option for printing information */
(PID.TID 0000.0001) ===== Start setting W2 TOPOLOGY:
(PID.TID 0000.0001)  write to log-file: w2_tile_topology.0000.log
(PID.TID 0000.0001) =====       setting W2 TOPOLOGY: Done
(PID.TID 0000.0001) 
(PID.TID 0000.0001)  INI_PARMS: opening model parameter file "data"
(PID.TID 0000.0001)  OPEN_COPY_DATA_FILE: opening file data
(PID.TID 0000.0001) // =======================================================
(PID.TID 0000.0001) // Parameter file "data"
(PID.TID 0000.0001) // =======================================================
(PID.TID 0000.0001) ># ====================
(PID.TID 0000.0001) ># | Model parameters |
(PID.TID 0000.0001) ># ====================
(PID.TID 0000.0001) >#
(PID.TID 0000.0001) ># Continuous equation parameters
(PID.TID 0000.0001) > &PARM01
(PID.TID 0000.0001) > tRef=15*20.,
(PID.TID 0000.0001) > sRef=15*35.,
(PID.TID 0000.0001) > viscAh =3.E5,
(PID.TID 0000.0001) > viscAr =1.E-3,
(PID.TID 0000.0001) > diffKrT=3.E-5,
(PID.TID 0000.0001) > diffKrS=3.E-5,
(PID.TID 0000.0001) > ivdc_kappa=10.,
(PID.TID 0000.0001) > implicitDiffusion=.TRUE.,
(PID.TID 0000.0001) > rhonil=1035.,
(PID.TID 0000.0001) > rhoConstFresh=1000.,
(PID.TID 0000.0001) > eosType='JMD95Z',
(PID.TID 0000.0001) > staggerTimeStep=.TRUE.,
(PID.TID 0000.0001) > vectorInvariantMomentum=.TRUE.,
(PID.TID 0000.0001) > implicitFreeSurface=.TRUE.,
(PID.TID 0000.0001) > exactConserv=.TRUE.,
(PID.TID 0000.0001) > select_rStar=2,
(PID.TID 0000.0001) > nonlinFreeSurf=4,
(PID.TID 0000.0001) > useRealFreshWaterFlux=.TRUE.,
(PID.TID 0000.0001) > allowFreezing=.TRUE.,
(PID.TID 0000.0001) > hFacMin=.1,
(PID.TID 0000.0001) > hFacMinDr=20.,
(PID.TID 0000.0001) > readBinaryPrec=64,
(PID.TID 0000.0001) > useSingleCpuIo=.TRUE.,
(PID.TID 0000.0001) > &end
(PID.TID 0000.0001) >
(PID.TID 0000.0001) ># Elliptic solver parameters
(PID.TID 0000.0001) > &PARM02
(PID.TID 0000.0001) > &end
(PID.TID 0000.0001) >
(PID.TID 0000.0001) ># Time stepping parameters
(PID.TID 0000.0001) > &PARM03
(PID.TID 0000.0001) > nIter0           = 72000,
(PID.TID 0000.0001) > nTimeSteps       = 99999,
(PID.TID 0000.0001) > deltaT           = 900.,
(PID.TID 0000.0001) > monitorFreq      = 1.,
(PID.TID 0000.0001) > abEps            = 0.1,
(PID.TID 0000.0001) > tracForcingOutAB = 1,
(PID.TID 0000.0001) > &end
(PID.TID 0000.0001) >
(PID.TID 0000.0001) ># Gridding parameters
(PID.TID 0000.0001) > &PARM04
(PID.TID 0000.0001) > usingCurvilinearGrid=.TRUE.,
(PID.TID 0000.0001) > horizGridFile='grid_cs32',
(PID.TID 0000.0001) > delR= 50., 70., 100., 140., 190.,
(PID.TID 0000.0001) >       240., 290., 340., 390., 440.,
(PID.TID 0000.0001) >       490., 540., 590., 640., 690.,
(PID.TID 0000.0001) > &end
(PID.TID 0000.0001) >
(PID.TID 0000.0001) ># Input datasets
(PID.TID 0000.0001) > &PARM05
(PID.TID 0000.0001) > bathyFile      ='bathy_Hmin50.bin',
(PID.TID 0000.0001) > &end
(PID.TID 0000.0001) 
(PID.TID 0000.0001)  INI_PARMS ; starts to read PARM01
(PID.TID 0000.0001)  INI_PARMS ; read PARM01 : OK
(PID.TID 0000.0001)  INI_PARMS ; starts to read PARM02
(PID.TID 0000.0001)  INI_PARMS ; read PARM02 : OK
(PID.TID 0000.0001)  INI_PARMS ; starts to read PARM03
(PID.TID 0000.0001)  INI_PARMS ; read PARM03 : OK
(PID.TID 0000.0001)  INI_PARMS ; starts to read PARM04
(PID.TID 0000.0001)  INI_PARMS ; read PARM04 : OK
(PID.TID 0000.0001)  INI_PARMS ; starts to read PARM05
(PID.TID 0000.0001)  INI_PARMS ; read PARM05 : OK
(PID.TID 0000.0001)  INI_PARMS: finished reading file "data"
(PID.TID 0000.0001)  PACKAGES_BOOT: opening data.pkg
(PID.TID 0000.0001)  OPEN_COPY_DATA_FILE: opening file data.pkg
(PID.TID 0000.0001) // =======================================================
(PID.TID 0000.0001) // Parameter file "data.pkg"
(PID.TID 0000.0001) // =======================================================
(PID.TID 0000.0001) ># Packages
(PID.TID 0000.0001) > &PACKAGES
(PID.TID 0000.0001) > useGMRedi=.TRUE.,
(PID.TID 0000.0001) > useDiagnostics=.TRUE.,
(PID.TID 0000.0001) > &end
(PID.TID 0000.0001) 
(PID.TID 0000.0001)  PACKAGES_BOOT: finished reading data.pkg
(PID.TID 0000.0001)  PACKAGES_BOOT: On/Off package Summary
 --------  pkgs with a standard "usePKG" On/Off switch in "data.pkg":  --------
 pkg/gmredi               compiled   and   used ( useGMRedi                = T )
 pkg/bulk_force           compiled but not used ( useBulkForce             = F )
 pkg/diagnostics          compiled   and   used ( useDiagnostics           = T )
 -------- pkgs without standard "usePKG" On/Off switch in "data.pkg":  --------
 pkg/generic_advdiff      compiled   and   used ( useGAD                   = T )
 pkg/mom_common           compiled   and   used ( momStepping              = T )
 pkg/mom_vecinv           compiled   and   used ( +vectorInvariantMomentum = T )
 pkg/mom_fluxform         compiled but not used ( & not vectorInvariantMom = F )
 pkg/monitor              compiled   and   used ( monitorFreq > 0.         = T )
 pkg/timeave              compiled but not used ( taveFreq > 0.            = F )
 pkg/debug                compiled but not used ( debugMode                = F )
 pkg/exch2                compiled   and   used
 pkg/rw                   compiled   and   used
 pkg/mdsio                compiled   and   used
(PID.TID 0000.0001)  PACKAGES_BOOT: End of package Summary
(PID.TID 0000.0001) 
(PID.TID 0000.0001)  GM_READPARMS: opening data.gmredi
(PID.TID 0000.0001)  OPEN_COPY_DATA_FILE: opening file data.gmredi
(PID.TID 0000.0001) // =======================================================
(PID.TID 0000.0001) // Parameter file "data.gmredi"
(PID.TID 0000.0001) // =======================================================
(PID.TID 0000.0001) ># GM+Redi package parameters:
(PID.TID 0000.0001) >
(PID.TID 0000.0001) >#-from MOM :
(PID.TID 0000.0001) ># GM_background_K: 	G & Mc.W  diffusion coefficient
(PID.TID 0000.0001) ># GM_maxSlope    :	max slope of isopycnals
(PID.TID 0000.0001) ># GM_Scrit       :	transition for scaling diffusion coefficient
(PID.TID 0000.0001) ># GM_Sd          :	half width scaling for diffusion coefficient
(PID.TID 0000.0001) ># GM_taper_scheme:	slope clipping or one of the tapering schemes
(PID.TID 0000.0001) ># GM_Kmin_horiz  :	horizontal diffusion minimum value
(PID.TID 0000.0001) >
(PID.TID 0000.0001) >#-Option parameters (needs to "define" options in GMREDI_OPTIONS.h")
(PID.TID 0000.0001) ># GM_isopycK     :	isopycnal diffusion coefficient (default=GM_background_K)
(PID.TID 0000.0001) ># GM_AdvForm     :	turn on GM Advective form       (default=Skew flux form)
(PID.TID 0000.0001) >
(PID.TID 0000.0001) > &GM_PARM01
(PID.TID 0000.0001) >  GM_background_K    = 800.,
(PID.TID 0000.0001) >  GM_taper_scheme    = 'gkw91',
(PID.TID 0000.0001) >  GM_maxSlope        = 1.e-2,
(PID.TID 0000.0001) >  GM_Kmin_horiz      = 50.,
(PID.TID 0000.0001) >  GM_Scrit           = 4.e-3,
(PID.TID 0000.0001) >  GM_Sd              = 1.e-3,
(PID.TID 0000.0001) ># GM_Visbeck_alpha   = 0.,
(PID.TID 0000.0001) ># GM_Visbeck_length  = 2.e+5,
(PID.TID 0000.0001) ># GM_Visbeck_depth   = 1.e+3,
(PID.TID 0000.0001) ># GM_Visbeck_maxval_K= 2.5e+3,
(PID.TID 0000.0001) > &end
(PID.TID 0000.0001) >
(PID.TID 0000.0001) >
(PID.TID 0000.0001) 
(PID.TID 0000.0001)  GM_READPARMS: finished reading data.gmredi
(PID.TID 0000.0001)  DIAGNOSTICS_READPARMS: opening data.diagnostics
(PID.TID 0000.0001)  OPEN_COPY_DATA_FILE: opening file data.diagnostics
(PID.TID 0000.0001) // =======================================================
(PID.TID 0000.0001) // Parameter file "data.diagnostics"
(PID.TID 0000.0001) // =======================================================
(PID.TID 0000.0001) ># Diagnostic Package Choices
(PID.TID 0000.0001) >#--------------------
(PID.TID 0000.0001) >#  dumpAtLast (logical): always write output at the end of simulation (default=F)
(PID.TID 0000.0001) >#  diag_mnc   (logical): write to NetCDF files (default=useMNC)
(PID.TID 0000.0001) >#--for each output-stream:
(PID.TID 0000.0001) >#  fileName(n) : prefix of the output file name (max 80c long) for outp.stream n
(PID.TID 0000.0001) >#  frequency(n):< 0 : write snap-shot output every |frequency| seconds
(PID.TID 0000.0001) >#               > 0 : write time-average output every frequency seconds
(PID.TID 0000.0001) >#  timePhase(n)     : write at time = timePhase + multiple of |frequency|
(PID.TID 0000.0001) >#    averagingFreq  : frequency (in s) for periodic averaging interval
(PID.TID 0000.0001) >#    averagingPhase : phase     (in s) for periodic averaging interval
(PID.TID 0000.0001) >#    repeatCycle    : number of averaging intervals in 1 cycle
(PID.TID 0000.0001) >#  levels(:,n) : list of levels to write to file (Notes: declared as REAL)
(PID.TID 0000.0001) >#                when this entry is missing, select all common levels of this list
(PID.TID 0000.0001) >#  fields(:,n) : list of selected diagnostics fields (8.c) in outp.stream n
(PID.TID 0000.0001) >#                (see "available_diagnostics.log" file for the full list of diags)
(PID.TID 0000.0001) >#  missing_value(n) : missing value for real-type fields in output file "n"
(PID.TID 0000.0001) >#  fileFlags(n)     : specific code (8c string) for output file "n"
(PID.TID 0000.0001) >#--------------------
(PID.TID 0000.0001) ># oceTAUX  zonal surface wind stress, >0 increases uVel (N/m^2)
(PID.TID 0000.0001) ># oceTAUY  meridional surf. wind stress, >0 increases vVel (N/m^2)
(PID.TID 0000.0001) ># oceFWflx net surface Fresh-Water flux into ocean, >0 decreases salinity (kg/m^2/s)
(PID.TID 0000.0001) ># oceSflux net surface Salt flux into the ocean, >0 increases salinity (g/m^2/s)
(PID.TID 0000.0001) ># oceQnet  net surface heat flux into the ocean, >0 increases theta (W/m^2)
(PID.TID 0000.0001) ># oceQsw   net Short-Wave radiation (+=down), >0 increases theta (W/m^2)
(PID.TID 0000.0001) ># SSS      Sea Surface Salinity (g/kg)
(PID.TID 0000.0001) ># SST      Sea Surface Temperature (degC)
(PID.TID 0000.0001) ># UVEL1    Zonal Surface Velocity (m/s)
(PID.TID 0000.0001) ># VVEL1    Meridional Surface Velocity (m/s)
(PID.TID 0000.0001) >
(PID.TID 0000.0001) > &DIAGNOSTICS_LIST
(PID.TID 0000.0001) >   frequency(1)  = -3600.,
(PID.TID 0000.0001) >    fields(1,1)  = 'oceTAUX ',
(PID.TID 0000.0001) >    filename(1)  = 'oceTAUX',
(PID.TID 0000.0001) >   frequency(2)  = -3600.,
(PID.TID 0000.0001) >    fields(1,2)  = 'oceTAUY ',
(PID.TID 0000.0001) >    filename(2)  = 'oceTAUY',
(PID.TID 0000.0001) >   frequency(3)  = -3600.,
(PID.TID 0000.0001) >    fields(1,3)  = 'oceFWflx',
(PID.TID 0000.0001) >    filename(3)  = 'oceFWflx',
(PID.TID 0000.0001) >   frequency(4)  = -3600.,
(PID.TID 0000.0001) >    fields(1,4)  = 'oceSflux',
(PID.TID 0000.0001) >    filename(4)  = 'oceSflux',
(PID.TID 0000.0001) >   frequency(5)  = -3600.,
(PID.TID 0000.0001) >    fields(1,5)  = 'oceQnet ',
(PID.TID 0000.0001) >    filename(5)  = 'oceQnet',
(PID.TID 0000.0001) >   frequency(6)  = -3600.,
(PID.TID 0000.0001) >    fields(1,6)  = 'oceQsw  ',
(PID.TID 0000.0001) >    filename(6)  = 'oceQsw',
(PID.TID 0000.0001) >   frequency(7)  = -3600.,
(PID.TID 0000.0001) >    fields(1,7)  = 'SALT    ',
(PID.TID 0000.0001) >    levels(1,7)  = 1.,
(PID.TID 0000.0001) >    filename(7)  = 'SSS',
(PID.TID 0000.0001) >   frequency(8)  = -3600.,
(PID.TID 0000.0001) >    fields(1,8)  = 'THETA   ',
(PID.TID 0000.0001) >    levels(1,8)  = 1.,
(PID.TID 0000.0001) >    filename(8)  = 'SST',
(PID.TID 0000.0001) >   frequency(9)  = -3600.,
(PID.TID 0000.0001) >    fields(1,9)  = 'UVELMASS',
(PID.TID 0000.0001) >    levels(1,9)  = 1.,
(PID.TID 0000.0001) >    filename(9)  = 'UVEL1',
(PID.TID 0000.0001) >   frequency(10) = -3600.,
(PID.TID 0000.0001) >    fields(1,10) = 'VVELMASS',
(PID.TID 0000.0001) >    levels(1,10) = 1.,
(PID.TID 0000.0001) >    filename(10) = 'VVEL1',
(PID.TID 0000.0001) > /
(PID.TID 0000.0001) >
(PID.TID 0000.0001) > &DIAG_STATIS_PARMS
(PID.TID 0000.0001) > /
(PID.TID 0000.0001) 
(PID.TID 0000.0001) S/R DIAGNOSTICS_READPARMS, read namelist "diagnostics_list": start
(PID.TID 0000.0001) S/R DIAGNOSTICS_READPARMS, read namelist "diagnostics_list": OK
(PID.TID 0000.0001) S/R DIAGNOSTICS_READPARMS, read namelist "DIAG_STATIS_PARMS": start
(PID.TID 0000.0001) S/R DIAGNOSTICS_READPARMS, read namelist "DIAG_STATIS_PARMS": OK
(PID.TID 0000.0001)  DIAGNOSTICS_READPARMS: global parameter summary:
(PID.TID 0000.0001)  dumpAtLast = /* always write time-ave diags at the end */
(PID.TID 0000.0001)                   F
(PID.TID 0000.0001)     ;
(PID.TID 0000.0001)  diag_mnc =   /* write NetCDF output files */
(PID.TID 0000.0001)                   F
(PID.TID 0000.0001)     ;
(PID.TID 0000.0001)  useMissingValue = /* put MissingValue where mask = 0 */
(PID.TID 0000.0001)                   F
(PID.TID 0000.0001)     ;
(PID.TID 0000.0001)  diagCG_maxIters = /* max number of iters in diag_cg2d */
(PID.TID 0000.0001)                     150
(PID.TID 0000.0001)     ;
(PID.TID 0000.0001)  diagCG_resTarget = /* residual target for diag_cg2d */
(PID.TID 0000.0001)                 1.000000000000000E-07
(PID.TID 0000.0001)     ;
(PID.TID 0000.0001)  diagCG_pcOffDFac = /* preconditioner off-diagonal factor */
(PID.TID 0000.0001)                 9.611687812379854E-01
(PID.TID 0000.0001)     ;
(PID.TID 0000.0001) -----------------------------------------------------
(PID.TID 0000.0001)  DIAGNOSTICS_READPARMS: active diagnostics summary:
(PID.TID 0000.0001) -----------------------------------------------------
(PID.TID 0000.0001) Creating Output Stream: oceTAUX
(PID.TID 0000.0001) Output Frequency:      -3600.000000 ; Phase:        1800.000000
(PID.TID 0000.0001)  Averaging Freq.:          0.000000 , Phase:           0.000000 , Cycle:   1
(PID.TID 0000.0001)  missing value: -9.990000000000E+02
(PID.TID 0000.0001)  Levels:    will be set later
(PID.TID 0000.0001)  Fields:    oceTAUX
(PID.TID 0000.0001) Creating Output Stream: oceTAUY
(PID.TID 0000.0001) Output Frequency:      -3600.000000 ; Phase:        1800.000000
(PID.TID 0000.0001)  Averaging Freq.:          0.000000 , Phase:           0.000000 , Cycle:   1
(PID.TID 0000.0001)  missing value: -9.990000000000E+02
(PID.TID 0000.0001)  Levels:    will be set later
(PID.TID 0000.0001)  Fields:    oceTAUY
(PID.TID 0000.0001) Creating Output Stream: oceFWflx
(PID.TID 0000.0001) Output Frequency:      -3600.000000 ; Phase:        1800.000000
(PID.TID 0000.0001)  Averaging Freq.:          0.000000 , Phase:           0.000000 , Cycle:   1
(PID.TID 0000.0001)  missing value: -9.990000000000E+02
(PID.TID 0000.0001)  Levels:    will be set later
(PID.TID 0000.0001)  Fields:    oceFWflx
(PID.TID 0000.0001) Creating Output Stream: oceSflux
(PID.TID 0000.0001) Output Frequency:      -3600.000000 ; Phase:        1800.000000
(PID.TID 0000.0001)  Averaging Freq.:          0.000000 , Phase:           0.000000 , Cycle:   1
(PID.TID 0000.0001)  missing value: -9.990000000000E+02
(PID.TID 0000.0001)  Levels:    will be set later
(PID.TID 0000.0001)  Fields:    oceSflux
(PID.TID 0000.0001) Creating Output Stream: oceQnet
(PID.TID 0000.0001) Output Frequency:      -3600.000000 ; Phase:        1800.000000
(PID.TID 0000.0001)  Averaging Freq.:          0.000000 , Phase:           0.000000 , Cycle:   1
(PID.TID 0000.0001)  missing value: -9.990000000000E+02
(PID.TID 0000.0001)  Levels:    will be set later
(PID.TID 0000.0001)  Fields:    oceQnet
(PID.TID 0000.0001) Creating Output Stream: oceQsw
(PID.TID 0000.0001) Output Frequency:      -3600.000000 ; Phase:        1800.000000
(PID.TID 0000.0001)  Averaging Freq.:          0.000000 , Phase:           0.000000 , Cycle:   1
(PID.TID 0000.0001)  missing value: -9.990000000000E+02
(PID.TID 0000.0001)  Levels:    will be set later
(PID.TID 0000.0001)  Fields:    oceQsw
(PID.TID 0000.0001) Creating Output Stream: SSS
(PID.TID 0000.0001) Output Frequency:      -3600.000000 ; Phase:        1800.000000
(PID.TID 0000.0001)  Averaging Freq.:          0.000000 , Phase:           0.000000 , Cycle:   1
(PID.TID 0000.0001)  missing value: -9.990000000000E+02
(PID.TID 0000.0001)  Levels:       1.
(PID.TID 0000.0001)  Fields:    SALT
(PID.TID 0000.0001) Creating Output Stream: SST
(PID.TID 0000.0001) Output Frequency:      -3600.000000 ; Phase:        1800.000000
(PID.TID 0000.0001)  Averaging Freq.:          0.000000 , Phase:           0.000000 , Cycle:   1
(PID.TID 0000.0001)  missing value: -9.990000000000E+02
(PID.TID 0000.0001)  Levels:       1.
(PID.TID 0000.0001)  Fields:    THETA
(PID.TID 0000.0001) Creating Output Stream: UVEL1
(PID.TID 0000.0001) Output Frequency:      -3600.000000 ; Phase:        1800.000000
(PID.TID 0000.0001)  Averaging Freq.:          0.000000 , Phase:           0.000000 , Cycle:   1
(PID.TID 0000.0001)  missing value: -9.990000000000E+02
(PID.TID 0000.0001)  Levels:       1.
(PID.TID 0000.0001)  Fields:    UVELMASS
(PID.TID 0000.0001) Creating Output Stream: VVEL1
(PID.TID 0000.0001) Output Frequency:      -3600.000000 ; Phase:        1800.000000
(PID.TID 0000.0001)  Averaging Freq.:          0.000000 , Phase:           0.000000 , Cycle:   1
(PID.TID 0000.0001)  missing value: -9.990000000000E+02
(PID.TID 0000.0001)  Levels:       1.
(PID.TID 0000.0001)  Fields:    VVELMASS
(PID.TID 0000.0001) -----------------------------------------------------
(PID.TID 0000.0001)  DIAGNOSTICS_READPARMS: statistics diags. summary:
(PID.TID 0000.0001) -----------------------------------------------------
(PID.TID 0000.0001) 
(PID.TID 0000.0001) SET_PARMS: done
(PID.TID 0000.0001) Enter INI_VERTICAL_GRID: setInterFDr=    T ; setCenterDr=    F
(PID.TID 0000.0001) tile:   1 ; Read from file grid_cs32.face001.bin
(PID.TID 0000.0001)   => xC yC dxF dyF rA xG yG dxV dyU rAz dxC dyC rAw rAs dxG dyG AngleCS AngleSN
(PID.TID 0000.0001) %MON XC_max                       =   1.7854351589505E+02
(PID.TID 0000.0001) %MON XC_min                       =  -1.7854351589505E+02
(PID.TID 0000.0001) %MON XC_mean                      =  -4.6999441375798E-15
(PID.TID 0000.0001) %MON XC_sd                        =   1.0355545336287E+02
(PID.TID 0000.0001) %MON XG_max                       =   1.8000000000000E+02
(PID.TID 0000.0001) %MON XG_min                       =  -1.7708797161002E+02
(PID.TID 0000.0001) %MON XG_mean                      =   1.8603515625000E+00
(PID.TID 0000.0001) %MON XG_sd                        =   1.0357130300504E+02
(PID.TID 0000.0001) %MON DXC_max                      =   3.2375185836900E+05
(PID.TID 0000.0001) %MON DXC_min                      =   1.1142031410131E+05
(PID.TID 0000.0001) %MON DXC_mean                     =   2.8605689051214E+05
(PID.TID 0000.0001) %MON DXC_sd                       =   3.4042087138252E+04
(PID.TID 0000.0001) %MON DXF_max                      =   3.2369947500827E+05
(PID.TID 0000.0001) %MON DXF_min                      =   1.2020820513318E+05
(PID.TID 0000.0001) %MON DXF_mean                     =   2.8605437324820E+05
(PID.TID 0000.0001) %MON DXF_sd                       =   3.4050524252539E+04
(PID.TID 0000.0001) %MON DXG_max                      =   3.2375195872773E+05
(PID.TID 0000.0001) %MON DXG_min                      =   1.0098378008791E+05
(PID.TID 0000.0001) %MON DXG_mean                     =   2.8603818508931E+05
(PID.TID 0000.0001) %MON DXG_sd                       =   3.4140406908005E+04
(PID.TID 0000.0001) %MON DXV_max                      =   3.2380418162750E+05
(PID.TID 0000.0001) %MON DXV_min                      =   8.0152299824136E+04
(PID.TID 0000.0001) %MON DXV_mean                     =   2.8603970633619E+05
(PID.TID 0000.0001) %MON DXV_sd                       =   3.4145142117723E+04
(PID.TID 0000.0001) %MON YC_max                       =   8.7940663871962E+01
(PID.TID 0000.0001) %MON YC_min                       =  -8.7940663871962E+01
(PID.TID 0000.0001) %MON YC_mean                      =   0.0000000000000E+00
(PID.TID 0000.0001) %MON YC_sd                        =   3.8676242969072E+01
(PID.TID 0000.0001) %MON YG_max                       =   9.0000000000000E+01
(PID.TID 0000.0001) %MON YG_min                       =  -9.0000000000000E+01
(PID.TID 0000.0001) %MON YG_mean                      =  -1.1842378929335E-15
(PID.TID 0000.0001) %MON YG_sd                        =   3.8676895860710E+01
(PID.TID 0000.0001) %MON DYC_max                      =   3.2375185836900E+05
(PID.TID 0000.0001) %MON DYC_min                      =   1.1142031410131E+05
(PID.TID 0000.0001) %MON DYC_mean                     =   2.8605689051214E+05
(PID.TID 0000.0001) %MON DYC_sd                       =   3.4042087138252E+04
(PID.TID 0000.0001) %MON DYF_max                      =   3.2369947500827E+05
(PID.TID 0000.0001) %MON DYF_min                      =   1.2020820513318E+05
(PID.TID 0000.0001) %MON DYF_mean                     =   2.8605437324820E+05
(PID.TID 0000.0001) %MON DYF_sd                       =   3.4050524252539E+04
(PID.TID 0000.0001) %MON DYG_max                      =   3.2375195872773E+05
(PID.TID 0000.0001) %MON DYG_min                      =   1.0098378008791E+05
(PID.TID 0000.0001) %MON DYG_mean                     =   2.8603818508931E+05
(PID.TID 0000.0001) %MON DYG_sd                       =   3.4140406908005E+04
(PID.TID 0000.0001) %MON DYU_max                      =   3.2380418162750E+05
(PID.TID 0000.0001) %MON DYU_min                      =   8.0152299824136E+04
(PID.TID 0000.0001) %MON DYU_mean                     =   2.8603970633619E+05
(PID.TID 0000.0001) %MON DYU_sd                       =   3.4145142117723E+04
(PID.TID 0000.0001) %MON RA_max                       =   1.0479260248419E+11
(PID.TID 0000.0001) %MON RA_min                       =   1.4019007022556E+10
(PID.TID 0000.0001) %MON RA_mean                      =   8.2992246709265E+10
(PID.TID 0000.0001) %MON RA_sd                        =   1.7509089299457E+10
(PID.TID 0000.0001) %MON RAW_max                      =   1.0480965274559E+11
(PID.TID 0000.0001) %MON RAW_min                      =   1.2166903467143E+10
(PID.TID 0000.0001) %MON RAW_mean                     =   8.2992246709235E+10
(PID.TID 0000.0001) %MON RAW_sd                       =   1.7481917919656E+10
(PID.TID 0000.0001) %MON RAS_max                      =   1.0480965274559E+11
(PID.TID 0000.0001) %MON RAS_min                      =   1.2166903467143E+10
(PID.TID 0000.0001) %MON RAS_mean                     =   8.2992246709235E+10
(PID.TID 0000.0001) %MON RAS_sd                       =   1.7481917919656E+10
(PID.TID 0000.0001) %MON RAZ_max                      =   1.0484349334619E+11
(PID.TID 0000.0001) %MON RAZ_min                      =   8.8317900612505E+09
(PID.TID 0000.0001) %MON RAZ_mean                     =   8.2992246709235E+10
(PID.TID 0000.0001) %MON RAZ_sd                       =   1.7482297311044E+10
(PID.TID 0000.0001) %MON AngleCS_max                  =   9.9999994756719E-01
(PID.TID 0000.0001) %MON AngleCS_min                  =  -9.9968286884824E-01
(PID.TID 0000.0001) %MON AngleCS_mean                 =   3.3078922539000E-01
(PID.TID 0000.0001) %MON AngleCS_sd                   =   6.2496278958502E-01
(PID.TID 0000.0001) %MON AngleSN_max                  =   9.9968286884824E-01
(PID.TID 0000.0001) %MON AngleSN_min                  =  -9.9999994756719E-01
(PID.TID 0000.0001) %MON AngleSN_mean                 =  -3.3078922539000E-01
(PID.TID 0000.0001) %MON AngleSN_sd                   =   6.2496278958502E-01
(PID.TID 0000.0001)  MDS_READ_FIELD: opening global file: bathy_Hmin50.bin
(PID.TID 0000.0001) // =======================================================
(PID.TID 0000.0001) // Field Model R_low (ini_masks_etc)
(PID.TID 0000.0001) // CMIN =         -5.200000000000000E+03
(PID.TID 0000.0001) // CMAX =         -5.000000000000000E+01
(PID.TID 0000.0001) // CINT =          1.907407407407407E+02
(PID.TID 0000.0001) // SYMBOLS (CMIN->CMAX): -abcdefghijklmnopqrstuvwxyz+
(PID.TID 0000.0001) //                  0.0: .
(PID.TID 0000.0001) // RANGE I (Lo:Hi:Step):(    -3:    36:     1)
(PID.TID 0000.0001) // RANGE J (Lo:Hi:Step):(    36:    -3:    -1)
(PID.TID 0000.0001) // RANGE K (Lo:Hi:Step):(   1:   1:   1)
(PID.TID 0000.0001) // =======================================================
(PID.TID 0000.0001) K =   1
(PID.TID 0000.0001) //                I=6       I=16      I=26      I=36
(PID.TID 0000.0001) // |--J--|321012345|789012345|789012345|789012345|
(PID.TID 0000.0001) //     36 cbbc-ddcbcdehkhhmn..++..................
(PID.TID 0000.0001) //     35 dcac--cbbeefjkfefw+..........zpu........
(PID.TID 0000.0001) //     34 d--ba-abcehjnldcclz+........spps........
(PID.TID 0000.0001) //     33 --abbbccceiomkfdbbc+.......+s...........
(PID.TID 0000.0001) //     32 --bddefhhkqqlgfaakqz..v.+..+............
(PID.TID 0000.0001) //     31 abbcffijnpnqneaaat..umrr+s.z............
(PID.TID 0000.0001) //     30 --adgillkkkifcadcx.ymmqzqikvnnps........
(PID.TID 0000.0001) //     29 --cfiljigfjd--efdozy...+ximpnnuz........
(PID.TID 0000.0001) //     28 -abgkhfcccea-bdei........t..............
(PID.TID 0000.0001) //     27 -acghfbaaaa-achmy......................+
(PID.TID 0000.0001) //     26 -adhfca-----bfiv.......................+
(PID.TID 0000.0001) //     25 -achfa------ch+..................w......
(PID.TID 0000.0001) //     24 aaeifa--acbcei...................w......
(PID.TID 0000.0001) //     23 abfida-aabchjk...................zz.....
(PID.TID 0000.0001) //     22 -afhfaa---bfgi....................zz..rn
(PID.TID 0000.0001) //     21 babcgca----abe.....................ysstl
(PID.TID 0000.0001) //     20 fbbbcgfcaa-aae+.......................lc
(PID.TID 0000.0001) //     19 zmfeccdghfeegcbt......................aa
(PID.TID 0000.0001) //     18 ..wifedfkhfegbbcivlqfoz..............jaa
(PID.TID 0000.0001) //     17 ..+wfeefikhgcbbccaaacgn.............icaa
(PID.TID 0000.0001) //     16 ....wiheddeccdfhfbabdfl............jdbad
(PID.TID 0000.0001) //     15 ......ylea--acfihebcbbes..........sfcbbn
(PID.TID 0000.0001) //     14 ........c---acgkhdcc--di..........ofddch
(PID.TID 0000.0001) //     13 .......+b----cfkhec---afz.........nhfdff
(PID.TID 0000.0001) //     12 .......ec----chjhec---ag..........skiqdd
(PID.TID 0000.0001) //     11 ......pdca--achlheba--ai..........nkn.fd
(PID.TID 0000.0001) //     10 ......wfdb--achlhea---an.........uos..dc
(PID.TID 0000.0001) //      9 ......vgec---bfikca--cjl+.......+nnv.+cc
(PID.TID 0000.0001) //      8 .....zleca---afjfca--hdfz.......vkky.jce
(PID.TID 0000.0001) //      7 ...+zohec--abcfkhecbchbdx.......qiht.faa
(PID.TID 0000.0001) //      6 ..+yomfddcaabefkifdchaadt......uqdeisc--
(PID.TID 0000.0001) //      5 ..+nhgffkghccfhkhffgdaackz....uoibcimlaa
(PID.TID 0000.0001) //      4 .+ujhgfllfhdffhkfffca-aady...llnabdopfcb
(PID.TID 0000.0001) //      3 +vjggfcceeffffjlkjgaa---bfvheeln-aesphfd
(PID.TID 0000.0001) //      2 qifeecbbccddefilihecbaacbaajfega-aesqhff
(PID.TID 0000.0001) //      1 ebbbbaaaaaccdfhlhfefdcccaabjefbaaafonhgl
(PID.TID 0000.0001) //      0 -aaaaaaa-aacccfikkhecccbbbaaabaadfkllilm
(PID.TID 0000.0001) //     -1 --aaaaa----aacffiljgfffcca--adfikkiikimi
(PID.TID 0000.0001) //     -2 --aaa-------acdefinmlgiieb-chnnnmlmlfklk
(PID.TID 0000.0001) //     -3 a--a---aa---aedeegknmlgiigcdfhpokkimdkmk
(PID.TID 0000.0001) // =======================================================
(PID.TID 0000.0001) // END OF FIELD                                          =
(PID.TID 0000.0001) // =======================================================
(PID.TID 0000.0001) 
(PID.TID 0000.0001) // =======================================================
(PID.TID 0000.0001) // Field Model Ro_surf (ini_masks_etc)
(PID.TID 0000.0001) // CMIN =          1.000000000000000E+32
(PID.TID 0000.0001) // CMAX =         -1.000000000000000E+32
(PID.TID 0000.0001) // CINT =          0.000000000000000E+00
(PID.TID 0000.0001) // SYMBOLS (CMIN->CMAX): -abcdefghijklmnopqrstuvwxyz+
(PID.TID 0000.0001) //                  0.0: .
(PID.TID 0000.0001) // RANGE I (Lo:Hi:Step):(    -3:    36:     1)
(PID.TID 0000.0001) // RANGE J (Lo:Hi:Step):(    36:    -3:    -1)
(PID.TID 0000.0001) // RANGE K (Lo:Hi:Step):(   1:   1:   1)
(PID.TID 0000.0001) // =======================================================
(PID.TID 0000.0001) // =======================================================
(PID.TID 0000.0001) // END OF FIELD                                          =
(PID.TID 0000.0001) // =======================================================
(PID.TID 0000.0001) 
(PID.TID 0000.0001) // =======================================================
(PID.TID 0000.0001) // Field hFacC at iteration          0
(PID.TID 0000.0001) // CMIN =          1.000000000000000E+00
(PID.TID 0000.0001) // CMAX =          1.000000000000000E+00
(PID.TID 0000.0001) // CINT =          0.000000000000000E+00
(PID.TID 0000.0001) // SYMBOLS (CMIN->CMAX): -abcdefghijklmnopqrstuvwxyz+
(PID.TID 0000.0001) //                  0.0: .
(PID.TID 0000.0001) // RANGE I (Lo:Hi:Step):(    -3:    36:     1)
(PID.TID 0000.0001) // RANGE J (Lo:Hi:Step):(    36:    -3:    -1)
(PID.TID 0000.0001) // RANGE K (Lo:Hi:Step):(   1:   1:   1)
(PID.TID 0000.0001) // =======================================================
(PID.TID 0000.0001) // =======================================================
(PID.TID 0000.0001) // END OF FIELD                                          =
(PID.TID 0000.0001) // =======================================================
(PID.TID 0000.0001) 
(PID.TID 0000.0001) // =======================================================
(PID.TID 0000.0001) // Field hFacW at iteration          0
(PID.TID 0000.0001) // CMIN =          1.000000000000000E+00
(PID.TID 0000.0001) // CMAX =          1.000000000000000E+00
(PID.TID 0000.0001) // CINT =          0.000000000000000E+00
(PID.TID 0000.0001) // SYMBOLS (CMIN->CMAX): -abcdefghijklmnopqrstuvwxyz+
(PID.TID 0000.0001) //                  0.0: .
(PID.TID 0000.0001) // RANGE I (Lo:Hi:Step):(    -3:    36:     1)
(PID.TID 0000.0001) // RANGE J (Lo:Hi:Step):(    36:    -3:    -1)
(PID.TID 0000.0001) // RANGE K (Lo:Hi:Step):(   1:   1:   1)
(PID.TID 0000.0001) // =======================================================
(PID.TID 0000.0001) // =======================================================
(PID.TID 0000.0001) // END OF FIELD                                          =
(PID.TID 0000.0001) // =======================================================
(PID.TID 0000.0001) 
(PID.TID 0000.0001) // =======================================================
(PID.TID 0000.0001) // Field hFacS at iteration          0
(PID.TID 0000.0001) // CMIN =          1.000000000000000E+00
(PID.TID 0000.0001) // CMAX =          1.000000000000000E+00
(PID.TID 0000.0001) // CINT =          0.000000000000000E+00
(PID.TID 0000.0001) // SYMBOLS (CMIN->CMAX): -abcdefghijklmnopqrstuvwxyz+
(PID.TID 0000.0001) //                  0.0: .
(PID.TID 0000.0001) // RANGE I (Lo:Hi:Step):(    -3:    36:     1)
(PID.TID 0000.0001) // RANGE J (Lo:Hi:Step):(    36:    -3:    -1)
(PID.TID 0000.0001) // RANGE K (Lo:Hi:Step):(   1:   1:   1)
(PID.TID 0000.0001) // =======================================================
(PID.TID 0000.0001) // =======================================================
(PID.TID 0000.0001) // END OF FIELD                                          =
(PID.TID 0000.0001) // =======================================================
(PID.TID 0000.0001) 
(PID.TID 0000.0001) GAD_INIT_FIXED: GAD_OlMinSize=  1  0  1
(PID.TID 0000.0001) 
(PID.TID 0000.0001) // ===================================
(PID.TID 0000.0001) // GAD parameters :
(PID.TID 0000.0001) // ===================================
(PID.TID 0000.0001) tempAdvScheme =   /* Temp. Horiz.Advection scheme selector */
(PID.TID 0000.0001)                       2
(PID.TID 0000.0001)     ;
(PID.TID 0000.0001) tempVertAdvScheme =   /* Temp. Vert. Advection scheme selector */
(PID.TID 0000.0001)                       2
(PID.TID 0000.0001)     ;
(PID.TID 0000.0001) tempMultiDimAdvec =   /* use Muti-Dim Advec method for Temp */
(PID.TID 0000.0001)                   F
(PID.TID 0000.0001)     ;
(PID.TID 0000.0001) tempSOM_Advection = /* use 2nd Order Moment Advection for Temp */
(PID.TID 0000.0001)                   F
(PID.TID 0000.0001)     ;
(PID.TID 0000.0001) AdamsBashforthGt = /* apply Adams-Bashforth extrapolation on Gt */
(PID.TID 0000.0001)                   T
(PID.TID 0000.0001)     ;
(PID.TID 0000.0001) AdamsBashforth_T = /* apply Adams-Bashforth extrapolation on Temp */
(PID.TID 0000.0001)                   F
(PID.TID 0000.0001)     ;
(PID.TID 0000.0001) saltAdvScheme =   /* Salt. Horiz.advection scheme selector */
(PID.TID 0000.0001)                       2
(PID.TID 0000.0001)     ;
(PID.TID 0000.0001) saltVertAdvScheme =   /* Salt. Vert. Advection scheme selector */
(PID.TID 0000.0001)                       2
(PID.TID 0000.0001)     ;
(PID.TID 0000.0001) saltMultiDimAdvec =   /* use Muti-Dim Advec method for Salt */
(PID.TID 0000.0001)                   F
(PID.TID 0000.0001)     ;
(PID.TID 0000.0001) saltSOM_Advection = /* use 2nd Order Moment Advection for Salt */
(PID.TID 0000.0001)                   F
(PID.TID 0000.0001)     ;
(PID.TID 0000.0001) AdamsBashforthGs = /* apply Adams-Bashforth extrapolation on Gs */
(PID.TID 0000.0001)                   T
(PID.TID 0000.0001)     ;
(PID.TID 0000.0001) AdamsBashforth_S = /* apply Adams-Bashforth extrapolation on Salt */
(PID.TID 0000.0001)                   F
(PID.TID 0000.0001)     ;
(PID.TID 0000.0001) // ===================================
(PID.TID 0000.0001) ------------------------------------------------------------
(PID.TID 0000.0001) DIAGNOSTICS_SET_LEVELS: done
(PID.TID 0000.0001)  Total Nb of available Diagnostics: ndiagt=   215
(PID.TID 0000.0001)  write list of available Diagnostics to file: available_diagnostics.log
(PID.TID 0000.0001) SETDIAG: Allocate  1 x  1 Levels for Diagnostic #    81 oceTAUX
(PID.TID 0000.0001) SETDIAG: Allocate  1 x  1 Levels for Diagnostic #    82 oceTAUY
(PID.TID 0000.0001) SETDIAG: Allocate  1 x  1 Levels for Diagnostic #    85 oceFWflx
(PID.TID 0000.0001) SETDIAG: Allocate  1 x  1 Levels for Diagnostic #    86 oceSflux
(PID.TID 0000.0001) SETDIAG: Allocate  1 x  1 Levels for Diagnostic #    87 oceQnet
(PID.TID 0000.0001) SETDIAG: Allocate  1 x  1 Levels for Diagnostic #    88 oceQsw
(PID.TID 0000.0001) SETDIAG: Allocate 15 x  1 Levels for Diagnostic #    27 SALT
(PID.TID 0000.0001) SETDIAG: Allocate 15 x  1 Levels for Diagnostic #    26 THETA
(PID.TID 0000.0001) SETDIAG: Allocate 15 x  1 Levels for Diagnostic #    45 UVELMASS
(PID.TID 0000.0001) SETDIAG: Allocate 15 x  1 Levels for Diagnostic #    46 VVELMASS
(PID.TID 0000.0001)   space allocated for all diagnostics:      66 levels
(PID.TID 0000.0001)   set mate pointer for diag #    81  oceTAUX  , Parms: UU      U1 , mate:    82
(PID.TID 0000.0001)   set mate pointer for diag #    82  oceTAUY  , Parms: VV      U1 , mate:    81
(PID.TID 0000.0001)   set mate pointer for diag #    45  UVELMASS , Parms: UUr     MR , mate:    46
(PID.TID 0000.0001)   set mate pointer for diag #    46  VVELMASS , Parms: VVr     MR , mate:    45
(PID.TID 0000.0001) DIAGNOSTICS_SET_POINTERS: Set levels for Outp.Stream: oceTAUX
(PID.TID 0000.0001)  Levels:       1.
(PID.TID 0000.0001) DIAGNOSTICS_SET_POINTERS: Set levels for Outp.Stream: oceTAUY
(PID.TID 0000.0001)  Levels:       1.
(PID.TID 0000.0001) DIAGNOSTICS_SET_POINTERS: Set levels for Outp.Stream: oceFWflx
(PID.TID 0000.0001)  Levels:       1.
(PID.TID 0000.0001) DIAGNOSTICS_SET_POINTERS: Set levels for Outp.Stream: oceSflux
(PID.TID 0000.0001)  Levels:       1.
(PID.TID 0000.0001) DIAGNOSTICS_SET_POINTERS: Set levels for Outp.Stream: oceQnet
(PID.TID 0000.0001)  Levels:       1.
(PID.TID 0000.0001) DIAGNOSTICS_SET_POINTERS: Set levels for Outp.Stream: oceQsw
(PID.TID 0000.0001)  Levels:       1.
(PID.TID 0000.0001) DIAGNOSTICS_SET_POINTERS: done
(PID.TID 0000.0001) ------------------------------------------------------------
(PID.TID 0000.0001) DIAGSTATS_SET_REGIONS: define   0 regions:
(PID.TID 0000.0001) ------------------------------------------------------------
(PID.TID 0000.0001)   space allocated for all stats-diags:       0 levels
(PID.TID 0000.0001) DIAGSTATS_SET_POINTERS: done
(PID.TID 0000.0001) ------------------------------------------------------------
(PID.TID 0000.0001) INI_GLOBAL_DOMAIN: Found  19 CS-corner Pts in the domain
(PID.TID 0000.0001) %MON fCori_max                    =   1.4574827780704E-04
(PID.TID 0000.0001) %MON fCori_min                    =  -1.4574827780704E-04
(PID.TID 0000.0001) %MON fCori_mean                   =   0.0000000000000E+00
(PID.TID 0000.0001) %MON fCori_sd                     =   8.4202189509968E-05
(PID.TID 0000.0001) %MON fCoriG_max                   =   1.4584247033981E-04
(PID.TID 0000.0001) %MON fCoriG_min                   =  -1.4584247033981E-04
(PID.TID 0000.0001) %MON fCoriG_mean                  =   2.2587545260115E-21
(PID.TID 0000.0001) %MON fCoriG_sd                    =   8.4202189509968E-05
(PID.TID 0000.0001) %MON fCoriCos_max                 =   1.4580166994612E-04
(PID.TID 0000.0001) %MON fCoriCos_min                 =   5.2407700865903E-06
(PID.TID 0000.0001) %MON fCoriCos_mean                =   1.1514045869113E-04
(PID.TID 0000.0001) %MON fCoriCos_sd                  =   3.0375849106513E-05
(PID.TID 0000.0001) INI_CG2D: CG2D normalisation factor =  1.9156564154949553E-04
(PID.TID 0000.0001) 
(PID.TID 0000.0001) // =======================================================
(PID.TID 0000.0001) // Model configuration
(PID.TID 0000.0001) // =======================================================
(PID.TID 0000.0001) //
(PID.TID 0000.0001) // "Physical" paramters ( PARM01 in namelist )
(PID.TID 0000.0001) //
(PID.TID 0000.0001) buoyancyRelation = /* Type of relation to get Buoyancy */
(PID.TID 0000.0001)               'OCEANIC'
(PID.TID 0000.0001)     ;
(PID.TID 0000.0001) fluidIsAir   =  /* fluid major constituent is Air */
(PID.TID 0000.0001)                   F
(PID.TID 0000.0001)     ;
(PID.TID 0000.0001) fluidIsWater =  /* fluid major constituent is Water */
(PID.TID 0000.0001)                   T
(PID.TID 0000.0001)     ;
(PID.TID 0000.0001) usingPCoords =  /* use p (or p*) vertical coordinate */
(PID.TID 0000.0001)                   F
(PID.TID 0000.0001)     ;
(PID.TID 0000.0001) usingZCoords =  /* use z (or z*) vertical coordinate */
(PID.TID 0000.0001)                   T
(PID.TID 0000.0001)     ;
(PID.TID 0000.0001) tRef =   /* Reference temperature profile ( oC or K ) */
(PID.TID 0000.0001)    15 @  2.000000000000000E+01              /* K =  1: 15 */
(PID.TID 0000.0001)     ;
(PID.TID 0000.0001) sRef =   /* Reference salinity profile ( psu ) */
(PID.TID 0000.0001)    15 @  3.500000000000000E+01              /* K =  1: 15 */
(PID.TID 0000.0001)     ;
(PID.TID 0000.0001) useStrainTensionVisc= /* Use StrainTension Form of Viscous Operator */
(PID.TID 0000.0001)                   F
(PID.TID 0000.0001)     ;
(PID.TID 0000.0001) useVariableVisc = /* Use variable horizontal viscosity */
(PID.TID 0000.0001)                   F
(PID.TID 0000.0001)     ;
(PID.TID 0000.0001) useHarmonicVisc = /* Use harmonic horizontal viscosity */
(PID.TID 0000.0001)                   T
(PID.TID 0000.0001)     ;
(PID.TID 0000.0001) useBiharmonicVisc= /* Use biharmonic horiz.  viscosity */
(PID.TID 0000.0001)                   F
(PID.TID 0000.0001)     ;
(PID.TID 0000.0001) useSmag3D = /* Use isotropic 3-D Smagorinsky viscosity */
(PID.TID 0000.0001)                   F
(PID.TID 0000.0001)     ;
(PID.TID 0000.0001) viscAh  =   /* Lateral harmonic viscosity ( m^2/s ) */
(PID.TID 0000.0001)                 3.000000000000000E+05
(PID.TID 0000.0001)     ;
(PID.TID 0000.0001) viscA4  =   /* Lateral biharmonic viscosity ( m^4/s ) */
(PID.TID 0000.0001)                 0.000000000000000E+00
(PID.TID 0000.0001)     ;
(PID.TID 0000.0001) no_slip_sides =  /* Viscous BCs: No-slip sides */
(PID.TID 0000.0001)                   T
(PID.TID 0000.0001)     ;
(PID.TID 0000.0001) sideDragFactor = /* side-drag scaling factor (non-dim) */
(PID.TID 0000.0001)                 2.000000000000000E+00
(PID.TID 0000.0001)     ;
(PID.TID 0000.0001) viscArNr = /* vertical profile of vertical viscosity ( m^2/s )*/
(PID.TID 0000.0001)    15 @  1.000000000000000E-03              /* K =  1: 15 */
(PID.TID 0000.0001)     ;
(PID.TID 0000.0001) no_slip_bottom =  /* Viscous BCs: No-slip bottom */
(PID.TID 0000.0001)                   T
(PID.TID 0000.0001)     ;
(PID.TID 0000.0001) bottomVisc_pCell = /* Partial-cell in bottom Visc. BC */
(PID.TID 0000.0001)                   F
(PID.TID 0000.0001)     ;
(PID.TID 0000.0001) bottomDragLinear = /* linear bottom-drag coefficient ( m/s ) */
(PID.TID 0000.0001)                 0.000000000000000E+00
(PID.TID 0000.0001)     ;
(PID.TID 0000.0001) bottomDragQuadratic = /* quadratic bottom-drag coefficient (-) */
(PID.TID 0000.0001)                 0.000000000000000E+00
(PID.TID 0000.0001)     ;
(PID.TID 0000.0001) selectBotDragQuadr = /* select quadratic bottom drag options */
(PID.TID 0000.0001)                      -1
(PID.TID 0000.0001)     ;
(PID.TID 0000.0001) diffKhT =   /* Laplacian diffusion of heat laterally ( m^2/s ) */
(PID.TID 0000.0001)                 0.000000000000000E+00
(PID.TID 0000.0001)     ;
(PID.TID 0000.0001) diffK4T =   /* Biharmonic diffusion of heat laterally ( m^4/s ) */
(PID.TID 0000.0001)                 0.000000000000000E+00
(PID.TID 0000.0001)     ;
(PID.TID 0000.0001) diffKhS =   /* Laplacian diffusion of salt laterally ( m^2/s ) */
(PID.TID 0000.0001)                 0.000000000000000E+00
(PID.TID 0000.0001)     ;
(PID.TID 0000.0001) diffK4S =   /* Biharmonic diffusion of salt laterally ( m^4/s ) */
(PID.TID 0000.0001)                 0.000000000000000E+00
(PID.TID 0000.0001)     ;
(PID.TID 0000.0001) diffKrNrT = /* vertical profile of vertical diffusion of Temp ( m^2/s )*/
(PID.TID 0000.0001)    15 @  3.000000000000000E-05              /* K =  1: 15 */
(PID.TID 0000.0001)     ;
(PID.TID 0000.0001) diffKrNrS = /* vertical profile of vertical diffusion of Salt ( m^2/s )*/
(PID.TID 0000.0001)    15 @  3.000000000000000E-05              /* K =  1: 15 */
(PID.TID 0000.0001)     ;
(PID.TID 0000.0001) diffKrBL79surf = /* Surface diffusion for Bryan and Lewis 79 ( m^2/s ) */
(PID.TID 0000.0001)                 0.000000000000000E+00
(PID.TID 0000.0001)     ;
(PID.TID 0000.0001) diffKrBL79deep = /* Deep diffusion for Bryan and Lewis 1979 ( m^2/s ) */
(PID.TID 0000.0001)                 0.000000000000000E+00
(PID.TID 0000.0001)     ;
(PID.TID 0000.0001) diffKrBL79scl = /* Depth scale for Bryan and Lewis 1979 ( m ) */
(PID.TID 0000.0001)                 2.000000000000000E+02
(PID.TID 0000.0001)     ;
(PID.TID 0000.0001) diffKrBL79Ho = /* Turning depth for Bryan and Lewis 1979 ( m ) */
(PID.TID 0000.0001)                -2.000000000000000E+03
(PID.TID 0000.0001)     ;
(PID.TID 0000.0001) ivdc_kappa = /* Implicit Vertical Diffusivity for Convection ( m^2/s) */
(PID.TID 0000.0001)                 1.000000000000000E+01
(PID.TID 0000.0001)     ;
(PID.TID 0000.0001) hMixCriteria=  /* Criteria for mixed-layer diagnostic */
(PID.TID 0000.0001)                -8.000000000000000E-01
(PID.TID 0000.0001)     ;
(PID.TID 0000.0001) dRhoSmall =  /* Parameter for mixed-layer diagnostic */
(PID.TID 0000.0001)                 1.000000000000000E-06
(PID.TID 0000.0001)     ;
(PID.TID 0000.0001) hMixSmooth=  /* Smoothing parameter for mixed-layer diagnostic */
(PID.TID 0000.0001)                 0.000000000000000E+00
(PID.TID 0000.0001)     ;
(PID.TID 0000.0001) eosType =  /* Type of Equation of State */
(PID.TID 0000.0001)               'JMD95Z'
(PID.TID 0000.0001)     ;
(PID.TID 0000.0001) selectP_inEOS_Zc = /* select pressure to use in EOS (0,1,2,3) */
(PID.TID 0000.0001)                       0
(PID.TID 0000.0001)     0= -g*rhoConst*z ; 1= pRef (from tRef,sRef); 2= Hyd P ; 3= Hyd+NH P
(PID.TID 0000.0001)     ;
(PID.TID 0000.0001) HeatCapacity_Cp =  /* Specific heat capacity ( J/kg/K ) */
(PID.TID 0000.0001)                 3.994000000000000E+03
(PID.TID 0000.0001)     ;
(PID.TID 0000.0001) celsius2K = /* 0 degree Celsius converted to Kelvin ( K ) */
(PID.TID 0000.0001)                 2.731500000000000E+02
(PID.TID 0000.0001)     ;
(PID.TID 0000.0001) rhoConst  = /* Reference density (Boussinesq)  ( kg/m^3 ) */
(PID.TID 0000.0001)                 1.035000000000000E+03
(PID.TID 0000.0001)     ;
(PID.TID 0000.0001) rhoFacC = /* normalized Reference density @ cell-Center (-) */
(PID.TID 0000.0001)    15 @  1.000000000000000E+00              /* K =  1: 15 */
(PID.TID 0000.0001)     ;
(PID.TID 0000.0001) rhoFacF = /* normalized Reference density @ W-Interface (-) */
(PID.TID 0000.0001)    16 @  1.000000000000000E+00              /* K =  1: 16 */
(PID.TID 0000.0001)     ;
(PID.TID 0000.0001) rhoConstFresh = /* Fresh-water reference density ( kg/m^3 ) */
(PID.TID 0000.0001)                 1.000000000000000E+03
(PID.TID 0000.0001)     ;
(PID.TID 0000.0001) gravity =   /* Gravitational acceleration ( m/s^2 ) */
(PID.TID 0000.0001)                 9.810000000000000E+00
(PID.TID 0000.0001)     ;
(PID.TID 0000.0001) gBaro =   /* Barotropic gravity ( m/s^2 ) */
(PID.TID 0000.0001)                 9.810000000000000E+00
(PID.TID 0000.0001)     ;
(PID.TID 0000.0001) gravFacC = /* gravity factor (vs surf.) @ cell-Center (-) */
(PID.TID 0000.0001)    15 @  1.000000000000000E+00              /* K =  1: 15 */
(PID.TID 0000.0001)     ;
(PID.TID 0000.0001) gravFacF = /* gravity factor (vs surf.) @ W-Interface (-) */
(PID.TID 0000.0001)    16 @  1.000000000000000E+00              /* K =  1: 16 */
(PID.TID 0000.0001)     ;
(PID.TID 0000.0001) rotationPeriod =   /* Rotation Period ( s ) */
(PID.TID 0000.0001)                 8.616400000000000E+04
(PID.TID 0000.0001)     ;
(PID.TID 0000.0001) omega =   /* Angular velocity ( rad/s ) */
(PID.TID 0000.0001)                 7.292123516990375E-05
(PID.TID 0000.0001)     ;
(PID.TID 0000.0001) f0 =   /* Reference coriolis parameter ( 1/s ) */
(PID.TID 0000.0001)                 1.000000000000000E-04
(PID.TID 0000.0001)     ;
(PID.TID 0000.0001) beta =   /* Beta ( 1/(m.s) ) */
(PID.TID 0000.0001)                 9.999999999999999E-12
(PID.TID 0000.0001)     ;
(PID.TID 0000.0001) fPrime =   /* Second coriolis parameter ( 1/s ) */
(PID.TID 0000.0001)                 0.000000000000000E+00
(PID.TID 0000.0001)     ;
(PID.TID 0000.0001) rigidLid =   /* Rigid lid on/off flag */
(PID.TID 0000.0001)                   F
(PID.TID 0000.0001)     ;
(PID.TID 0000.0001) implicitFreeSurface =   /* Implicit free surface on/off flag */
(PID.TID 0000.0001)                   T
(PID.TID 0000.0001)     ;
(PID.TID 0000.0001) freeSurfFac =   /* Implicit free surface factor */
(PID.TID 0000.0001)                 1.000000000000000E+00
(PID.TID 0000.0001)     ;
(PID.TID 0000.0001) implicSurfPress =  /* Surface Pressure implicit factor (0-1)*/
(PID.TID 0000.0001)                 1.000000000000000E+00
(PID.TID 0000.0001)     ;
(PID.TID 0000.0001) implicDiv2DFlow =  /* Barot. Flow Div. implicit factor (0-1)*/
(PID.TID 0000.0001)                 1.000000000000000E+00
(PID.TID 0000.0001)     ;
(PID.TID 0000.0001) uniformLin_PhiSurf = /* use uniform Bo_surf on/off flag*/
(PID.TID 0000.0001)                   T
(PID.TID 0000.0001)     ;
(PID.TID 0000.0001) uniformFreeSurfLev = /* free-surface level-index is uniform */
(PID.TID 0000.0001)                   T
(PID.TID 0000.0001)     ;
(PID.TID 0000.0001) hFacMin =   /* minimum partial cell factor (hFac) */
(PID.TID 0000.0001)                 1.000000000000000E-01
(PID.TID 0000.0001)     ;
(PID.TID 0000.0001) hFacMinDr = /* minimum partial cell thickness ( m) */
(PID.TID 0000.0001)                 2.000000000000000E+01
(PID.TID 0000.0001)     ;
(PID.TID 0000.0001) exactConserv =  /* Exact Volume Conservation on/off flag*/
(PID.TID 0000.0001)                   T
(PID.TID 0000.0001)     ;
(PID.TID 0000.0001) linFSConserveTr = /* Tracer correction for Lin Free Surface on/off flag*/
(PID.TID 0000.0001)                   F
(PID.TID 0000.0001)     ;
(PID.TID 0000.0001) nonlinFreeSurf = /* Non-linear Free Surf. options (-1,0,1,2,3)*/
(PID.TID 0000.0001)                       4
(PID.TID 0000.0001)      -1,0= Off ; 1,2,3= On, 2=+rescale gU,gV, 3=+update cg2d solv.
(PID.TID 0000.0001)     ;
(PID.TID 0000.0001) hFacInf =   /* lower threshold for hFac (nonlinFreeSurf only)*/
(PID.TID 0000.0001)                 2.000000000000000E-01
(PID.TID 0000.0001)     ;
(PID.TID 0000.0001) hFacSup =   /* upper threshold for hFac (nonlinFreeSurf only)*/
(PID.TID 0000.0001)                 2.000000000000000E+00
(PID.TID 0000.0001)     ;
(PID.TID 0000.0001) select_rStar = /* r* Vertical coord. options (=0 r coord.; >0 uses r*)*/
(PID.TID 0000.0001)                       2
(PID.TID 0000.0001)     ;
(PID.TID 0000.0001) useRealFreshWaterFlux = /* Real Fresh Water Flux on/off flag*/
(PID.TID 0000.0001)                   T
(PID.TID 0000.0001)     ;
(PID.TID 0000.0001) temp_EvPrRn = /* Temp. of Evap/Prec/R (UNSET=use local T)(oC)*/
(PID.TID 0000.0001)                 1.234567000000000E+05
(PID.TID 0000.0001)     ;
(PID.TID 0000.0001) salt_EvPrRn = /* Salin. of Evap/Prec/R (UNSET=use local S)(psu)*/
(PID.TID 0000.0001)                 0.000000000000000E+00
(PID.TID 0000.0001)     ;
(PID.TID 0000.0001) selectAddFluid = /* option for mass source/sink of fluid (=0: off) */
(PID.TID 0000.0001)                       0
(PID.TID 0000.0001)     ;
(PID.TID 0000.0001) temp_addMass = /* Temp. of addMass array (UNSET=use local T)(oC)*/
(PID.TID 0000.0001)                 1.234567000000000E+05
(PID.TID 0000.0001)     ;
(PID.TID 0000.0001) salt_addMass = /* Salin. of addMass array (UNSET=use local S)(psu)*/
(PID.TID 0000.0001)                 0.000000000000000E+00
(PID.TID 0000.0001)     ;
(PID.TID 0000.0001) use3Dsolver = /* use 3-D pressure solver on/off flag */
(PID.TID 0000.0001)                   F
(PID.TID 0000.0001)     ;
(PID.TID 0000.0001) nonHydrostatic =  /* Non-Hydrostatic on/off flag */
(PID.TID 0000.0001)                   F
(PID.TID 0000.0001)     ;
(PID.TID 0000.0001) nh_Am2 = /* Non-Hydrostatic terms scaling factor */
(PID.TID 0000.0001)                 1.000000000000000E+00
(PID.TID 0000.0001)     ;
(PID.TID 0000.0001) implicitNHPress = /* Non-Hyd Pressure implicit factor (0-1)*/
(PID.TID 0000.0001)                 1.000000000000000E+00
(PID.TID 0000.0001)     ;
(PID.TID 0000.0001) selectNHfreeSurf = /* Non-Hyd (free-)Surface option */
(PID.TID 0000.0001)                       0
(PID.TID 0000.0001)     ;
(PID.TID 0000.0001) quasiHydrostatic = /* Quasi-Hydrostatic on/off flag */
(PID.TID 0000.0001)                   F
(PID.TID 0000.0001)     ;
(PID.TID 0000.0001) calc_wVelocity = /* vertical velocity calculation on/off flag */
(PID.TID 0000.0001)                   T
(PID.TID 0000.0001)     ;
(PID.TID 0000.0001) momStepping =  /* Momentum equation on/off flag */
(PID.TID 0000.0001)                   T
(PID.TID 0000.0001)     ;
(PID.TID 0000.0001) vectorInvariantMomentum= /* Vector-Invariant Momentum on/off */
(PID.TID 0000.0001)                   T
(PID.TID 0000.0001)     ;
(PID.TID 0000.0001) momAdvection =  /* Momentum advection on/off flag */
(PID.TID 0000.0001)                   T
(PID.TID 0000.0001)     ;
(PID.TID 0000.0001) momViscosity =  /* Momentum viscosity on/off flag */
(PID.TID 0000.0001)                   T
(PID.TID 0000.0001)     ;
(PID.TID 0000.0001) momImplVertAdv= /* Momentum implicit vert. advection on/off*/
(PID.TID 0000.0001)                   F
(PID.TID 0000.0001)     ;
(PID.TID 0000.0001) implicitViscosity = /* Implicit viscosity on/off flag */
(PID.TID 0000.0001)                   F
(PID.TID 0000.0001)     ;
(PID.TID 0000.0001) selectImplicitDrag= /* Implicit bot Drag options (0,1,2)*/
(PID.TID 0000.0001)                       0
(PID.TID 0000.0001)     0= Expl. ; 1= Impl. on provis. Vel ; 2= Fully Impl (with surf.P)
(PID.TID 0000.0001)     ;
(PID.TID 0000.0001) metricTerms =  /* metric-Terms on/off flag */
(PID.TID 0000.0001)                   F
(PID.TID 0000.0001)     ;
(PID.TID 0000.0001) useNHMTerms = /* Non-Hydrostatic Metric-Terms on/off */
(PID.TID 0000.0001)                   F
(PID.TID 0000.0001)     ;
(PID.TID 0000.0001) selectCoriMap = /* Coriolis Map options (0,1,2,3)*/
(PID.TID 0000.0001)                       2
(PID.TID 0000.0001)     0= f-Plane ; 1= Beta-Plane ; 2= Spherical ; 3= read from file
(PID.TID 0000.0001)     ;
(PID.TID 0000.0001) use3dCoriolis = /* 3-D Coriolis on/off flag */
(PID.TID 0000.0001)                   F
(PID.TID 0000.0001)     ;
(PID.TID 0000.0001) useCoriolis =  /* Coriolis on/off flag */
(PID.TID 0000.0001)                   T
(PID.TID 0000.0001)     ;
(PID.TID 0000.0001) useCDscheme =  /* CD scheme on/off flag */
(PID.TID 0000.0001)                   F
(PID.TID 0000.0001)     ;
(PID.TID 0000.0001) useEnergyConservingCoriolis= /* Flx-Form Coriolis scheme flag */
(PID.TID 0000.0001)                   F
(PID.TID 0000.0001)     ;
(PID.TID 0000.0001) useJamartWetPoints= /* Coriolis WetPoints method flag */
(PID.TID 0000.0001)                   F
(PID.TID 0000.0001)     ;
(PID.TID 0000.0001) useJamartMomAdv= /* V.I Non-linear terms Jamart flag */
(PID.TID 0000.0001)                   F
(PID.TID 0000.0001)     ;
(PID.TID 0000.0001) useAbsVorticity= /* V.I Works with f+zeta in Coriolis */
(PID.TID 0000.0001)                   F
(PID.TID 0000.0001)     ;
(PID.TID 0000.0001) selectVortScheme= /* V.I Scheme selector for Vorticity-Term */
(PID.TID 0000.0001)                       1
(PID.TID 0000.0001)    = 0 : enstrophy (Shallow-Water Eq.) conserving scheme by Sadourny, JAS 75
(PID.TID 0000.0001)    = 1 : same as 0 with modified hFac
(PID.TID 0000.0001)    = 2 : energy conserving scheme (used by Sadourny in JAS 75 paper)
(PID.TID 0000.0001)    = 3 : energy (general) and enstrophy (2D, nonDiv.) conserving scheme
(PID.TID 0000.0001)          from Sadourny (Burridge & Haseler, ECMWF Rep.4, 1977)
(PID.TID 0000.0001)     ;
(PID.TID 0000.0001) upwindVorticity= /* V.I Upwind bias vorticity flag */
(PID.TID 0000.0001)                   F
(PID.TID 0000.0001)     ;
(PID.TID 0000.0001) highOrderVorticity= /* V.I High order vort. advect. flag */
(PID.TID 0000.0001)                   F
(PID.TID 0000.0001)     ;
(PID.TID 0000.0001) upwindShear= /* V.I Upwind vertical Shear advection flag */
(PID.TID 0000.0001)                   F
(PID.TID 0000.0001)     ;
(PID.TID 0000.0001) selectKEscheme= /* V.I Kinetic Energy scheme selector */
(PID.TID 0000.0001)                       0
(PID.TID 0000.0001)     ;
(PID.TID 0000.0001) momForcing =  /* Momentum forcing on/off flag */
(PID.TID 0000.0001)                   T
(PID.TID 0000.0001)     ;
(PID.TID 0000.0001) momPressureForcing =  /* Momentum pressure term on/off flag */
(PID.TID 0000.0001)                   T
(PID.TID 0000.0001)     ;
(PID.TID 0000.0001) implicitIntGravWave= /* Implicit Internal Gravity Wave flag */
(PID.TID 0000.0001)                   F
(PID.TID 0000.0001)     ;
(PID.TID 0000.0001) staggerTimeStep =    /* Stagger time stepping on/off flag */
(PID.TID 0000.0001)                   T
(PID.TID 0000.0001)     ;
(PID.TID 0000.0001) doResetHFactors = /* reset thickness factors @ each time-step */
(PID.TID 0000.0001)                   F
(PID.TID 0000.0001)     ;
(PID.TID 0000.0001) multiDimAdvection =  /* enable/disable Multi-Dim Advection */
(PID.TID 0000.0001)                   T
(PID.TID 0000.0001)     ;
(PID.TID 0000.0001) useMultiDimAdvec =   /* Multi-Dim Advection is/is-not used */
(PID.TID 0000.0001)                   F
(PID.TID 0000.0001)     ;
(PID.TID 0000.0001) implicitDiffusion = /* Implicit Diffusion on/off flag */
(PID.TID 0000.0001)                   T
(PID.TID 0000.0001)     ;
(PID.TID 0000.0001) tempStepping =  /* Temperature equation on/off flag */
(PID.TID 0000.0001)                   T
(PID.TID 0000.0001)     ;
(PID.TID 0000.0001) tempAdvection = /* Temperature advection on/off flag */
(PID.TID 0000.0001)                   T
(PID.TID 0000.0001)     ;
(PID.TID 0000.0001) tempImplVertAdv = /* Temp. implicit vert. advection on/off */
(PID.TID 0000.0001)                   F
(PID.TID 0000.0001)     ;
(PID.TID 0000.0001) tempForcing  =  /* Temperature forcing on/off flag */
(PID.TID 0000.0001)                   T
(PID.TID 0000.0001)     ;
(PID.TID 0000.0001) balanceQnet  =  /* balance net heat-flux on/off flag */
(PID.TID 0000.0001)                   F
(PID.TID 0000.0001)     ;
(PID.TID 0000.0001) doThetaClimRelax = /* apply SST relaxation on/off flag */
(PID.TID 0000.0001)                   F
(PID.TID 0000.0001)     ;
(PID.TID 0000.0001) balanceThetaClimRelax= /* balance SST relaxation on/off flag */
(PID.TID 0000.0001)                   F
(PID.TID 0000.0001)     ;
(PID.TID 0000.0001) tempIsActiveTr = /* Temp. is a dynamically Active Tracer */
(PID.TID 0000.0001)                   T
(PID.TID 0000.0001)     ;
(PID.TID 0000.0001) saltStepping =  /* Salinity equation on/off flag */
(PID.TID 0000.0001)                   T
(PID.TID 0000.0001)     ;
(PID.TID 0000.0001) saltAdvection = /* Salinity advection on/off flag */
(PID.TID 0000.0001)                   T
(PID.TID 0000.0001)     ;
(PID.TID 0000.0001) saltImplVertAdv = /* Sali. implicit vert. advection on/off */
(PID.TID 0000.0001)                   F
(PID.TID 0000.0001)     ;
(PID.TID 0000.0001) saltForcing  =  /* Salinity forcing on/off flag */
(PID.TID 0000.0001)                   T
(PID.TID 0000.0001)     ;
(PID.TID 0000.0001) balanceEmPmR =  /* balance net fresh-water flux on/off flag */
(PID.TID 0000.0001)                   F
(PID.TID 0000.0001)     ;
(PID.TID 0000.0001) doSaltClimRelax = /* apply SSS relaxation on/off flag */
(PID.TID 0000.0001)                   F
(PID.TID 0000.0001)     ;
(PID.TID 0000.0001) balanceSaltClimRelax= /* balance SSS relaxation on/off flag */
(PID.TID 0000.0001)                   F
(PID.TID 0000.0001)     ;
(PID.TID 0000.0001) saltIsActiveTr = /* Salt  is a dynamically Active Tracer */
(PID.TID 0000.0001)                   T
(PID.TID 0000.0001)     ;
(PID.TID 0000.0001)  readBinaryPrec = /* Precision used for reading binary files */
(PID.TID 0000.0001)                      64
(PID.TID 0000.0001)     ;
(PID.TID 0000.0001) writeBinaryPrec = /* Precision used for writing binary files */
(PID.TID 0000.0001)                      32
(PID.TID 0000.0001)     ;
(PID.TID 0000.0001)  rwSuffixType =   /* select format of mds file suffix */
(PID.TID 0000.0001)                       0
(PID.TID 0000.0001)    = 0 : myIter (I10.10) ;   = 1 : 100*myTime (100th sec) ;
(PID.TID 0000.0001)    = 2 : myTime (seconds);   = 3 : myTime/360 (10th of hr);
(PID.TID 0000.0001)    = 4 : myTime/3600 (hours)
(PID.TID 0000.0001)     ;
(PID.TID 0000.0001)  globalFiles = /* write "global" (=not per tile) files */
(PID.TID 0000.0001)                   F
(PID.TID 0000.0001)     ;
(PID.TID 0000.0001)  useSingleCpuIO = /* only master MPI process does I/O */
(PID.TID 0000.0001)                   T
(PID.TID 0000.0001)     ;
(PID.TID 0000.0001)  useSingleCpuInput = /* only master process reads input */
(PID.TID 0000.0001)                   T
(PID.TID 0000.0001)     ;
(PID.TID 0000.0001) /* debLev[*]  : level of debug & auxiliary message printing */
(PID.TID 0000.0001) debLevZero =  0 ; /* level of disabled aux. msg printing */
(PID.TID 0000.0001)    debLevA =  1 ; /* level of minimum  aux. msg printing */
(PID.TID 0000.0001)    debLevB =  2 ; /* level of low aux. print (report read-file opening)*/
(PID.TID 0000.0001)    debLevC =  3 ; /* level of moderate debug prt (most pkgs debug msg) */
(PID.TID 0000.0001)    debLevD =  4 ; /* level of enhanced debug prt (add DEBUG_STATS prt) */
(PID.TID 0000.0001)    debLevE =  5 ; /* level of extensive debug printing */
(PID.TID 0000.0001) debugLevel =  /* select debug printing level */
(PID.TID 0000.0001)                       2
(PID.TID 0000.0001)     ;
(PID.TID 0000.0001)  plotLevel =  /* select PLOT_FIELD printing level */
(PID.TID 0000.0001)                       2
(PID.TID 0000.0001)     ;
(PID.TID 0000.0001) //
(PID.TID 0000.0001) // Elliptic solver(s) paramters ( PARM02 in namelist )
(PID.TID 0000.0001) //
(PID.TID 0000.0001) cg2dMaxIters =   /* Upper limit on 2d con. grad iterations  */
(PID.TID 0000.0001)                     150
(PID.TID 0000.0001)     ;
(PID.TID 0000.0001) cg2dChkResFreq =   /* 2d con. grad convergence test frequency */
(PID.TID 0000.0001)                       1
(PID.TID 0000.0001)     ;
(PID.TID 0000.0001) cg2dUseMinResSol= /* use cg2d last-iter(=0) / min-resid.(=1) solution */
(PID.TID 0000.0001)                       0
(PID.TID 0000.0001)     ;
(PID.TID 0000.0001) cg2dTargetResidual =   /* 2d con. grad target residual  */
(PID.TID 0000.0001)                 1.000000000000000E-07
(PID.TID 0000.0001)     ;
(PID.TID 0000.0001) cg2dTargetResWunit =   /* CG2d target residual [W units] */
(PID.TID 0000.0001)                -1.000000000000000E+00
(PID.TID 0000.0001)     ;
(PID.TID 0000.0001) cg2dPreCondFreq =   /* Freq. for updating cg2d preconditioner */
(PID.TID 0000.0001)                       1
(PID.TID 0000.0001)     ;
(PID.TID 0000.0001) useSRCGSolver =  /* use single reduction CG solver(s) */
(PID.TID 0000.0001)                   F
(PID.TID 0000.0001)     ;
(PID.TID 0000.0001) printResidualFreq = /* Freq. for printing CG residual */
(PID.TID 0000.0001)                       0
(PID.TID 0000.0001)     ;
(PID.TID 0000.0001) //
(PID.TID 0000.0001) // Time stepping paramters ( PARM03 in namelist )
(PID.TID 0000.0001) //
(PID.TID 0000.0001) deltaTMom =   /* Momentum equation timestep ( s ) */
(PID.TID 0000.0001)                 9.000000000000000E+02
(PID.TID 0000.0001)     ;
(PID.TID 0000.0001) deltaTFreeSurf = /* FreeSurface equation timestep ( s ) */
(PID.TID 0000.0001)                 9.000000000000000E+02
(PID.TID 0000.0001)     ;
(PID.TID 0000.0001) dTtracerLev =  /* Tracer equation timestep ( s ) */
(PID.TID 0000.0001)    15 @  9.000000000000000E+02              /* K =  1: 15 */
(PID.TID 0000.0001)     ;
(PID.TID 0000.0001) deltaTClock  =   /* Model clock timestep ( s ) */
(PID.TID 0000.0001)                 9.000000000000000E+02
(PID.TID 0000.0001)     ;
(PID.TID 0000.0001) cAdjFreq =   /* Convective adjustment interval ( s ) */
(PID.TID 0000.0001)                 0.000000000000000E+00
(PID.TID 0000.0001)     ;
(PID.TID 0000.0001) momForcingOutAB = /* =1: take Momentum Forcing out of Adams-Bash. stepping */
(PID.TID 0000.0001)                       0
(PID.TID 0000.0001)     ;
(PID.TID 0000.0001) tracForcingOutAB = /* =1: take T,S,pTr Forcing out of Adams-Bash. stepping */
(PID.TID 0000.0001)                       1
(PID.TID 0000.0001)     ;
(PID.TID 0000.0001) momDissip_In_AB = /* put Dissipation Tendency in Adams-Bash. stepping */
(PID.TID 0000.0001)                   T
(PID.TID 0000.0001)     ;
(PID.TID 0000.0001) doAB_onGtGs = /* apply AB on Tendencies (rather than on T,S)*/
(PID.TID 0000.0001)                   T
(PID.TID 0000.0001)     ;
(PID.TID 0000.0001) abEps =   /* Adams-Bashforth-2 stabilizing weight */
(PID.TID 0000.0001)                 1.000000000000000E-01
(PID.TID 0000.0001)     ;
(PID.TID 0000.0001) applyExchUV_early = /* Apply EXCH to U,V earlier in time-step */
(PID.TID 0000.0001)                   F
(PID.TID 0000.0001)     ;
(PID.TID 0000.0001) pickupStrictlyMatch= /* stop if pickup do not strictly match */
(PID.TID 0000.0001)                   T
(PID.TID 0000.0001)     ;
(PID.TID 0000.0001) nIter0   =   /* Run starting timestep number */
(PID.TID 0000.0001)                   72000
(PID.TID 0000.0001)     ;
(PID.TID 0000.0001) nTimeSteps = /* Number of timesteps */
(PID.TID 0000.0001)                   99999
(PID.TID 0000.0001)     ;
(PID.TID 0000.0001) nEndIter =   /* Run ending timestep number */
(PID.TID 0000.0001)                  171999
(PID.TID 0000.0001)     ;
(PID.TID 0000.0001) baseTime =   /* Model base time ( s ) */
(PID.TID 0000.0001)                 0.000000000000000E+00
(PID.TID 0000.0001)     ;
(PID.TID 0000.0001) startTime =  /* Run start time ( s ) */
(PID.TID 0000.0001)                 6.480000000000000E+07
(PID.TID 0000.0001)     ;
(PID.TID 0000.0001) endTime  =   /* Integration ending time ( s ) */
(PID.TID 0000.0001)                 1.547991000000000E+08
(PID.TID 0000.0001)     ;
(PID.TID 0000.0001) pChkPtFreq = /* Permanent restart/pickup file interval ( s ) */
(PID.TID 0000.0001)                 0.000000000000000E+00
(PID.TID 0000.0001)     ;
(PID.TID 0000.0001) chkPtFreq  = /* Rolling restart/pickup file interval ( s ) */
(PID.TID 0000.0001)                 0.000000000000000E+00
(PID.TID 0000.0001)     ;
(PID.TID 0000.0001) pickup_write_mdsio =   /* Model IO flag. */
(PID.TID 0000.0001)                   T
(PID.TID 0000.0001)     ;
(PID.TID 0000.0001) pickup_read_mdsio =   /* Model IO flag. */
(PID.TID 0000.0001)                   T
(PID.TID 0000.0001)     ;
(PID.TID 0000.0001) writePickupAtEnd =   /* Model IO flag. */
(PID.TID 0000.0001)                   T
(PID.TID 0000.0001)     ;
(PID.TID 0000.0001) dumpFreq =   /* Model state write out interval ( s ). */
(PID.TID 0000.0001)                 0.000000000000000E+00
(PID.TID 0000.0001)     ;
(PID.TID 0000.0001) dumpInitAndLast= /* write out Initial & Last iter. model state */
(PID.TID 0000.0001)                   T
(PID.TID 0000.0001)     ;
(PID.TID 0000.0001) snapshot_mdsio =   /* Model IO flag. */
(PID.TID 0000.0001)                   T
(PID.TID 0000.0001)     ;
(PID.TID 0000.0001) monitorFreq =   /* Monitor output interval ( s ). */
(PID.TID 0000.0001)                 1.000000000000000E+00
(PID.TID 0000.0001)     ;
(PID.TID 0000.0001) monitorSelect = /* select group of variables to monitor */
(PID.TID 0000.0001)                       3
(PID.TID 0000.0001)     ;
(PID.TID 0000.0001) monitor_stdio =   /* Model IO flag. */
(PID.TID 0000.0001)                   T
(PID.TID 0000.0001)     ;
(PID.TID 0000.0001) externForcingPeriod =   /* forcing period (s) */
(PID.TID 0000.0001)                 0.000000000000000E+00
(PID.TID 0000.0001)     ;
(PID.TID 0000.0001) externForcingCycle =   /* period of the cyle (s). */
(PID.TID 0000.0001)                 0.000000000000000E+00
(PID.TID 0000.0001)     ;
(PID.TID 0000.0001) tauThetaClimRelax =   /* relaxation time scale (s) */
(PID.TID 0000.0001)                 0.000000000000000E+00
(PID.TID 0000.0001)     ;
(PID.TID 0000.0001) tauSaltClimRelax =   /* relaxation time scale (s) */
(PID.TID 0000.0001)                 0.000000000000000E+00
(PID.TID 0000.0001)     ;
(PID.TID 0000.0001) latBandClimRelax =   /* max. Lat. where relaxation */
(PID.TID 0000.0001)                 1.800000000000000E+02
(PID.TID 0000.0001)     ;
(PID.TID 0000.0001) //
(PID.TID 0000.0001) // Gridding paramters ( PARM04 in namelist )
(PID.TID 0000.0001) //
(PID.TID 0000.0001) usingCartesianGrid = /* Cartesian coordinates flag ( True/False ) */
(PID.TID 0000.0001)                   F
(PID.TID 0000.0001)     ;
(PID.TID 0000.0001) usingCylindricalGrid = /* Cylindrical coordinates flag ( True/False ) */
(PID.TID 0000.0001)                   F
(PID.TID 0000.0001)     ;
(PID.TID 0000.0001) usingSphericalPolarGrid = /* Spherical coordinates flag ( True/False ) */
(PID.TID 0000.0001)                   F
(PID.TID 0000.0001)     ;
(PID.TID 0000.0001) usingCurvilinearGrid = /* Curvilinear coordinates flag ( True/False ) */
(PID.TID 0000.0001)                   T
(PID.TID 0000.0001)     ;
(PID.TID 0000.0001) useMin4hFacEdges = /* set hFacW,S as minimum of adjacent hFacC factor */
(PID.TID 0000.0001)                   F
(PID.TID 0000.0001)     ;
(PID.TID 0000.0001) selectSigmaCoord = /* Hybrid-Sigma Vert. Coordinate option */
(PID.TID 0000.0001)                       0
(PID.TID 0000.0001)     ;
(PID.TID 0000.0001) rSigmaBnd = /* r/sigma transition ( units of r ==  m ) */
(PID.TID 0000.0001)                 1.234567000000000E+05
(PID.TID 0000.0001)     ;
(PID.TID 0000.0001) rkSign =   /* index orientation relative to vertical coordinate */
(PID.TID 0000.0001)                -1.000000000000000E+00
(PID.TID 0000.0001)     ;
(PID.TID 0000.0001) gravitySign = /* gravity orientation relative to vertical coordinate */
(PID.TID 0000.0001)                -1.000000000000000E+00
(PID.TID 0000.0001)     ;
(PID.TID 0000.0001) seaLev_Z =  /* reference height of sea-level [m] */
(PID.TID 0000.0001)                 0.000000000000000E+00
(PID.TID 0000.0001)     ;
(PID.TID 0000.0001) top_Pres =  /* reference pressure at the top [Pa] */
(PID.TID 0000.0001)                 0.000000000000000E+00
(PID.TID 0000.0001)     ;
(PID.TID 0000.0001) mass2rUnit = /* convert mass per unit area [kg/m2] to r-units [m] */
(PID.TID 0000.0001)                 9.661835748792270E-04
(PID.TID 0000.0001)     ;
(PID.TID 0000.0001) rUnit2mass = /* convert r-units [m] to mass per unit area [kg/m2] */
(PID.TID 0000.0001)                 1.035000000000000E+03
(PID.TID 0000.0001)     ;
(PID.TID 0000.0001) drC =   /* C spacing ( units of r ) */
(PID.TID 0000.0001)                 2.500000000000000E+01,      /* K =  1 */
(PID.TID 0000.0001)                 6.000000000000000E+01,      /* K =  2 */
(PID.TID 0000.0001)                 8.500000000000000E+01,      /* K =  3 */
(PID.TID 0000.0001)                 1.200000000000000E+02,      /* K =  4 */
(PID.TID 0000.0001)                 1.650000000000000E+02,      /* K =  5 */
(PID.TID 0000.0001)                 2.150000000000000E+02,      /* K =  6 */
(PID.TID 0000.0001)                 2.650000000000000E+02,      /* K =  7 */
(PID.TID 0000.0001)                 3.150000000000000E+02,      /* K =  8 */
(PID.TID 0000.0001)                 3.650000000000000E+02,      /* K =  9 */
(PID.TID 0000.0001)                 4.150000000000000E+02,      /* K = 10 */
(PID.TID 0000.0001)                 4.650000000000000E+02,      /* K = 11 */
(PID.TID 0000.0001)                 5.150000000000000E+02,      /* K = 12 */
(PID.TID 0000.0001)                 5.650000000000000E+02,      /* K = 13 */
(PID.TID 0000.0001)                 6.150000000000000E+02,      /* K = 14 */
(PID.TID 0000.0001)                 6.650000000000000E+02,      /* K = 15 */
(PID.TID 0000.0001)                 3.450000000000000E+02       /* K = 16 */
(PID.TID 0000.0001)     ;
(PID.TID 0000.0001) drF =   /* W spacing ( units of r ) */
(PID.TID 0000.0001)                 5.000000000000000E+01,      /* K =  1 */
(PID.TID 0000.0001)                 7.000000000000000E+01,      /* K =  2 */
(PID.TID 0000.0001)                 1.000000000000000E+02,      /* K =  3 */
(PID.TID 0000.0001)                 1.400000000000000E+02,      /* K =  4 */
(PID.TID 0000.0001)                 1.900000000000000E+02,      /* K =  5 */
(PID.TID 0000.0001)                 2.400000000000000E+02,      /* K =  6 */
(PID.TID 0000.0001)                 2.900000000000000E+02,      /* K =  7 */
(PID.TID 0000.0001)                 3.400000000000000E+02,      /* K =  8 */
(PID.TID 0000.0001)                 3.900000000000000E+02,      /* K =  9 */
(PID.TID 0000.0001)                 4.400000000000000E+02,      /* K = 10 */
(PID.TID 0000.0001)                 4.900000000000000E+02,      /* K = 11 */
(PID.TID 0000.0001)                 5.400000000000000E+02,      /* K = 12 */
(PID.TID 0000.0001)                 5.900000000000000E+02,      /* K = 13 */
(PID.TID 0000.0001)                 6.400000000000000E+02,      /* K = 14 */
(PID.TID 0000.0001)                 6.900000000000000E+02       /* K = 15 */
(PID.TID 0000.0001)     ;
(PID.TID 0000.0001) radius_fromHorizGrid = /* sphere Radius of input horiz. grid */
(PID.TID 0000.0001)                 6.370000000000000E+06
(PID.TID 0000.0001)     ;
(PID.TID 0000.0001) rSphere =  /* Radius ( ignored - cartesian, m - spherical ) */
(PID.TID 0000.0001)                 6.370000000000000E+06
(PID.TID 0000.0001)     ;
(PID.TID 0000.0001) deepAtmosphere = /* Deep/Shallow Atmosphere flag (True/False) */
(PID.TID 0000.0001)                   F
(PID.TID 0000.0001)     ;
(PID.TID 0000.0001) xC =  /* xC(:,1,:,1) : P-point X coord ( deg. or m if cartesian) */
(PID.TID 0000.0001)                -4.439521994760536E+01,      /* I =  1 */
(PID.TID 0000.0001)                -4.295641272275883E+01,      /* I =  2 */
(PID.TID 0000.0001)                -4.122055553388957E+01,      /* I =  3 */
(PID.TID 0000.0001)                -3.923446288487304E+01,      /* I =  4 */
(PID.TID 0000.0001)                -3.702585158682200E+01,      /* I =  5 */
(PID.TID 0000.0001)                -3.461179367094151E+01,      /* I =  6 */
(PID.TID 0000.0001)                -3.200434569041793E+01,      /* I =  7 */
(PID.TID 0000.0001)                -2.921355965632675E+01,      /* I =  8 */
(PID.TID 0000.0001)                -2.624932223028290E+01,      /* I =  9 */
(PID.TID 0000.0001)                -2.312261250426344E+01,      /* I = 10 */
(PID.TID 0000.0001)                -1.984640717127058E+01,      /* I = 11 */
(PID.TID 0000.0001)                -1.643630800555134E+01,      /* I = 12 */
(PID.TID 0000.0001)                -1.291089806302069E+01,      /* I = 13 */
(PID.TID 0000.0001)                -9.291807802719402E+00,      /* I = 14 */
(PID.TID 0000.0001)                -5.603475335822332E+00,      /* I = 15 */
(PID.TID 0000.0001)                -1.872608513033445E+00,      /* I = 16 */
(PID.TID 0000.0001)                 1.872608513033445E+00,      /* I = 17 */
(PID.TID 0000.0001)                 5.603475335822332E+00,      /* I = 18 */
(PID.TID 0000.0001)                 9.291807802719402E+00,      /* I = 19 */
(PID.TID 0000.0001)                 1.291089806302069E+01,      /* I = 20 */
(PID.TID 0000.0001)                 1.643630800555134E+01,      /* I = 21 */
(PID.TID 0000.0001)                 1.984640717127058E+01,      /* I = 22 */
(PID.TID 0000.0001)                 2.312261250426344E+01,      /* I = 23 */
(PID.TID 0000.0001)                 2.624932223028290E+01,      /* I = 24 */
(PID.TID 0000.0001)                 2.921355965632675E+01,      /* I = 25 */
(PID.TID 0000.0001)                 3.200434569041793E+01,      /* I = 26 */
(PID.TID 0000.0001)                 3.461179367094151E+01,      /* I = 27 */
(PID.TID 0000.0001)                 3.702585158682200E+01,      /* I = 28 */
(PID.TID 0000.0001)                 3.923446288487304E+01,      /* I = 29 */
(PID.TID 0000.0001)                 4.122055553388957E+01,      /* I = 30 */
(PID.TID 0000.0001)                 4.295641272275883E+01,      /* I = 31 */
(PID.TID 0000.0001)                 4.439521994760536E+01       /* I = 32 */
(PID.TID 0000.0001)     ;
(PID.TID 0000.0001) yC =  /* yC(1,:,1,:) : P-point Y coord ( deg. or m if cartesian) */
(PID.TID 0000.0001)                -3.497677942598243E+01,      /* J =  1 */
(PID.TID 0000.0001)                -3.374005967394886E+01,      /* J =  2 */
(PID.TID 0000.0001)                -3.220655175667454E+01,      /* J =  3 */
(PID.TID 0000.0001)                -3.045756348838641E+01,      /* J =  4 */
(PID.TID 0000.0001)                -2.853728129852918E+01,      /* J =  5 */
(PID.TID 0000.0001)                -2.647426640173173E+01,      /* J =  6 */
(PID.TID 0000.0001)                -2.428936657094636E+01,      /* J =  7 */
(PID.TID 0000.0001)                -2.199915808312262E+01,      /* J =  8 */
(PID.TID 0000.0001)                -1.961768597440146E+01,      /* J =  9 */
(PID.TID 0000.0001)                -1.715743888281371E+01,      /* J = 10 */
(PID.TID 0000.0001)                -1.462993396899330E+01,      /* J = 11 */
(PID.TID 0000.0001)                -1.204608340464756E+01,      /* J = 12 */
(PID.TID 0000.0001)                -9.416429130284818E+00,      /* J = 13 */
(PID.TID 0000.0001)                -6.751293662992216E+00,      /* J = 14 */
(PID.TID 0000.0001)                -4.060875511835959E+00,      /* J = 15 */
(PID.TID 0000.0001)                -1.355307764409121E+00,      /* J = 16 */
(PID.TID 0000.0001)                 1.355307764409121E+00,      /* J = 17 */
(PID.TID 0000.0001)                 4.060875511835959E+00,      /* J = 18 */
(PID.TID 0000.0001)                 6.751293662992216E+00,      /* J = 19 */
(PID.TID 0000.0001)                 9.416429130284818E+00,      /* J = 20 */
(PID.TID 0000.0001)                 1.204608340464756E+01,      /* J = 21 */
(PID.TID 0000.0001)                 1.462993396899330E+01,      /* J = 22 */
(PID.TID 0000.0001)                 1.715743888281371E+01,      /* J = 23 */
(PID.TID 0000.0001)                 1.961768597440146E+01,      /* J = 24 */
(PID.TID 0000.0001)                 2.199915808312262E+01,      /* J = 25 */
(PID.TID 0000.0001)                 2.428936657094636E+01,      /* J = 26 */
(PID.TID 0000.0001)                 2.647426640173173E+01,      /* J = 27 */
(PID.TID 0000.0001)                 2.853728129852918E+01,      /* J = 28 */
(PID.TID 0000.0001)                 3.045756348838641E+01,      /* J = 29 */
(PID.TID 0000.0001)                 3.220655175667454E+01,      /* J = 30 */
(PID.TID 0000.0001)                 3.374005967394886E+01,      /* J = 31 */
(PID.TID 0000.0001)                 3.497677942598243E+01       /* J = 32 */
(PID.TID 0000.0001)     ;
(PID.TID 0000.0001) rcoord = /* P-point R coordinate (  units of r ) */
(PID.TID 0000.0001)                -2.500000000000000E+01,      /* K =  1 */
(PID.TID 0000.0001)                -8.500000000000000E+01,      /* K =  2 */
(PID.TID 0000.0001)                -1.700000000000000E+02,      /* K =  3 */
(PID.TID 0000.0001)                -2.900000000000000E+02,      /* K =  4 */
(PID.TID 0000.0001)                -4.550000000000000E+02,      /* K =  5 */
(PID.TID 0000.0001)                -6.700000000000000E+02,      /* K =  6 */
(PID.TID 0000.0001)                -9.350000000000000E+02,      /* K =  7 */
(PID.TID 0000.0001)                -1.250000000000000E+03,      /* K =  8 */
(PID.TID 0000.0001)                -1.615000000000000E+03,      /* K =  9 */
(PID.TID 0000.0001)                -2.030000000000000E+03,      /* K = 10 */
(PID.TID 0000.0001)                -2.495000000000000E+03,      /* K = 11 */
(PID.TID 0000.0001)                -3.010000000000000E+03,      /* K = 12 */
(PID.TID 0000.0001)                -3.575000000000000E+03,      /* K = 13 */
(PID.TID 0000.0001)                -4.190000000000000E+03,      /* K = 14 */
(PID.TID 0000.0001)                -4.855000000000000E+03       /* K = 15 */
(PID.TID 0000.0001)     ;
(PID.TID 0000.0001) rF =   /* W-Interf. R coordinate (  units of r ) */
(PID.TID 0000.0001)                 0.000000000000000E+00,      /* K =  1 */
(PID.TID 0000.0001)                -5.000000000000000E+01,      /* K =  2 */
(PID.TID 0000.0001)                -1.200000000000000E+02,      /* K =  3 */
(PID.TID 0000.0001)                -2.200000000000000E+02,      /* K =  4 */
(PID.TID 0000.0001)                -3.600000000000000E+02,      /* K =  5 */
(PID.TID 0000.0001)                -5.500000000000000E+02,      /* K =  6 */
(PID.TID 0000.0001)                -7.900000000000000E+02,      /* K =  7 */
(PID.TID 0000.0001)                -1.080000000000000E+03,      /* K =  8 */
(PID.TID 0000.0001)                -1.420000000000000E+03,      /* K =  9 */
(PID.TID 0000.0001)                -1.810000000000000E+03,      /* K = 10 */
(PID.TID 0000.0001)                -2.250000000000000E+03,      /* K = 11 */
(PID.TID 0000.0001)                -2.740000000000000E+03,      /* K = 12 */
(PID.TID 0000.0001)                -3.280000000000000E+03,      /* K = 13 */
(PID.TID 0000.0001)                -3.870000000000000E+03,      /* K = 14 */
(PID.TID 0000.0001)                -4.510000000000000E+03,      /* K = 15 */
(PID.TID 0000.0001)                -5.200000000000000E+03       /* K = 16 */
(PID.TID 0000.0001)     ;
(PID.TID 0000.0001) deepFacC = /* deep-model grid factor @ cell-Center (-) */
(PID.TID 0000.0001)    15 @  1.000000000000000E+00              /* K =  1: 15 */
(PID.TID 0000.0001)     ;
(PID.TID 0000.0001) deepFacF = /* deep-model grid factor @ W-Interface (-) */
(PID.TID 0000.0001)    16 @  1.000000000000000E+00              /* K =  1: 16 */
(PID.TID 0000.0001)     ;
(PID.TID 0000.0001) rVel2wUnit = /* convert units: rVel -> wSpeed (=1 if z-coord)*/
(PID.TID 0000.0001)    16 @  1.000000000000000E+00              /* K =  1: 16 */
(PID.TID 0000.0001)     ;
(PID.TID 0000.0001) wUnit2rVel = /* convert units: wSpeed -> rVel (=1 if z-coord)*/
(PID.TID 0000.0001)    16 @  1.000000000000000E+00              /* K =  1: 16 */
(PID.TID 0000.0001)     ;
(PID.TID 0000.0001) dBdrRef = /* Vertical grad. of reference buoyancy [(m/s/r)^2] */
(PID.TID 0000.0001)    15 @  0.000000000000000E+00              /* K =  1: 15 */
(PID.TID 0000.0001)     ;
(PID.TID 0000.0001) rotateGrid = /* use rotated grid ( True/False ) */
(PID.TID 0000.0001)                   F
(PID.TID 0000.0001)     ;
(PID.TID 0000.0001) phiEuler = /* Euler angle, rotation about original z-coordinate [rad] */
(PID.TID 0000.0001)                 0.000000000000000E+00
(PID.TID 0000.0001)     ;
(PID.TID 0000.0001) thetaEuler = /* Euler angle, rotation about new x-coordinate [rad] */
(PID.TID 0000.0001)                 0.000000000000000E+00
(PID.TID 0000.0001)     ;
(PID.TID 0000.0001) psiEuler = /* Euler angle, rotation about new z-coordinate [rad] */
(PID.TID 0000.0001)                 0.000000000000000E+00
(PID.TID 0000.0001)     ;
(PID.TID 0000.0001) dxF =  /* dxF(:,1,:,1) ( units: m ) */
(PID.TID 0000.0001)                 1.202082051331828E+05,      /* I =  1 */
(PID.TID 0000.0001)                 1.563594089971120E+05,      /* I =  2 */
(PID.TID 0000.0001)                 1.835530058121492E+05,      /* I =  3 */
(PID.TID 0000.0001)                 2.045883481718707E+05,      /* I =  4 */
(PID.TID 0000.0001)                 2.218350349844185E+05,      /* I =  5 */
(PID.TID 0000.0001)                 2.364352994647058E+05,      /* I =  6 */
(PID.TID 0000.0001)                 2.490022710862746E+05,      /* I =  7 */
(PID.TID 0000.0001)                 2.598919724358304E+05,      /* I =  8 */
(PID.TID 0000.0001)                 2.693210245495156E+05,      /* I =  9 */
(PID.TID 0000.0001)                 2.774243179696503E+05,      /* I = 10 */
(PID.TID 0000.0001)                 2.842862532064524E+05,      /* I = 11 */
(PID.TID 0000.0001)                 2.899590699694043E+05,      /* I = 12 */
(PID.TID 0000.0001)                 2.944742915095688E+05,      /* I = 13 */
(PID.TID 0000.0001)                 2.978501920522794E+05,      /* I = 14 */
(PID.TID 0000.0001)                 3.000967749619962E+05,      /* I = 15 */
(PID.TID 0000.0001)     2 @  3.012190981969055E+05,             /* I = 16: 17 */
(PID.TID 0000.0001)                 3.000967749619962E+05,      /* I = 18 */
(PID.TID 0000.0001)                 2.978501920522794E+05,      /* I = 19 */
(PID.TID 0000.0001)                 2.944742915095688E+05,      /* I = 20 */
(PID.TID 0000.0001)                 2.899590699694043E+05,      /* I = 21 */
(PID.TID 0000.0001)                 2.842862532064524E+05,      /* I = 22 */
(PID.TID 0000.0001)                 2.774243179696503E+05,      /* I = 23 */
(PID.TID 0000.0001)                 2.693210245495156E+05,      /* I = 24 */
(PID.TID 0000.0001)                 2.598919724358304E+05,      /* I = 25 */
(PID.TID 0000.0001)                 2.490022710862746E+05,      /* I = 26 */
(PID.TID 0000.0001)                 2.364352994647058E+05,      /* I = 27 */
(PID.TID 0000.0001)                 2.218350349844185E+05,      /* I = 28 */
(PID.TID 0000.0001)                 2.045883481718707E+05,      /* I = 29 */
(PID.TID 0000.0001)                 1.835530058121492E+05,      /* I = 30 */
(PID.TID 0000.0001)                 1.563594089971120E+05,      /* I = 31 */
(PID.TID 0000.0001)                 1.202082051331828E+05       /* I = 32 */
(PID.TID 0000.0001)     ;
(PID.TID 0000.0001) dxF =  /* dxF(1,:,1,:) ( units: m ) */
(PID.TID 0000.0001)                 1.202082051331828E+05,      /* J =  1 */
(PID.TID 0000.0001)                 1.572908084538706E+05,      /* J =  2 */
(PID.TID 0000.0001)                 1.840412227747703E+05,      /* J =  3 */
(PID.TID 0000.0001)                 2.048868197919576E+05,      /* J =  4 */
(PID.TID 0000.0001)                 2.220405216043041E+05,      /* J =  5 */
(PID.TID 0000.0001)                 2.365892017348392E+05,      /* J =  6 */
(PID.TID 0000.0001)                 2.491250781852558E+05,      /* J =  7 */
(PID.TID 0000.0001)                 2.599949918261881E+05,      /* J =  8 */
(PID.TID 0000.0001)                 2.694110134598581E+05,      /* J =  9 */
(PID.TID 0000.0001)                 2.775055554645015E+05,      /* J = 10 */
(PID.TID 0000.0001)                 2.843615645344775E+05,      /* J = 11 */
(PID.TID 0000.0001)                 2.900303768613599E+05,      /* J = 12 */
(PID.TID 0000.0001)                 2.945429307892709E+05,      /* J = 13 */
(PID.TID 0000.0001)                 2.979171143158405E+05,      /* J = 14 */
(PID.TID 0000.0001)                 3.001626787528886E+05,      /* J = 15 */
(PID.TID 0000.0001)     2 @  3.012844832048790E+05,             /* J = 16: 17 */
(PID.TID 0000.0001)                 3.001626787528886E+05,      /* J = 18 */
(PID.TID 0000.0001)                 2.979171143158405E+05,      /* J = 19 */
(PID.TID 0000.0001)                 2.945429307892709E+05,      /* J = 20 */
(PID.TID 0000.0001)                 2.900303768613599E+05,      /* J = 21 */
(PID.TID 0000.0001)                 2.843615645344775E+05,      /* J = 22 */
(PID.TID 0000.0001)                 2.775055554645015E+05,      /* J = 23 */
(PID.TID 0000.0001)                 2.694110134598581E+05,      /* J = 24 */
(PID.TID 0000.0001)                 2.599949918261881E+05,      /* J = 25 */
(PID.TID 0000.0001)                 2.491250781852558E+05,      /* J = 26 */
(PID.TID 0000.0001)                 2.365892017348392E+05,      /* J = 27 */
(PID.TID 0000.0001)                 2.220405216043041E+05,      /* J = 28 */
(PID.TID 0000.0001)                 2.048868197919576E+05,      /* J = 29 */
(PID.TID 0000.0001)                 1.840412227747703E+05,      /* J = 30 */
(PID.TID 0000.0001)                 1.572908084538706E+05,      /* J = 31 */
(PID.TID 0000.0001)                 1.202082051331828E+05       /* J = 32 */
(PID.TID 0000.0001)     ;
(PID.TID 0000.0001) dyF =  /* dyF(:,1,:,1) ( units: m ) */
(PID.TID 0000.0001)                 1.202082051331828E+05,      /* I =  1 */
(PID.TID 0000.0001)                 1.572908084538706E+05,      /* I =  2 */
(PID.TID 0000.0001)                 1.840412227747703E+05,      /* I =  3 */
(PID.TID 0000.0001)                 2.048868197919576E+05,      /* I =  4 */
(PID.TID 0000.0001)                 2.220405216043041E+05,      /* I =  5 */
(PID.TID 0000.0001)                 2.365892017348392E+05,      /* I =  6 */
(PID.TID 0000.0001)                 2.491250781852558E+05,      /* I =  7 */
(PID.TID 0000.0001)                 2.599949918261881E+05,      /* I =  8 */
(PID.TID 0000.0001)                 2.694110134598581E+05,      /* I =  9 */
(PID.TID 0000.0001)                 2.775055554645015E+05,      /* I = 10 */
(PID.TID 0000.0001)                 2.843615645344775E+05,      /* I = 11 */
(PID.TID 0000.0001)                 2.900303768613599E+05,      /* I = 12 */
(PID.TID 0000.0001)                 2.945429307892709E+05,      /* I = 13 */
(PID.TID 0000.0001)                 2.979171143158405E+05,      /* I = 14 */
(PID.TID 0000.0001)                 3.001626787528886E+05,      /* I = 15 */
(PID.TID 0000.0001)     2 @  3.012844832048790E+05,             /* I = 16: 17 */
(PID.TID 0000.0001)                 3.001626787528886E+05,      /* I = 18 */
(PID.TID 0000.0001)                 2.979171143158405E+05,      /* I = 19 */
(PID.TID 0000.0001)                 2.945429307892709E+05,      /* I = 20 */
(PID.TID 0000.0001)                 2.900303768613599E+05,      /* I = 21 */
(PID.TID 0000.0001)                 2.843615645344775E+05,      /* I = 22 */
(PID.TID 0000.0001)                 2.775055554645015E+05,      /* I = 23 */
(PID.TID 0000.0001)                 2.694110134598581E+05,      /* I = 24 */
(PID.TID 0000.0001)                 2.599949918261881E+05,      /* I = 25 */
(PID.TID 0000.0001)                 2.491250781852558E+05,      /* I = 26 */
(PID.TID 0000.0001)                 2.365892017348392E+05,      /* I = 27 */
(PID.TID 0000.0001)                 2.220405216043041E+05,      /* I = 28 */
(PID.TID 0000.0001)                 2.048868197919576E+05,      /* I = 29 */
(PID.TID 0000.0001)                 1.840412227747703E+05,      /* I = 30 */
(PID.TID 0000.0001)                 1.572908084538706E+05,      /* I = 31 */
(PID.TID 0000.0001)                 1.202082051331828E+05       /* I = 32 */
(PID.TID 0000.0001)     ;
(PID.TID 0000.0001) dyF =  /* dyF(1,:,1,:) ( units: m ) */
(PID.TID 0000.0001)                 1.202082051331828E+05,      /* J =  1 */
(PID.TID 0000.0001)                 1.563594089971120E+05,      /* J =  2 */
(PID.TID 0000.0001)                 1.835530058121492E+05,      /* J =  3 */
(PID.TID 0000.0001)                 2.045883481718707E+05,      /* J =  4 */
(PID.TID 0000.0001)                 2.218350349844185E+05,      /* J =  5 */
(PID.TID 0000.0001)                 2.364352994647058E+05,      /* J =  6 */
(PID.TID 0000.0001)                 2.490022710862746E+05,      /* J =  7 */
(PID.TID 0000.0001)                 2.598919724358304E+05,      /* J =  8 */
(PID.TID 0000.0001)                 2.693210245495156E+05,      /* J =  9 */
(PID.TID 0000.0001)                 2.774243179696503E+05,      /* J = 10 */
(PID.TID 0000.0001)                 2.842862532064524E+05,      /* J = 11 */
(PID.TID 0000.0001)                 2.899590699694043E+05,      /* J = 12 */
(PID.TID 0000.0001)                 2.944742915095688E+05,      /* J = 13 */
(PID.TID 0000.0001)                 2.978501920522794E+05,      /* J = 14 */
(PID.TID 0000.0001)                 3.000967749619962E+05,      /* J = 15 */
(PID.TID 0000.0001)     2 @  3.012190981969055E+05,             /* J = 16: 17 */
(PID.TID 0000.0001)                 3.000967749619962E+05,      /* J = 18 */
(PID.TID 0000.0001)                 2.978501920522794E+05,      /* J = 19 */
(PID.TID 0000.0001)                 2.944742915095688E+05,      /* J = 20 */
(PID.TID 0000.0001)                 2.899590699694043E+05,      /* J = 21 */
(PID.TID 0000.0001)                 2.842862532064524E+05,      /* J = 22 */
(PID.TID 0000.0001)                 2.774243179696503E+05,      /* J = 23 */
(PID.TID 0000.0001)                 2.693210245495156E+05,      /* J = 24 */
(PID.TID 0000.0001)                 2.598919724358304E+05,      /* J = 25 */
(PID.TID 0000.0001)                 2.490022710862746E+05,      /* J = 26 */
(PID.TID 0000.0001)                 2.364352994647058E+05,      /* J = 27 */
(PID.TID 0000.0001)                 2.218350349844185E+05,      /* J = 28 */
(PID.TID 0000.0001)                 2.045883481718707E+05,      /* J = 29 */
(PID.TID 0000.0001)                 1.835530058121492E+05,      /* J = 30 */
(PID.TID 0000.0001)                 1.563594089971120E+05,      /* J = 31 */
(PID.TID 0000.0001)                 1.202082051331828E+05       /* J = 32 */
(PID.TID 0000.0001)     ;
(PID.TID 0000.0001) dxG =  /* dxG(:,1,:,1) ( units: m ) */
(PID.TID 0000.0001)                 1.009837800879055E+05,      /* I =  1 */
(PID.TID 0000.0001)                 1.534505834330338E+05,      /* I =  2 */
(PID.TID 0000.0001)                 1.823321598773926E+05,      /* I =  3 */
(PID.TID 0000.0001)                 2.038999045536999E+05,      /* I =  4 */
(PID.TID 0000.0001)                 2.213884732245467E+05,      /* I =  5 */
(PID.TID 0000.0001)                 2.361211699596122E+05,      /* I =  6 */
(PID.TID 0000.0001)                 2.487693460283865E+05,      /* I =  7 */
(PID.TID 0000.0001)                 2.597126963772147E+05,      /* I =  8 */
(PID.TID 0000.0001)                 2.691790288994575E+05,      /* I =  9 */
(PID.TID 0000.0001)                 2.773091043277394E+05,      /* I = 10 */
(PID.TID 0000.0001)                 2.841906470085516E+05,      /* I = 11 */
(PID.TID 0000.0001)                 2.898778860929753E+05,      /* I = 12 */
(PID.TID 0000.0001)                 2.944035815526416E+05,      /* I = 13 */
(PID.TID 0000.0001)                 2.977867909042096E+05,      /* I = 14 */
(PID.TID 0000.0001)                 3.000380090330854E+05,      /* I = 15 */
(PID.TID 0000.0001)     2 @  3.011625828699101E+05,             /* I = 16: 17 */
(PID.TID 0000.0001)                 3.000380090330854E+05,      /* I = 18 */
(PID.TID 0000.0001)                 2.977867909042096E+05,      /* I = 19 */
(PID.TID 0000.0001)                 2.944035815526416E+05,      /* I = 20 */
(PID.TID 0000.0001)                 2.898778860929753E+05,      /* I = 21 */
(PID.TID 0000.0001)                 2.841906470085516E+05,      /* I = 22 */
(PID.TID 0000.0001)                 2.773091043277394E+05,      /* I = 23 */
(PID.TID 0000.0001)                 2.691790288994575E+05,      /* I = 24 */
(PID.TID 0000.0001)                 2.597126963772147E+05,      /* I = 25 */
(PID.TID 0000.0001)                 2.487693460283865E+05,      /* I = 26 */
(PID.TID 0000.0001)                 2.361211699596122E+05,      /* I = 27 */
(PID.TID 0000.0001)                 2.213884732245467E+05,      /* I = 28 */
(PID.TID 0000.0001)                 2.038999045536999E+05,      /* I = 29 */
(PID.TID 0000.0001)                 1.823321598773926E+05,      /* I = 30 */
(PID.TID 0000.0001)                 1.534505834330338E+05,      /* I = 31 */
(PID.TID 0000.0001)                 1.009837800879055E+05       /* I = 32 */
(PID.TID 0000.0001)     ;
(PID.TID 0000.0001) dxG =  /* dxG(1,:,1,:) ( units: m ) */
(PID.TID 0000.0001)                 1.009837800879055E+05,      /* J =  1 */
(PID.TID 0000.0001)                 1.403701524205398E+05,      /* J =  2 */
(PID.TID 0000.0001)                 1.716197227386011E+05,      /* J =  3 */
(PID.TID 0000.0001)                 1.950254041626018E+05,      /* J =  4 */
(PID.TID 0000.0001)                 2.138410773065497E+05,      /* J =  5 */
(PID.TID 0000.0001)                 2.295958105911512E+05,      /* J =  6 */
(PID.TID 0000.0001)                 2.430829951739083E+05,      /* J =  7 */
(PID.TID 0000.0001)                 2.547526806712889E+05,      /* J =  8 */
(PID.TID 0000.0001)                 2.648750305193301E+05,      /* J =  9 */
(PID.TID 0000.0001)                 2.736173771018112E+05,      /* J = 10 */
(PID.TID 0000.0001)                 2.810845823202647E+05,      /* J = 11 */
(PID.TID 0000.0001)                 2.873420591008078E+05,      /* J = 12 */
(PID.TID 0000.0001)                 2.924298293668651E+05,      /* J = 13 */
(PID.TID 0000.0001)                 2.963715635865306E+05,      /* J = 14 */
(PID.TID 0000.0001)                 2.991805843171258E+05,      /* J = 15 */
(PID.TID 0000.0001)                 3.008638765647886E+05,      /* J = 16 */
(PID.TID 0000.0001)                 3.014246674484008E+05,      /* J = 17 */
(PID.TID 0000.0001)                 3.008638765647886E+05,      /* J = 18 */
(PID.TID 0000.0001)                 2.991805843171258E+05,      /* J = 19 */
(PID.TID 0000.0001)                 2.963715635865306E+05,      /* J = 20 */
(PID.TID 0000.0001)                 2.924298293668651E+05,      /* J = 21 */
(PID.TID 0000.0001)                 2.873420591008078E+05,      /* J = 22 */
(PID.TID 0000.0001)                 2.810845823202647E+05,      /* J = 23 */
(PID.TID 0000.0001)                 2.736173771018112E+05,      /* J = 24 */
(PID.TID 0000.0001)                 2.648750305193301E+05,      /* J = 25 */
(PID.TID 0000.0001)                 2.547526806712889E+05,      /* J = 26 */
(PID.TID 0000.0001)                 2.430829951739083E+05,      /* J = 27 */
(PID.TID 0000.0001)                 2.295958105911512E+05,      /* J = 28 */
(PID.TID 0000.0001)                 2.138410773065497E+05,      /* J = 29 */
(PID.TID 0000.0001)                 1.950254041626018E+05,      /* J = 30 */
(PID.TID 0000.0001)                 1.716197227386011E+05,      /* J = 31 */
(PID.TID 0000.0001)                 1.403701524205398E+05       /* J = 32 */
(PID.TID 0000.0001)     ;
(PID.TID 0000.0001) dyG =  /* dyG(:,1,:,1) ( units: m ) */
(PID.TID 0000.0001)                 1.009837800879055E+05,      /* I =  1 */
(PID.TID 0000.0001)                 1.403701524205398E+05,      /* I =  2 */
(PID.TID 0000.0001)                 1.716197227386011E+05,      /* I =  3 */
(PID.TID 0000.0001)                 1.950254041626018E+05,      /* I =  4 */
(PID.TID 0000.0001)                 2.138410773065497E+05,      /* I =  5 */
(PID.TID 0000.0001)                 2.295958105911512E+05,      /* I =  6 */
(PID.TID 0000.0001)                 2.430829951739083E+05,      /* I =  7 */
(PID.TID 0000.0001)                 2.547526806712889E+05,      /* I =  8 */
(PID.TID 0000.0001)                 2.648750305193301E+05,      /* I =  9 */
(PID.TID 0000.0001)                 2.736173771018112E+05,      /* I = 10 */
(PID.TID 0000.0001)                 2.810845823202647E+05,      /* I = 11 */
(PID.TID 0000.0001)                 2.873420591008078E+05,      /* I = 12 */
(PID.TID 0000.0001)                 2.924298293668651E+05,      /* I = 13 */
(PID.TID 0000.0001)                 2.963715635865306E+05,      /* I = 14 */
(PID.TID 0000.0001)                 2.991805843171258E+05,      /* I = 15 */
(PID.TID 0000.0001)                 3.008638765647886E+05,      /* I = 16 */
(PID.TID 0000.0001)                 3.014246674484008E+05,      /* I = 17 */
(PID.TID 0000.0001)                 3.008638765647886E+05,      /* I = 18 */
(PID.TID 0000.0001)                 2.991805843171258E+05,      /* I = 19 */
(PID.TID 0000.0001)                 2.963715635865306E+05,      /* I = 20 */
(PID.TID 0000.0001)                 2.924298293668651E+05,      /* I = 21 */
(PID.TID 0000.0001)                 2.873420591008078E+05,      /* I = 22 */
(PID.TID 0000.0001)                 2.810845823202647E+05,      /* I = 23 */
(PID.TID 0000.0001)                 2.736173771018112E+05,      /* I = 24 */
(PID.TID 0000.0001)                 2.648750305193301E+05,      /* I = 25 */
(PID.TID 0000.0001)                 2.547526806712889E+05,      /* I = 26 */
(PID.TID 0000.0001)                 2.430829951739083E+05,      /* I = 27 */
(PID.TID 0000.0001)                 2.295958105911512E+05,      /* I = 28 */
(PID.TID 0000.0001)                 2.138410773065497E+05,      /* I = 29 */
(PID.TID 0000.0001)                 1.950254041626018E+05,      /* I = 30 */
(PID.TID 0000.0001)                 1.716197227386011E+05,      /* I = 31 */
(PID.TID 0000.0001)                 1.403701524205398E+05       /* I = 32 */
(PID.TID 0000.0001)     ;
(PID.TID 0000.0001) dyG =  /* dyG(1,:,1,:) ( units: m ) */
(PID.TID 0000.0001)                 1.009837800879055E+05,      /* J =  1 */
(PID.TID 0000.0001)                 1.534505834330338E+05,      /* J =  2 */
(PID.TID 0000.0001)                 1.823321598773926E+05,      /* J =  3 */
(PID.TID 0000.0001)                 2.038999045536999E+05,      /* J =  4 */
(PID.TID 0000.0001)                 2.213884732245467E+05,      /* J =  5 */
(PID.TID 0000.0001)                 2.361211699596122E+05,      /* J =  6 */
(PID.TID 0000.0001)                 2.487693460283865E+05,      /* J =  7 */
(PID.TID 0000.0001)                 2.597126963772147E+05,      /* J =  8 */
(PID.TID 0000.0001)                 2.691790288994575E+05,      /* J =  9 */
(PID.TID 0000.0001)                 2.773091043277394E+05,      /* J = 10 */
(PID.TID 0000.0001)                 2.841906470085516E+05,      /* J = 11 */
(PID.TID 0000.0001)                 2.898778860929753E+05,      /* J = 12 */
(PID.TID 0000.0001)                 2.944035815526416E+05,      /* J = 13 */
(PID.TID 0000.0001)                 2.977867909042096E+05,      /* J = 14 */
(PID.TID 0000.0001)                 3.000380090330854E+05,      /* J = 15 */
(PID.TID 0000.0001)     2 @  3.011625828699101E+05,             /* J = 16: 17 */
(PID.TID 0000.0001)                 3.000380090330854E+05,      /* J = 18 */
(PID.TID 0000.0001)                 2.977867909042096E+05,      /* J = 19 */
(PID.TID 0000.0001)                 2.944035815526416E+05,      /* J = 20 */
(PID.TID 0000.0001)                 2.898778860929753E+05,      /* J = 21 */
(PID.TID 0000.0001)                 2.841906470085516E+05,      /* J = 22 */
(PID.TID 0000.0001)                 2.773091043277394E+05,      /* J = 23 */
(PID.TID 0000.0001)                 2.691790288994575E+05,      /* J = 24 */
(PID.TID 0000.0001)                 2.597126963772147E+05,      /* J = 25 */
(PID.TID 0000.0001)                 2.487693460283865E+05,      /* J = 26 */
(PID.TID 0000.0001)                 2.361211699596122E+05,      /* J = 27 */
(PID.TID 0000.0001)                 2.213884732245467E+05,      /* J = 28 */
(PID.TID 0000.0001)                 2.038999045536999E+05,      /* J = 29 */
(PID.TID 0000.0001)                 1.823321598773926E+05,      /* J = 30 */
(PID.TID 0000.0001)                 1.534505834330338E+05,      /* J = 31 */
(PID.TID 0000.0001)                 1.009837800879055E+05       /* J = 32 */
(PID.TID 0000.0001)     ;
(PID.TID 0000.0001) dxC =  /* dxC(:,1,:,1) ( units: m ) */
(PID.TID 0000.0001)                 1.114203141013064E+05,      /* I =  1 */
(PID.TID 0000.0001)                 1.391343389937106E+05,      /* I =  2 */
(PID.TID 0000.0001)                 1.709574999026266E+05,      /* I =  3 */
(PID.TID 0000.0001)                 1.946503699269892E+05,      /* I =  4 */
(PID.TID 0000.0001)                 2.135964483342134E+05,      /* I =  5 */
(PID.TID 0000.0001)                 2.294195678257306E+05,      /* I =  6 */
(PID.TID 0000.0001)                 2.429464709770498E+05,      /* I =  7 */
(PID.TID 0000.0001)                 2.546408290696998E+05,      /* I =  8 */
(PID.TID 0000.0001)                 2.647791839299727E+05,      /* I =  9 */
(PID.TID 0000.0001)                 2.735321911346108E+05,      /* I = 10 */
(PID.TID 0000.0001)                 2.810065951609633E+05,      /* I = 11 */
(PID.TID 0000.0001)                 2.872689479506990E+05,      /* I = 12 */
(PID.TID 0000.0001)                 2.923599955312932E+05,      /* I = 13 */
(PID.TID 0000.0001)                 2.963038832565530E+05,      /* I = 14 */
(PID.TID 0000.0001)                 2.991142470004740E+05,      /* I = 15 */
(PID.TID 0000.0001)                 3.007982711627968E+05,      /* I = 16 */
(PID.TID 0000.0001)                 3.013593857228136E+05,      /* I = 17 */
(PID.TID 0000.0001)                 3.007982711627968E+05,      /* I = 18 */
(PID.TID 0000.0001)                 2.991142470004740E+05,      /* I = 19 */
(PID.TID 0000.0001)                 2.963038832565530E+05,      /* I = 20 */
(PID.TID 0000.0001)                 2.923599955312932E+05,      /* I = 21 */
(PID.TID 0000.0001)                 2.872689479506990E+05,      /* I = 22 */
(PID.TID 0000.0001)                 2.810065951609633E+05,      /* I = 23 */
(PID.TID 0000.0001)                 2.735321911346108E+05,      /* I = 24 */
(PID.TID 0000.0001)                 2.647791839299727E+05,      /* I = 25 */
(PID.TID 0000.0001)                 2.546408290696998E+05,      /* I = 26 */
(PID.TID 0000.0001)                 2.429464709770498E+05,      /* I = 27 */
(PID.TID 0000.0001)                 2.294195678257306E+05,      /* I = 28 */
(PID.TID 0000.0001)                 2.135964483342134E+05,      /* I = 29 */
(PID.TID 0000.0001)                 1.946503699269892E+05,      /* I = 30 */
(PID.TID 0000.0001)                 1.709574999026266E+05,      /* I = 31 */
(PID.TID 0000.0001)                 1.391343389937106E+05       /* I = 32 */
(PID.TID 0000.0001)     ;
(PID.TID 0000.0001) dxC =  /* dxC(1,:,1,:) ( units: m ) */
(PID.TID 0000.0001)                 1.114203141013064E+05,      /* J =  1 */
(PID.TID 0000.0001)                 1.549545757850771E+05,      /* J =  2 */
(PID.TID 0000.0001)                 1.829777599966776E+05,      /* J =  3 */
(PID.TID 0000.0001)                 2.042717761866506E+05,      /* J =  4 */
(PID.TID 0000.0001)                 2.216367828252819E+05,      /* J =  5 */
(PID.TID 0000.0001)                 2.363029564123586E+05,      /* J =  6 */
(PID.TID 0000.0001)                 2.489113743322025E+05,      /* J =  7 */
(PID.TID 0000.0001)                 2.598293319150326E+05,      /* J =  8 */
(PID.TID 0000.0001)                 2.692787333338535E+05,      /* J =  9 */
(PID.TID 0000.0001)                 2.773972106720365E+05,      /* J = 10 */
(PID.TID 0000.0001)                 2.842706922224557E+05,      /* J = 11 */
(PID.TID 0000.0001)                 2.899523122489403E+05,      /* J = 12 */
(PID.TID 0000.0001)                 2.944741346384699E+05,      /* J = 13 */
(PID.TID 0000.0001)                 2.978547649292580E+05,      /* J = 14 */
(PID.TID 0000.0001)                 3.001044073506459E+05,      /* J = 15 */
(PID.TID 0000.0001)     2 @  3.012281885409289E+05,             /* J = 16: 17 */
(PID.TID 0000.0001)                 3.001044073506459E+05,      /* J = 18 */
(PID.TID 0000.0001)                 2.978547649292580E+05,      /* J = 19 */
(PID.TID 0000.0001)                 2.944741346384699E+05,      /* J = 20 */
(PID.TID 0000.0001)                 2.899523122489403E+05,      /* J = 21 */
(PID.TID 0000.0001)                 2.842706922224557E+05,      /* J = 22 */
(PID.TID 0000.0001)                 2.773972106720365E+05,      /* J = 23 */
(PID.TID 0000.0001)                 2.692787333338535E+05,      /* J = 24 */
(PID.TID 0000.0001)                 2.598293319150326E+05,      /* J = 25 */
(PID.TID 0000.0001)                 2.489113743322025E+05,      /* J = 26 */
(PID.TID 0000.0001)                 2.363029564123586E+05,      /* J = 27 */
(PID.TID 0000.0001)                 2.216367828252819E+05,      /* J = 28 */
(PID.TID 0000.0001)                 2.042717761866506E+05,      /* J = 29 */
(PID.TID 0000.0001)                 1.829777599966776E+05,      /* J = 30 */
(PID.TID 0000.0001)                 1.549545757850771E+05,      /* J = 31 */
(PID.TID 0000.0001)                 1.114203141013064E+05       /* J = 32 */
(PID.TID 0000.0001)     ;
(PID.TID 0000.0001) dyC =  /* dyC(:,1,:,1) ( units: m ) */
(PID.TID 0000.0001)                 1.114203141013064E+05,      /* I =  1 */
(PID.TID 0000.0001)                 1.549545757850771E+05,      /* I =  2 */
(PID.TID 0000.0001)                 1.829777599966776E+05,      /* I =  3 */
(PID.TID 0000.0001)                 2.042717761866506E+05,      /* I =  4 */
(PID.TID 0000.0001)                 2.216367828252819E+05,      /* I =  5 */
(PID.TID 0000.0001)                 2.363029564123586E+05,      /* I =  6 */
(PID.TID 0000.0001)                 2.489113743322025E+05,      /* I =  7 */
(PID.TID 0000.0001)                 2.598293319150326E+05,      /* I =  8 */
(PID.TID 0000.0001)                 2.692787333338535E+05,      /* I =  9 */
(PID.TID 0000.0001)                 2.773972106720365E+05,      /* I = 10 */
(PID.TID 0000.0001)                 2.842706922224557E+05,      /* I = 11 */
(PID.TID 0000.0001)                 2.899523122489403E+05,      /* I = 12 */
(PID.TID 0000.0001)                 2.944741346384699E+05,      /* I = 13 */
(PID.TID 0000.0001)                 2.978547649292580E+05,      /* I = 14 */
(PID.TID 0000.0001)                 3.001044073506459E+05,      /* I = 15 */
(PID.TID 0000.0001)     2 @  3.012281885409289E+05,             /* I = 16: 17 */
(PID.TID 0000.0001)                 3.001044073506459E+05,      /* I = 18 */
(PID.TID 0000.0001)                 2.978547649292580E+05,      /* I = 19 */
(PID.TID 0000.0001)                 2.944741346384699E+05,      /* I = 20 */
(PID.TID 0000.0001)                 2.899523122489403E+05,      /* I = 21 */
(PID.TID 0000.0001)                 2.842706922224557E+05,      /* I = 22 */
(PID.TID 0000.0001)                 2.773972106720365E+05,      /* I = 23 */
(PID.TID 0000.0001)                 2.692787333338535E+05,      /* I = 24 */
(PID.TID 0000.0001)                 2.598293319150326E+05,      /* I = 25 */
(PID.TID 0000.0001)                 2.489113743322025E+05,      /* I = 26 */
(PID.TID 0000.0001)                 2.363029564123586E+05,      /* I = 27 */
(PID.TID 0000.0001)                 2.216367828252819E+05,      /* I = 28 */
(PID.TID 0000.0001)                 2.042717761866506E+05,      /* I = 29 */
(PID.TID 0000.0001)                 1.829777599966776E+05,      /* I = 30 */
(PID.TID 0000.0001)                 1.549545757850771E+05,      /* I = 31 */
(PID.TID 0000.0001)                 1.114203141013064E+05       /* I = 32 */
(PID.TID 0000.0001)     ;
(PID.TID 0000.0001) dyC =  /* dyC(1,:,1,:) ( units: m ) */
(PID.TID 0000.0001)                 1.114203141013064E+05,      /* J =  1 */
(PID.TID 0000.0001)                 1.391343389937106E+05,      /* J =  2 */
(PID.TID 0000.0001)                 1.709574999026266E+05,      /* J =  3 */
(PID.TID 0000.0001)                 1.946503699269892E+05,      /* J =  4 */
(PID.TID 0000.0001)                 2.135964483342134E+05,      /* J =  5 */
(PID.TID 0000.0001)                 2.294195678257306E+05,      /* J =  6 */
(PID.TID 0000.0001)                 2.429464709770498E+05,      /* J =  7 */
(PID.TID 0000.0001)                 2.546408290696998E+05,      /* J =  8 */
(PID.TID 0000.0001)                 2.647791839299727E+05,      /* J =  9 */
(PID.TID 0000.0001)                 2.735321911346108E+05,      /* J = 10 */
(PID.TID 0000.0001)                 2.810065951609633E+05,      /* J = 11 */
(PID.TID 0000.0001)                 2.872689479506990E+05,      /* J = 12 */
(PID.TID 0000.0001)                 2.923599955312932E+05,      /* J = 13 */
(PID.TID 0000.0001)                 2.963038832565530E+05,      /* J = 14 */
(PID.TID 0000.0001)                 2.991142470004740E+05,      /* J = 15 */
(PID.TID 0000.0001)                 3.007982711627968E+05,      /* J = 16 */
(PID.TID 0000.0001)                 3.013593857228136E+05,      /* J = 17 */
(PID.TID 0000.0001)                 3.007982711627968E+05,      /* J = 18 */
(PID.TID 0000.0001)                 2.991142470004740E+05,      /* J = 19 */
(PID.TID 0000.0001)                 2.963038832565530E+05,      /* J = 20 */
(PID.TID 0000.0001)                 2.923599955312932E+05,      /* J = 21 */
(PID.TID 0000.0001)                 2.872689479506990E+05,      /* J = 22 */
(PID.TID 0000.0001)                 2.810065951609633E+05,      /* J = 23 */
(PID.TID 0000.0001)                 2.735321911346108E+05,      /* J = 24 */
(PID.TID 0000.0001)                 2.647791839299727E+05,      /* J = 25 */
(PID.TID 0000.0001)                 2.546408290696998E+05,      /* J = 26 */
(PID.TID 0000.0001)                 2.429464709770498E+05,      /* J = 27 */
(PID.TID 0000.0001)                 2.294195678257306E+05,      /* J = 28 */
(PID.TID 0000.0001)                 2.135964483342134E+05,      /* J = 29 */
(PID.TID 0000.0001)                 1.946503699269892E+05,      /* J = 30 */
(PID.TID 0000.0001)                 1.709574999026266E+05,      /* J = 31 */
(PID.TID 0000.0001)                 1.391343389937106E+05       /* J = 32 */
(PID.TID 0000.0001)     ;
(PID.TID 0000.0001) dxV =  /* dxV(:,1,:,1) ( units: m ) */
(PID.TID 0000.0001)                 8.015229982413632E+04,      /* I =  1 */
(PID.TID 0000.0001)                 1.333130744933864E+05,      /* I =  2 */
(PID.TID 0000.0001)                 1.691744868129062E+05,      /* I =  3 */
(PID.TID 0000.0001)                 1.937548202849060E+05,      /* I =  4 */
(PID.TID 0000.0001)                 2.130490056267208E+05,      /* I =  5 */
(PID.TID 0000.0001)                 2.290479919481738E+05,      /* I =  6 */
(PID.TID 0000.0001)                 2.426774358027003E+05,      /* I =  7 */
(PID.TID 0000.0001)                 2.544372984215561E+05,      /* I =  8 */
(PID.TID 0000.0001)                 2.646201463834826E+05,      /* I =  9 */
(PID.TID 0000.0001)                 2.734046499619031E+05,      /* I = 10 */
(PID.TID 0000.0001)                 2.809019351693761E+05,      /* I = 11 */
(PID.TID 0000.0001)                 2.871811105274442E+05,      /* I = 12 */
(PID.TID 0000.0001)                 2.922844849381675E+05,      /* I = 13 */
(PID.TID 0000.0001)                 2.962371870847826E+05,      /* I = 14 */
(PID.TID 0000.0001)                 2.990534755671296E+05,      /* I = 15 */
(PID.TID 0000.0001)                 3.007409169495504E+05,      /* I = 16 */
(PID.TID 0000.0001)                 3.013031486919771E+05,      /* I = 17 */
(PID.TID 0000.0001)                 3.007409169495504E+05,      /* I = 18 */
(PID.TID 0000.0001)                 2.990534755671296E+05,      /* I = 19 */
(PID.TID 0000.0001)                 2.962371870847826E+05,      /* I = 20 */
(PID.TID 0000.0001)                 2.922844849381675E+05,      /* I = 21 */
(PID.TID 0000.0001)                 2.871811105274442E+05,      /* I = 22 */
(PID.TID 0000.0001)                 2.809019351693761E+05,      /* I = 23 */
(PID.TID 0000.0001)                 2.734046499619031E+05,      /* I = 24 */
(PID.TID 0000.0001)                 2.646201463834826E+05,      /* I = 25 */
(PID.TID 0000.0001)                 2.544372984215561E+05,      /* I = 26 */
(PID.TID 0000.0001)                 2.426774358027003E+05,      /* I = 27 */
(PID.TID 0000.0001)                 2.290479919481738E+05,      /* I = 28 */
(PID.TID 0000.0001)                 2.130490056267208E+05,      /* I = 29 */
(PID.TID 0000.0001)                 1.937548202849060E+05,      /* I = 30 */
(PID.TID 0000.0001)                 1.691744868129062E+05,      /* I = 31 */
(PID.TID 0000.0001)                 1.333130744933864E+05       /* I = 32 */
(PID.TID 0000.0001)     ;
(PID.TID 0000.0001) dxV =  /* dxV(1,:,1,:) ( units: m ) */
(PID.TID 0000.0001)                 8.015229982413632E+04,      /* J =  1 */
(PID.TID 0000.0001)                 1.362652340208229E+05,      /* J =  2 */
(PID.TID 0000.0001)                 1.701080315742101E+05,      /* J =  3 */
(PID.TID 0000.0001)                 1.942331448101592E+05,      /* J =  4 */
(PID.TID 0000.0001)                 2.133486626971531E+05,      /* J =  5 */
(PID.TID 0000.0001)                 2.292584591272880E+05,      /* J =  6 */
(PID.TID 0000.0001)                 2.428369969078989E+05,      /* J =  7 */
(PID.TID 0000.0001)                 2.545652950875683E+05,      /* J =  8 */
(PID.TID 0000.0001)                 2.647274964828301E+05,      /* J =  9 */
(PID.TID 0000.0001)                 2.734980225206389E+05,      /* J = 10 */
(PID.TID 0000.0001)                 2.809856491525217E+05,      /* J = 11 */
(PID.TID 0000.0001)                 2.872580915202295E+05,      /* J = 12 */
(PID.TID 0000.0001)                 2.923567890694162E+05,      /* J = 13 */
(PID.TID 0000.0001)                 2.963063101754721E+05,      /* J = 14 */
(PID.TID 0000.0001)                 2.991205495886625E+05,      /* J = 15 */
(PID.TID 0000.0001)                 3.008068453676764E+05,      /* J = 16 */
(PID.TID 0000.0001)                 3.013686170436881E+05,      /* J = 17 */
(PID.TID 0000.0001)                 3.008068453676764E+05,      /* J = 18 */
(PID.TID 0000.0001)                 2.991205495886625E+05,      /* J = 19 */
(PID.TID 0000.0001)                 2.963063101754721E+05,      /* J = 20 */
(PID.TID 0000.0001)                 2.923567890694162E+05,      /* J = 21 */
(PID.TID 0000.0001)                 2.872580915202295E+05,      /* J = 22 */
(PID.TID 0000.0001)                 2.809856491525217E+05,      /* J = 23 */
(PID.TID 0000.0001)                 2.734980225206389E+05,      /* J = 24 */
(PID.TID 0000.0001)                 2.647274964828301E+05,      /* J = 25 */
(PID.TID 0000.0001)                 2.545652950875683E+05,      /* J = 26 */
(PID.TID 0000.0001)                 2.428369969078989E+05,      /* J = 27 */
(PID.TID 0000.0001)                 2.292584591272880E+05,      /* J = 28 */
(PID.TID 0000.0001)                 2.133486626971531E+05,      /* J = 29 */
(PID.TID 0000.0001)                 1.942331448101592E+05,      /* J = 30 */
(PID.TID 0000.0001)                 1.701080315742101E+05,      /* J = 31 */
(PID.TID 0000.0001)                 1.362652340208229E+05       /* J = 32 */
(PID.TID 0000.0001)     ;
(PID.TID 0000.0001) dyU =  /* dyU(:,1,:,1) ( units: m ) */
(PID.TID 0000.0001)                 8.015229982413632E+04,      /* I =  1 */
(PID.TID 0000.0001)                 1.362652340208229E+05,      /* I =  2 */
(PID.TID 0000.0001)                 1.701080315742101E+05,      /* I =  3 */
(PID.TID 0000.0001)                 1.942331448101592E+05,      /* I =  4 */
(PID.TID 0000.0001)                 2.133486626971531E+05,      /* I =  5 */
(PID.TID 0000.0001)                 2.292584591272880E+05,      /* I =  6 */
(PID.TID 0000.0001)                 2.428369969078989E+05,      /* I =  7 */
(PID.TID 0000.0001)                 2.545652950875683E+05,      /* I =  8 */
(PID.TID 0000.0001)                 2.647274964828301E+05,      /* I =  9 */
(PID.TID 0000.0001)                 2.734980225206389E+05,      /* I = 10 */
(PID.TID 0000.0001)                 2.809856491525217E+05,      /* I = 11 */
(PID.TID 0000.0001)                 2.872580915202295E+05,      /* I = 12 */
(PID.TID 0000.0001)                 2.923567890694162E+05,      /* I = 13 */
(PID.TID 0000.0001)                 2.963063101754721E+05,      /* I = 14 */
(PID.TID 0000.0001)                 2.991205495886625E+05,      /* I = 15 */
(PID.TID 0000.0001)                 3.008068453676764E+05,      /* I = 16 */
(PID.TID 0000.0001)                 3.013686170436881E+05,      /* I = 17 */
(PID.TID 0000.0001)                 3.008068453676764E+05,      /* I = 18 */
(PID.TID 0000.0001)                 2.991205495886625E+05,      /* I = 19 */
(PID.TID 0000.0001)                 2.963063101754721E+05,      /* I = 20 */
(PID.TID 0000.0001)                 2.923567890694162E+05,      /* I = 21 */
(PID.TID 0000.0001)                 2.872580915202295E+05,      /* I = 22 */
(PID.TID 0000.0001)                 2.809856491525217E+05,      /* I = 23 */
(PID.TID 0000.0001)                 2.734980225206389E+05,      /* I = 24 */
(PID.TID 0000.0001)                 2.647274964828301E+05,      /* I = 25 */
(PID.TID 0000.0001)                 2.545652950875683E+05,      /* I = 26 */
(PID.TID 0000.0001)                 2.428369969078989E+05,      /* I = 27 */
(PID.TID 0000.0001)                 2.292584591272880E+05,      /* I = 28 */
(PID.TID 0000.0001)                 2.133486626971531E+05,      /* I = 29 */
(PID.TID 0000.0001)                 1.942331448101592E+05,      /* I = 30 */
(PID.TID 0000.0001)                 1.701080315742101E+05,      /* I = 31 */
(PID.TID 0000.0001)                 1.362652340208229E+05       /* I = 32 */
(PID.TID 0000.0001)     ;
(PID.TID 0000.0001) dyU =  /* dyU(1,:,1,:) ( units: m ) */
(PID.TID 0000.0001)                 8.015229982413632E+04,      /* J =  1 */
(PID.TID 0000.0001)                 1.333130744933864E+05,      /* J =  2 */
(PID.TID 0000.0001)                 1.691744868129062E+05,      /* J =  3 */
(PID.TID 0000.0001)                 1.937548202849060E+05,      /* J =  4 */
(PID.TID 0000.0001)                 2.130490056267208E+05,      /* J =  5 */
(PID.TID 0000.0001)                 2.290479919481738E+05,      /* J =  6 */
(PID.TID 0000.0001)                 2.426774358027003E+05,      /* J =  7 */
(PID.TID 0000.0001)                 2.544372984215561E+05,      /* J =  8 */
(PID.TID 0000.0001)                 2.646201463834826E+05,      /* J =  9 */
(PID.TID 0000.0001)                 2.734046499619031E+05,      /* J = 10 */
(PID.TID 0000.0001)                 2.809019351693761E+05,      /* J = 11 */
(PID.TID 0000.0001)                 2.871811105274442E+05,      /* J = 12 */
(PID.TID 0000.0001)                 2.922844849381675E+05,      /* J = 13 */
(PID.TID 0000.0001)                 2.962371870847826E+05,      /* J = 14 */
(PID.TID 0000.0001)                 2.990534755671296E+05,      /* J = 15 */
(PID.TID 0000.0001)                 3.007409169495504E+05,      /* J = 16 */
(PID.TID 0000.0001)                 3.013031486919771E+05,      /* J = 17 */
(PID.TID 0000.0001)                 3.007409169495504E+05,      /* J = 18 */
(PID.TID 0000.0001)                 2.990534755671296E+05,      /* J = 19 */
(PID.TID 0000.0001)                 2.962371870847826E+05,      /* J = 20 */
(PID.TID 0000.0001)                 2.922844849381675E+05,      /* J = 21 */
(PID.TID 0000.0001)                 2.871811105274442E+05,      /* J = 22 */
(PID.TID 0000.0001)                 2.809019351693761E+05,      /* J = 23 */
(PID.TID 0000.0001)                 2.734046499619031E+05,      /* J = 24 */
(PID.TID 0000.0001)                 2.646201463834826E+05,      /* J = 25 */
(PID.TID 0000.0001)                 2.544372984215561E+05,      /* J = 26 */
(PID.TID 0000.0001)                 2.426774358027003E+05,      /* J = 27 */
(PID.TID 0000.0001)                 2.290479919481738E+05,      /* J = 28 */
(PID.TID 0000.0001)                 2.130490056267208E+05,      /* J = 29 */
(PID.TID 0000.0001)                 1.937548202849060E+05,      /* J = 30 */
(PID.TID 0000.0001)                 1.691744868129062E+05,      /* J = 31 */
(PID.TID 0000.0001)                 1.333130744933864E+05       /* J = 32 */
(PID.TID 0000.0001)     ;
(PID.TID 0000.0001) rA  =  /* rA (:,1,:,1) ( units: m^2 ) */
(PID.TID 0000.0001)                 1.401900702255611E+10,      /* I =  1 */
(PID.TID 0000.0001)                 2.459906945574446E+10,      /* I =  2 */
(PID.TID 0000.0001)                 3.378518544307869E+10,      /* I =  3 */
(PID.TID 0000.0001)                 4.192037169898667E+10,      /* I =  4 */
(PID.TID 0000.0001)                 4.925938996118163E+10,      /* I =  5 */
(PID.TID 0000.0001)                 5.594154126607553E+10,      /* I =  6 */
(PID.TID 0000.0001)                 6.203683527772523E+10,      /* I =  7 */
(PID.TID 0000.0001)                 6.757541173817516E+10,      /* I =  8 */
(PID.TID 0000.0001)                 7.256353271748119E+10,      /* I =  9 */
(PID.TID 0000.0001)                 7.699293007098555E+10,      /* I = 10 */
(PID.TID 0000.0001)                 8.084683449728902E+10,      /* I = 11 */
(PID.TID 0000.0001)                 8.410423102796223E+10,      /* I = 12 */
(PID.TID 0000.0001)                 8.674306976737517E+10,      /* I = 13 */
(PID.TID 0000.0001)                 8.874277443041928E+10,      /* I = 14 */
(PID.TID 0000.0001)                 9.008620045350865E+10,      /* I = 15 */
(PID.TID 0000.0001)                 9.076111290418457E+10,      /* I = 16 */
(PID.TID 0000.0001)                 9.076111290422060E+10,      /* I = 17 */
(PID.TID 0000.0001)                 9.008620045354469E+10,      /* I = 18 */
(PID.TID 0000.0001)                 8.874277443041928E+10,      /* I = 19 */
(PID.TID 0000.0001)                 8.674306976741121E+10,      /* I = 20 */
(PID.TID 0000.0001)                 8.410423102799828E+10,      /* I = 21 */
(PID.TID 0000.0001)                 8.084683449728902E+10,      /* I = 22 */
(PID.TID 0000.0001)                 7.699293007098555E+10,      /* I = 23 */
(PID.TID 0000.0001)                 7.256353271748119E+10,      /* I = 24 */
(PID.TID 0000.0001)                 6.757541173817516E+10,      /* I = 25 */
(PID.TID 0000.0001)                 6.203683527772523E+10,      /* I = 26 */
(PID.TID 0000.0001)                 5.594154126611156E+10,      /* I = 27 */
(PID.TID 0000.0001)                 4.925938996118163E+10,      /* I = 28 */
(PID.TID 0000.0001)                 4.192037169898667E+10,      /* I = 29 */
(PID.TID 0000.0001)                 3.378518544304265E+10,      /* I = 30 */
(PID.TID 0000.0001)                 2.459906945574446E+10,      /* I = 31 */
(PID.TID 0000.0001)                 1.401900702259215E+10       /* I = 32 */
(PID.TID 0000.0001)     ;
(PID.TID 0000.0001) rA  =  /* rA (1,:,1,:) ( units: m^2 ) */
(PID.TID 0000.0001)                 1.401900702255611E+10,      /* J =  1 */
(PID.TID 0000.0001)                 2.459906945574446E+10,      /* J =  2 */
(PID.TID 0000.0001)                 3.378518544307869E+10,      /* J =  3 */
(PID.TID 0000.0001)                 4.192037169898667E+10,      /* J =  4 */
(PID.TID 0000.0001)                 4.925938996118163E+10,      /* J =  5 */
(PID.TID 0000.0001)                 5.594154126607553E+10,      /* J =  6 */
(PID.TID 0000.0001)                 6.203683527776127E+10,      /* J =  7 */
(PID.TID 0000.0001)                 6.757541173817516E+10,      /* J =  8 */
(PID.TID 0000.0001)                 7.256353271748119E+10,      /* J =  9 */
(PID.TID 0000.0001)                 7.699293007098555E+10,      /* J = 10 */
(PID.TID 0000.0001)                 8.084683449728902E+10,      /* J = 11 */
(PID.TID 0000.0001)                 8.410423102799828E+10,      /* J = 12 */
(PID.TID 0000.0001)                 8.674306976737517E+10,      /* J = 13 */
(PID.TID 0000.0001)                 8.874277443041928E+10,      /* J = 14 */
(PID.TID 0000.0001)                 9.008620045350865E+10,      /* J = 15 */
(PID.TID 0000.0001)                 9.076111290418457E+10,      /* J = 16 */
(PID.TID 0000.0001)                 9.076111290422060E+10,      /* J = 17 */
(PID.TID 0000.0001)                 9.008620045354469E+10,      /* J = 18 */
(PID.TID 0000.0001)                 8.874277443041928E+10,      /* J = 19 */
(PID.TID 0000.0001)                 8.674306976737517E+10,      /* J = 20 */
(PID.TID 0000.0001)                 8.410423102799828E+10,      /* J = 21 */
(PID.TID 0000.0001)                 8.084683449728902E+10,      /* J = 22 */
(PID.TID 0000.0001)                 7.699293007098555E+10,      /* J = 23 */
(PID.TID 0000.0001)                 7.256353271748119E+10,      /* J = 24 */
(PID.TID 0000.0001)                 6.757541173817516E+10,      /* J = 25 */
(PID.TID 0000.0001)                 6.203683527772523E+10,      /* J = 26 */
(PID.TID 0000.0001)                 5.594154126607553E+10,      /* J = 27 */
(PID.TID 0000.0001)                 4.925938996118163E+10,      /* J = 28 */
(PID.TID 0000.0001)                 4.192037169898667E+10,      /* J = 29 */
(PID.TID 0000.0001)                 3.378518544307869E+10,      /* J = 30 */
(PID.TID 0000.0001)                 2.459906945574446E+10,      /* J = 31 */
(PID.TID 0000.0001)                 1.401900702259215E+10       /* J = 32 */
(PID.TID 0000.0001)     ;
(PID.TID 0000.0001) rAw =  /* rAw(:,1,:,1) ( units: m^2 ) */
(PID.TID 0000.0001)                 1.216690346714270E+10,      /* I =  1 */
(PID.TID 0000.0001)                 1.974052138506315E+10,      /* I =  2 */
(PID.TID 0000.0001)                 2.943712825252015E+10,      /* I =  3 */
(PID.TID 0000.0001)                 3.801790263324359E+10,      /* I =  4 */
(PID.TID 0000.0001)                 4.571243814189866E+10,      /* I =  5 */
(PID.TID 0000.0001)                 5.269930713599979E+10,      /* I =  6 */
(PID.TID 0000.0001)                 5.907428494299063E+10,      /* I =  7 */
(PID.TID 0000.0001)                 6.488320895111514E+10,      /* I =  8 */
(PID.TID 0000.0001)                 7.014205907741882E+10,      /* I =  9 */
(PID.TID 0000.0001)                 7.484854821847499E+10,      /* I = 10 */
(PID.TID 0000.0001)                 7.898934631431560E+10,      /* I = 11 */
(PID.TID 0000.0001)                 8.254500894894537E+10,      /* I = 12 */
(PID.TID 0000.0001)                 8.549360686473492E+10,      /* I = 13 */
(PID.TID 0000.0001)                 8.781353403175085E+10,      /* I = 14 */
(PID.TID 0000.0001)                 8.948571540392021E+10,      /* I = 15 */
(PID.TID 0000.0001)                 9.049530583086168E+10,      /* I = 16 */
(PID.TID 0000.0001)                 9.083293515008307E+10,      /* I = 17 */
(PID.TID 0000.0001)                 9.049530583087070E+10,      /* I = 18 */
(PID.TID 0000.0001)                 8.948571540391121E+10,      /* I = 19 */
(PID.TID 0000.0001)                 8.781353403174185E+10,      /* I = 20 */
(PID.TID 0000.0001)                 8.549360686467184E+10,      /* I = 21 */
(PID.TID 0000.0001)                 8.254500894890933E+10,      /* I = 22 */
(PID.TID 0000.0001)                 7.898934631434262E+10,      /* I = 23 */
(PID.TID 0000.0001)                 7.484854821844795E+10,      /* I = 24 */
(PID.TID 0000.0001)                 7.014205907742783E+10,      /* I = 25 */
(PID.TID 0000.0001)                 6.488320895111514E+10,      /* I = 26 */
(PID.TID 0000.0001)                 5.907428494299063E+10,      /* I = 27 */
(PID.TID 0000.0001)                 5.269930713599078E+10,      /* I = 28 */
(PID.TID 0000.0001)                 4.571243814190767E+10,      /* I = 29 */
(PID.TID 0000.0001)                 3.801790263325260E+10,      /* I = 30 */
(PID.TID 0000.0001)                 2.943712825251114E+10,      /* I = 31 */
(PID.TID 0000.0001)                 1.974052138509018E+10       /* I = 32 */
(PID.TID 0000.0001)     ;
(PID.TID 0000.0001) rAw =  /* rAw(1,:,1,:) ( units: m^2 ) */
(PID.TID 0000.0001)                 1.216690346714270E+10,      /* J =  1 */
(PID.TID 0000.0001)                 2.390126200743558E+10,      /* J =  2 */
(PID.TID 0000.0001)                 3.341968103208270E+10,      /* J =  3 */
(PID.TID 0000.0001)                 4.168532893152940E+10,      /* J =  4 */
(PID.TID 0000.0001)                 4.909074590409593E+10,      /* J =  5 */
(PID.TID 0000.0001)                 5.581203765722643E+10,      /* J =  6 */
(PID.TID 0000.0001)                 6.193257577506788E+10,      /* J =  7 */
(PID.TID 0000.0001)                 6.748840226738273E+10,      /* J =  8 */
(PID.TID 0000.0001)                 7.248875782324815E+10,      /* J =  9 */
(PID.TID 0000.0001)                 7.692702995909871E+10,      /* J = 10 */
(PID.TID 0000.0001)                 8.078743937057304E+10,      /* J = 11 */
(PID.TID 0000.0001)                 8.404959656062837E+10,      /* J = 12 */
(PID.TID 0000.0001)                 8.669186205742538E+10,      /* J = 13 */
(PID.TID 0000.0001)                 8.869393350723613E+10,      /* J = 14 */
(PID.TID 0000.0001)                 9.003884657168852E+10,      /* J = 15 */
(PID.TID 0000.0001)     2 @  9.071447638299399E+10,             /* J = 16: 17 */
(PID.TID 0000.0001)                 9.003884657168852E+10,      /* J = 18 */
(PID.TID 0000.0001)                 8.869393350723613E+10,      /* J = 19 */
(PID.TID 0000.0001)                 8.669186205742538E+10,      /* J = 20 */
(PID.TID 0000.0001)                 8.404959656062837E+10,      /* J = 21 */
(PID.TID 0000.0001)                 8.078743937057304E+10,      /* J = 22 */
(PID.TID 0000.0001)                 7.692702995909871E+10,      /* J = 23 */
(PID.TID 0000.0001)                 7.248875782324815E+10,      /* J = 24 */
(PID.TID 0000.0001)                 6.748840226738273E+10,      /* J = 25 */
(PID.TID 0000.0001)                 6.193257577506788E+10,      /* J = 26 */
(PID.TID 0000.0001)                 5.581203765722643E+10,      /* J = 27 */
(PID.TID 0000.0001)                 4.909074590409593E+10,      /* J = 28 */
(PID.TID 0000.0001)                 4.168532893152940E+10,      /* J = 29 */
(PID.TID 0000.0001)                 3.341968103208270E+10,      /* J = 30 */
(PID.TID 0000.0001)                 2.390126200743558E+10,      /* J = 31 */
(PID.TID 0000.0001)                 1.216690346714270E+10       /* J = 32 */
(PID.TID 0000.0001)     ;
(PID.TID 0000.0001) rAs =  /* rAs(:,1,:,1) ( units: m^2 ) */
(PID.TID 0000.0001)                 1.216690346714270E+10,      /* I =  1 */
(PID.TID 0000.0001)                 2.390126200743558E+10,      /* I =  2 */
(PID.TID 0000.0001)                 3.341968103208270E+10,      /* I =  3 */
(PID.TID 0000.0001)                 4.168532893152940E+10,      /* I =  4 */
(PID.TID 0000.0001)                 4.909074590409593E+10,      /* I =  5 */
(PID.TID 0000.0001)                 5.581203765722643E+10,      /* I =  6 */
(PID.TID 0000.0001)                 6.193257577506788E+10,      /* I =  7 */
(PID.TID 0000.0001)                 6.748840226738273E+10,      /* I =  8 */
(PID.TID 0000.0001)                 7.248875782324815E+10,      /* I =  9 */
(PID.TID 0000.0001)                 7.692702995909871E+10,      /* I = 10 */
(PID.TID 0000.0001)                 8.078743937057304E+10,      /* I = 11 */
(PID.TID 0000.0001)                 8.404959656062837E+10,      /* I = 12 */
(PID.TID 0000.0001)                 8.669186205742538E+10,      /* I = 13 */
(PID.TID 0000.0001)                 8.869393350723613E+10,      /* I = 14 */
(PID.TID 0000.0001)                 9.003884657168852E+10,      /* I = 15 */
(PID.TID 0000.0001)     2 @  9.071447638299399E+10,             /* I = 16: 17 */
(PID.TID 0000.0001)                 9.003884657168852E+10,      /* I = 18 */
(PID.TID 0000.0001)                 8.869393350723613E+10,      /* I = 19 */
(PID.TID 0000.0001)                 8.669186205742538E+10,      /* I = 20 */
(PID.TID 0000.0001)                 8.404959656062837E+10,      /* I = 21 */
(PID.TID 0000.0001)                 8.078743937057304E+10,      /* I = 22 */
(PID.TID 0000.0001)                 7.692702995909871E+10,      /* I = 23 */
(PID.TID 0000.0001)                 7.248875782324815E+10,      /* I = 24 */
(PID.TID 0000.0001)                 6.748840226738273E+10,      /* I = 25 */
(PID.TID 0000.0001)                 6.193257577506788E+10,      /* I = 26 */
(PID.TID 0000.0001)                 5.581203765722643E+10,      /* I = 27 */
(PID.TID 0000.0001)                 4.909074590409593E+10,      /* I = 28 */
(PID.TID 0000.0001)                 4.168532893152940E+10,      /* I = 29 */
(PID.TID 0000.0001)                 3.341968103208270E+10,      /* I = 30 */
(PID.TID 0000.0001)                 2.390126200743558E+10,      /* I = 31 */
(PID.TID 0000.0001)                 1.216690346714270E+10       /* I = 32 */
(PID.TID 0000.0001)     ;
(PID.TID 0000.0001) rAs =  /* rAs(1,:,1,:) ( units: m^2 ) */
(PID.TID 0000.0001)                 1.216690346714270E+10,      /* J =  1 */
(PID.TID 0000.0001)                 1.974052138506315E+10,      /* J =  2 */
(PID.TID 0000.0001)                 2.943712825252015E+10,      /* J =  3 */
(PID.TID 0000.0001)                 3.801790263324359E+10,      /* J =  4 */
(PID.TID 0000.0001)                 4.571243814189866E+10,      /* J =  5 */
(PID.TID 0000.0001)                 5.269930713599979E+10,      /* J =  6 */
(PID.TID 0000.0001)                 5.907428494299063E+10,      /* J =  7 */
(PID.TID 0000.0001)                 6.488320895111514E+10,      /* J =  8 */
(PID.TID 0000.0001)                 7.014205907741882E+10,      /* J =  9 */
(PID.TID 0000.0001)                 7.484854821847499E+10,      /* J = 10 */
(PID.TID 0000.0001)                 7.898934631431560E+10,      /* J = 11 */
(PID.TID 0000.0001)                 8.254500894894537E+10,      /* J = 12 */
(PID.TID 0000.0001)                 8.549360686473492E+10,      /* J = 13 */
(PID.TID 0000.0001)                 8.781353403175085E+10,      /* J = 14 */
(PID.TID 0000.0001)                 8.948571540392021E+10,      /* J = 15 */
(PID.TID 0000.0001)                 9.049530583086168E+10,      /* J = 16 */
(PID.TID 0000.0001)                 9.083293515008307E+10,      /* J = 17 */
(PID.TID 0000.0001)                 9.049530583087070E+10,      /* J = 18 */
(PID.TID 0000.0001)                 8.948571540391121E+10,      /* J = 19 */
(PID.TID 0000.0001)                 8.781353403174185E+10,      /* J = 20 */
(PID.TID 0000.0001)                 8.549360686467184E+10,      /* J = 21 */
(PID.TID 0000.0001)                 8.254500894890933E+10,      /* J = 22 */
(PID.TID 0000.0001)                 7.898934631434262E+10,      /* J = 23 */
(PID.TID 0000.0001)                 7.484854821844795E+10,      /* J = 24 */
(PID.TID 0000.0001)                 7.014205907742783E+10,      /* J = 25 */
(PID.TID 0000.0001)                 6.488320895111514E+10,      /* J = 26 */
(PID.TID 0000.0001)                 5.907428494299063E+10,      /* J = 27 */
(PID.TID 0000.0001)                 5.269930713599078E+10,      /* J = 28 */
(PID.TID 0000.0001)                 4.571243814190767E+10,      /* J = 29 */
(PID.TID 0000.0001)                 3.801790263325260E+10,      /* J = 30 */
(PID.TID 0000.0001)                 2.943712825251114E+10,      /* J = 31 */
(PID.TID 0000.0001)                 1.974052138509018E+10       /* J = 32 */
(PID.TID 0000.0001)     ;
(PID.TID 0000.0001) globalArea = /* Integrated horizontal Area (m^2) */
(PID.TID 0000.0001)                 3.638867375081598E+14
(PID.TID 0000.0001)     ;
(PID.TID 0000.0001) hasWetCSCorners = /* Domain contains CS corners (True/False) */
(PID.TID 0000.0001)                   T
(PID.TID 0000.0001)     ;
(PID.TID 0000.0001) // =======================================================
(PID.TID 0000.0001) // End of Model config. summary
(PID.TID 0000.0001) // =======================================================
(PID.TID 0000.0001) 
(PID.TID 0000.0001) == Packages configuration : Check & print summary ==
(PID.TID 0000.0001) 
(PID.TID 0000.0001) GMREDI_CHECK: #define GMREDI
(PID.TID 0000.0001) GM_AdvForm =     /* if FALSE => use SkewFlux Form */
(PID.TID 0000.0001)                   F
(PID.TID 0000.0001)     ;
(PID.TID 0000.0001) GM_InMomAsStress = /* if TRUE => apply as Eddy Stress */
(PID.TID 0000.0001)                   F
(PID.TID 0000.0001)     ;
(PID.TID 0000.0001) GM_AdvSeparate = /* Calc Bolus & Euler Adv. separately */
(PID.TID 0000.0001)                   F
(PID.TID 0000.0001)     ;
(PID.TID 0000.0001) GM_ExtraDiag =   /* Tensor Extra Diag (line 1&2) non 0 */
(PID.TID 0000.0001)                   F
(PID.TID 0000.0001)     ;
(PID.TID 0000.0001) GM_isopycK =    /* Background Isopyc. Diffusivity [m^2/s] */
(PID.TID 0000.0001)                 8.000000000000000E+02
(PID.TID 0000.0001)     ;
(PID.TID 0000.0001) GM_skewflx*K =  /* Background GM_SkewFlx Diffusivity [m^2/s] */
(PID.TID 0000.0001)                 8.000000000000000E+02
(PID.TID 0000.0001)     ;
(PID.TID 0000.0001) GM_advec*K =    /* Backg. GM-Advec(=Bolus) Diffusivity [m^2/s]*/
(PID.TID 0000.0001)                 0.000000000000000E+00
(PID.TID 0000.0001)     ;
(PID.TID 0000.0001) GM_Kmin_horiz = /* Minimum Horizontal Diffusivity [m^2/s] */
(PID.TID 0000.0001)                 5.000000000000000E+01
(PID.TID 0000.0001)     ;
(PID.TID 0000.0001) GM_Visbeck_alpha = /* Visbeck alpha coeff. [-] */
(PID.TID 0000.0001)                 0.000000000000000E+00
(PID.TID 0000.0001)     ;
(PID.TID 0000.0001) GM_Small_Number =  /* epsilon used in slope calc */
(PID.TID 0000.0001)                 9.999999999999999E-21
(PID.TID 0000.0001)     ;
(PID.TID 0000.0001) GM_slopeSqCutoff = /* Slope^2 cut-off value */
(PID.TID 0000.0001)                 1.000000000000000E+48
(PID.TID 0000.0001)     ;
(PID.TID 0000.0001) GM_taper_scheme =  /* Type of Tapering/Clipping scheme */
(PID.TID 0000.0001)               'gkw91                                   '
(PID.TID 0000.0001)     ;
(PID.TID 0000.0001) GM_maxSlope =  /* Maximum Slope (Tapering/Clipping) */
(PID.TID 0000.0001)                 1.000000000000000E-02
(PID.TID 0000.0001)     ;
(PID.TID 0000.0001) GM_facTrL2dz = /* Minimum Trans.Layer Thick. (factor of dz) */
(PID.TID 0000.0001)                 1.000000000000000E+00
(PID.TID 0000.0001)     ;
(PID.TID 0000.0001) GM_facTrL2ML = /* Max.Trans.Layer Thick. (factor of MxL Depth)*/
(PID.TID 0000.0001)                 5.000000000000000E+00
(PID.TID 0000.0001)     ;
(PID.TID 0000.0001) GM_maxTransLay = /* Maximum Transition Layer Thickness [m] */
(PID.TID 0000.0001)                 5.000000000000000E+02
(PID.TID 0000.0001)     ;
(PID.TID 0000.0001) GM_UseBVP = /* if TRUE => use bvp a la Ferrari et al. (2010) */
(PID.TID 0000.0001)                   F
(PID.TID 0000.0001)     ;
(PID.TID 0000.0001) GM_BVP_ModeNumber = /* Vertical mode number for BVP wave speed */
(PID.TID 0000.0001)                       1
(PID.TID 0000.0001)     ;
(PID.TID 0000.0001) GM_BVP_cMin = /* Minimum wave speed for BVP [m/s] */
(PID.TID 0000.0001)                 1.000000000000000E-01
(PID.TID 0000.0001)     ;
(PID.TID 0000.0001) GM_useSubMeso = /* if TRUE => use Sub-Meso param. (B.Fox-Kemper) */
(PID.TID 0000.0001)                   F
(PID.TID 0000.0001)     ;
(PID.TID 0000.0001) subMeso_Ceff = /* efficiency coeff. of Mixed-Layer Eddies [-] */
(PID.TID 0000.0001)                 7.000000000000001E-02
(PID.TID 0000.0001)     ;
(PID.TID 0000.0001) subMeso_invTau = /* inverse of Sub-Meso mixing time-scale [/s] */
(PID.TID 0000.0001)                 2.000000000000000E-06
(PID.TID 0000.0001)     ;
(PID.TID 0000.0001) subMeso_LfMin = /* minimum length-scale "Lf" [m] */
(PID.TID 0000.0001)                 1.000000000000000E+03
(PID.TID 0000.0001)     ;
(PID.TID 0000.0001) subMeso_Lmax = /* maximum grid-scale length [m] */
(PID.TID 0000.0001)                 1.100000000000000E+05
(PID.TID 0000.0001)     ;
(PID.TID 0000.0001) GAD_CHECK: #define ALLOW_GENERIC_ADVDIFF
(PID.TID 0000.0001) // =======================================================
(PID.TID 0000.0001) // Check Model config. (CONFIG_CHECK):
(PID.TID 0000.0001) // CONFIG_CHECK : Normal End
(PID.TID 0000.0001) // =======================================================
(PID.TID 0000.0001) 
(PID.TID 0000.0001)  MDS_READ_META: opening file: pickup.0000072000.meta
(PID.TID 0000.0001)  nRecords = 123 ; filePrec =  64 ; fileIter =     72000
(PID.TID 0000.0001)     nDims =   2 , dims:
(PID.TID 0000.0001)    1: 192   1 192
(PID.TID 0000.0001)    2:  32   1  32
(PID.TID 0000.0001)     nFlds =  11 , nFl3D =   8 , fields:
(PID.TID 0000.0001)  >Uvel    < >GuNm1   < >Vvel    < >GvNm1   < >Theta   < >GtNm1   < >Salt    < >GsNm1   < >EtaN    < >dEtaHdt < >EtaH    <
(PID.TID 0000.0001) missingVal=  1.00000000000000E+00 ; nTimRec =   0 , timeList:
(PID.TID 0000.0001) READ_MFLDS_3D_RL: read field: "Uvel    ", #   1 in fldList, rec=   1
(PID.TID 0000.0001)  MDS_READ_FIELD: opening global file: pickup.0000072000
(PID.TID 0000.0001) READ_MFLDS_3D_RL: read field: "Vvel    ", #   3 in fldList, rec=   3
(PID.TID 0000.0001)  MDS_READ_FIELD: opening global file: pickup.0000072000
(PID.TID 0000.0001) READ_MFLDS_3D_RL: read field: "Theta   ", #   5 in fldList, rec=   5
(PID.TID 0000.0001)  MDS_READ_FIELD: opening global file: pickup.0000072000
(PID.TID 0000.0001) READ_MFLDS_3D_RL: read field: "Salt    ", #   7 in fldList, rec=   7
(PID.TID 0000.0001)  MDS_READ_FIELD: opening global file: pickup.0000072000
(PID.TID 0000.0001) READ_MFLDS_3D_RL: read field: "GuNm1   ", #   2 in fldList, rec=   2
(PID.TID 0000.0001)  MDS_READ_FIELD: opening global file: pickup.0000072000
(PID.TID 0000.0001) READ_MFLDS_3D_RL: read field: "GvNm1   ", #   4 in fldList, rec=   4
(PID.TID 0000.0001)  MDS_READ_FIELD: opening global file: pickup.0000072000
(PID.TID 0000.0001) READ_MFLDS_3D_RL: read field: "GtNm1   ", #   6 in fldList, rec=   6
(PID.TID 0000.0001)  MDS_READ_FIELD: opening global file: pickup.0000072000
(PID.TID 0000.0001) READ_MFLDS_3D_RL: read field: "GsNm1   ", #   8 in fldList, rec=   8
(PID.TID 0000.0001)  MDS_READ_FIELD: opening global file: pickup.0000072000
(PID.TID 0000.0001) READ_MFLDS_3D_RL: read field: "EtaN    ", #   9 in fldList, rec= 121
(PID.TID 0000.0001)  MDS_READ_FIELD: opening global file: pickup.0000072000
(PID.TID 0000.0001) READ_MFLDS_3D_RL: read field: "dEtaHdt ", #  10 in fldList, rec= 122
(PID.TID 0000.0001)  MDS_READ_FIELD: opening global file: pickup.0000072000
(PID.TID 0000.0001) READ_MFLDS_3D_RL: read field: "EtaH    ", #  11 in fldList, rec= 123
(PID.TID 0000.0001)  MDS_READ_FIELD: opening global file: pickup.0000072000
(PID.TID 0000.0001) READ_MFLDS_CHECK: - normal end ; reset MFLDS file-name: pickup.0000072000
(PID.TID 0000.0001)  write diagnostics summary to file ioUnit:     36
Iter.Nb:     72000 ; Time(s):  6.4800000000000E+07
------------------------------------------------------------------------
2D/3D diagnostics: Number of lists:    10
------------------------------------------------------------------------
listId=    1 ; file name: oceTAUX
 nFlds, nActive,       freq     &     phase        , nLev               
    1  |    1  |     -3600.000000      1800.000000 |   1
 levels:   1
 diag# | name   |   ipt  |  iMate | kLev|   count |   mate.C|           
    81 |oceTAUX |      1 |      2 |   1 |       0 |       0 |
------------------------------------------------------------------------
listId=    2 ; file name: oceTAUY
 nFlds, nActive,       freq     &     phase        , nLev               
    1  |    1  |     -3600.000000      1800.000000 |   1
 levels:   1
 diag# | name   |   ipt  |  iMate | kLev|   count |   mate.C|           
    82 |oceTAUY |      2 |      1 |   1 |       0 |       0 |
------------------------------------------------------------------------
listId=    3 ; file name: oceFWflx
 nFlds, nActive,       freq     &     phase        , nLev               
    1  |    1  |     -3600.000000      1800.000000 |   1
 levels:   1
 diag# | name   |   ipt  |  iMate | kLev|   count |   mate.C|           
    85 |oceFWflx|      3 |      0 |   1 |       0 |
------------------------------------------------------------------------
listId=    4 ; file name: oceSflux
 nFlds, nActive,       freq     &     phase        , nLev               
    1  |    1  |     -3600.000000      1800.000000 |   1
 levels:   1
 diag# | name   |   ipt  |  iMate | kLev|   count |   mate.C|           
    86 |oceSflux|      4 |      0 |   1 |       0 |
------------------------------------------------------------------------
listId=    5 ; file name: oceQnet
 nFlds, nActive,       freq     &     phase        , nLev               
    1  |    1  |     -3600.000000      1800.000000 |   1
 levels:   1
 diag# | name   |   ipt  |  iMate | kLev|   count |   mate.C|           
    87 |oceQnet |      5 |      0 |   1 |       0 |
------------------------------------------------------------------------
listId=    6 ; file name: oceQsw
 nFlds, nActive,       freq     &     phase        , nLev               
    1  |    1  |     -3600.000000      1800.000000 |   1
 levels:   1
 diag# | name   |   ipt  |  iMate | kLev|   count |   mate.C|           
    88 |oceQsw  |      6 |      0 |   1 |       0 |
------------------------------------------------------------------------
listId=    7 ; file name: SSS
 nFlds, nActive,       freq     &     phase        , nLev               
    1  |    1  |     -3600.000000      1800.000000 |   1
 levels:   1
 diag# | name   |   ipt  |  iMate | kLev|   count |   mate.C|           
    27 |SALT    |      7 |      0 |  15 |       0 |
------------------------------------------------------------------------
listId=    8 ; file name: SST
 nFlds, nActive,       freq     &     phase        , nLev               
    1  |    1  |     -3600.000000      1800.000000 |   1
 levels:   1
 diag# | name   |   ipt  |  iMate | kLev|   count |   mate.C|           
    26 |THETA   |     22 |      0 |  15 |       0 |
------------------------------------------------------------------------
listId=    9 ; file name: UVEL1
 nFlds, nActive,       freq     &     phase        , nLev               
    1  |    1  |     -3600.000000      1800.000000 |   1
 levels:   1
 diag# | name   |   ipt  |  iMate | kLev|   count |   mate.C|           
    45 |UVELMASS|     37 |     52 |  15 |       0 |       0 |
------------------------------------------------------------------------
listId=   10 ; file name: VVEL1
 nFlds, nActive,       freq     &     phase        , nLev               
    1  |    1  |     -3600.000000      1800.000000 |   1
 levels:   1
 diag# | name   |   ipt  |  iMate | kLev|   count |   mate.C|           
    46 |VVELMASS|     52 |     37 |  15 |       0 |       0 |
------------------------------------------------------------------------
Global & Regional Statistics diagnostics: Number of lists:     0
------------------------------------------------------------------------
(PID.TID 0000.0001) // =======================================================
(PID.TID 0000.0001) // Model current state
(PID.TID 0000.0001) // =======================================================
(PID.TID 0000.0001) 
(PID.TID 0000.0001) // =======================================================
(PID.TID 0000.0001) // Begin MONITOR dynamic field statistics
(PID.TID 0000.0001) // =======================================================
(PID.TID 0000.0001) %MON time_tsnumber                =                 72000
(PID.TID 0000.0001) %MON time_secondsf                =   6.4800000000000E+07
(PID.TID 0000.0001) %MON dynstat_eta_max              =   9.2249308874653E-01
(PID.TID 0000.0001) %MON dynstat_eta_min              =  -1.6181619580030E+00
(PID.TID 0000.0001) %MON dynstat_eta_mean             =   1.4427566214562E-14
(PID.TID 0000.0001) %MON dynstat_eta_sd               =   5.9907976973986E-01
(PID.TID 0000.0001) %MON dynstat_eta_del2             =   7.8581345364806E-04
(PID.TID 0000.0001) %MON dynstat_uvel_max             =   1.8639442347386E-01
(PID.TID 0000.0001) %MON dynstat_uvel_min             =  -2.8803502100767E-01
(PID.TID 0000.0001) %MON dynstat_uvel_mean            =  -4.8914430325890E-04
(PID.TID 0000.0001) %MON dynstat_uvel_sd              =   1.2021379389426E-02
(PID.TID 0000.0001) %MON dynstat_uvel_del2            =   5.1214215649781E-05
(PID.TID 0000.0001) %MON dynstat_vvel_max             =   1.7346247050018E-01
(PID.TID 0000.0001) %MON dynstat_vvel_min             =  -2.2519444280963E-01
(PID.TID 0000.0001) %MON dynstat_vvel_mean            =  -4.0398186384005E-04
(PID.TID 0000.0001) %MON dynstat_vvel_sd              =   1.2638380334010E-02
(PID.TID 0000.0001) %MON dynstat_vvel_del2            =   5.0639130168720E-05
(PID.TID 0000.0001) %MON dynstat_wvel_max             =   1.0315548206230E-04
(PID.TID 0000.0001) %MON dynstat_wvel_min             =  -2.0412092606640E-04
(PID.TID 0000.0001) %MON dynstat_wvel_mean            =   1.3594270097552E-10
(PID.TID 0000.0001) %MON dynstat_wvel_sd              =   3.8382293649569E-06
(PID.TID 0000.0001) %MON dynstat_wvel_del2            =   2.6457320450043E-08
(PID.TID 0000.0001) %MON dynstat_theta_max            =   3.0925958904704E+01
(PID.TID 0000.0001) %MON dynstat_theta_min            =  -3.0175293673864E+00
(PID.TID 0000.0001) %MON dynstat_theta_mean           =   3.9091304559860E+00
(PID.TID 0000.0001) %MON dynstat_theta_sd             =   4.5711443147581E+00
(PID.TID 0000.0001) %MON dynstat_theta_del2           =   2.6590891135791E-03
(PID.TID 0000.0001) %MON dynstat_salt_max             =   4.1386265990462E+01
(PID.TID 0000.0001) %MON dynstat_salt_min             =   1.8383410676806E+01
(PID.TID 0000.0001) %MON dynstat_salt_mean            =   3.4772068623474E+01
(PID.TID 0000.0001) %MON dynstat_salt_sd              =   5.3145226117181E-01
(PID.TID 0000.0001) %MON dynstat_salt_del2            =   8.0693627005698E-04
(PID.TID 0000.0001) %MON dynstat_sst_max              =   3.0925958904704E+01
(PID.TID 0000.0001) %MON dynstat_sst_min              =  -1.9648692042086E+00
(PID.TID 0000.0001) %MON dynstat_sst_mean             =   1.8113137824165E+01
(PID.TID 0000.0001) %MON dynstat_sst_sd               =   9.7982972159706E+00
(PID.TID 0000.0001) %MON dynstat_sst_del2             =   1.5454157826167E-02
(PID.TID 0000.0001) %MON dynstat_sss_max              =   4.1386265990462E+01
(PID.TID 0000.0001) %MON dynstat_sss_min              =   1.8383410676806E+01
(PID.TID 0000.0001) %MON dynstat_sss_mean             =   3.4632078412677E+01
(PID.TID 0000.0001) %MON dynstat_sss_sd               =   1.4684189495322E+00
(PID.TID 0000.0001) %MON dynstat_sss_del2             =   8.0812048509615E-03
(PID.TID 0000.0001) %MON forcing_qnet_max             =   0.0000000000000E+00
(PID.TID 0000.0001) %MON forcing_qnet_min             =   0.0000000000000E+00
(PID.TID 0000.0001) %MON forcing_qnet_mean            =   0.0000000000000E+00
(PID.TID 0000.0001) %MON forcing_qnet_sd              =   0.0000000000000E+00
(PID.TID 0000.0001) %MON forcing_qnet_del2            =   0.0000000000000E+00
(PID.TID 0000.0001) %MON forcing_qsw_max              =   0.0000000000000E+00
(PID.TID 0000.0001) %MON forcing_qsw_min              =   0.0000000000000E+00
(PID.TID 0000.0001) %MON forcing_qsw_mean             =   0.0000000000000E+00
(PID.TID 0000.0001) %MON forcing_qsw_sd               =   0.0000000000000E+00
(PID.TID 0000.0001) %MON forcing_qsw_del2             =   0.0000000000000E+00
(PID.TID 0000.0001) %MON forcing_empmr_max            =   0.0000000000000E+00
(PID.TID 0000.0001) %MON forcing_empmr_min            =   0.0000000000000E+00
(PID.TID 0000.0001) %MON forcing_empmr_mean           =   0.0000000000000E+00
(PID.TID 0000.0001) %MON forcing_empmr_sd             =   0.0000000000000E+00
(PID.TID 0000.0001) %MON forcing_empmr_del2           =   0.0000000000000E+00
(PID.TID 0000.0001) %MON forcing_fu_max               =   0.0000000000000E+00
(PID.TID 0000.0001) %MON forcing_fu_min               =   0.0000000000000E+00
(PID.TID 0000.0001) %MON forcing_fu_mean              =   0.0000000000000E+00
(PID.TID 0000.0001) %MON forcing_fu_sd                =   0.0000000000000E+00
(PID.TID 0000.0001) %MON forcing_fu_del2              =   0.0000000000000E+00
(PID.TID 0000.0001) %MON forcing_fv_max               =   0.0000000000000E+00
(PID.TID 0000.0001) %MON forcing_fv_min               =   0.0000000000000E+00
(PID.TID 0000.0001) %MON forcing_fv_mean              =   0.0000000000000E+00
(PID.TID 0000.0001) %MON forcing_fv_sd                =   0.0000000000000E+00
(PID.TID 0000.0001) %MON forcing_fv_del2              =   0.0000000000000E+00
(PID.TID 0000.0001) %MON trAdv_CFL_u_max              =   0.0000000000000E+00
(PID.TID 0000.0001) %MON trAdv_CFL_v_max              =   0.0000000000000E+00
(PID.TID 0000.0001) %MON trAdv_CFL_w_max              =   0.0000000000000E+00
(PID.TID 0000.0001) %MON advcfl_uvel_max              =   8.5096037087284E-04
(PID.TID 0000.0001) %MON advcfl_vvel_max              =   7.8760257411030E-04
(PID.TID 0000.0001) %MON advcfl_wvel_max              =   6.9324088098023E-04
(PID.TID 0000.0001) %MON advcfl_W_hf_max              =   7.6573916672744E-04
(PID.TID 0000.0001) %MON pe_b_mean                    =   4.7811655460464E-04
(PID.TID 0000.0001) %MON ke_max                       =   4.0700637549387E-02
(PID.TID 0000.0001) %MON ke_mean                      =   1.4067882101803E-04
(PID.TID 0000.0001) %MON ke_vol                       =   1.3398024453628E+18
(PID.TID 0000.0001) %MON vort_r_min                   =  -1.1843904755479E-06
(PID.TID 0000.0001) %MON vort_r_max                   =   1.2148454936551E-06
(PID.TID 0000.0001) %MON vort_a_mean                  =  -2.0549865324846E-05
(PID.TID 0000.0001) %MON vort_a_sd                    =   7.5259517155846E-05
(PID.TID 0000.0001) %MON vort_p_mean                  =  -2.4783469227166E-05
(PID.TID 0000.0001) %MON vort_p_sd                    =   1.2812074522595E-04
(PID.TID 0000.0001) %MON surfExpan_theta_mean         =  -3.8378290301302E-07
(PID.TID 0000.0001) %MON surfExpan_salt_mean          =  -1.6258537219558E-07
(PID.TID 0000.0001) // =======================================================
(PID.TID 0000.0001) // End MONITOR dynamic field statistics
(PID.TID 0000.0001) // =======================================================
(PID.TID 0000.0001) SOLVE_FOR_PRESSURE: putPmEinXvector =    F
(PID.TID 0000.0001) SOLVE_FOR_PRESSURE: zeroPsNH=    F , zeroMeanPnh=    F
(PID.TID 0000.0001) SOLVE_FOR_PRESSURE: oldFreeSurfTerm =    F
 cg2d: Sum(rhs),rhsMax =  -4.15914295890569E+00  1.71157971399918E+02
(PID.TID 0000.0001)      cg2d_init_res =   1.82624809239031E+00
(PID.TID 0000.0001)      cg2d_iters(min,last) =      -1       9
(PID.TID 0000.0001)      cg2d_last_res =   5.39272550273783E-08
(PID.TID 0000.0001) // =======================================================
(PID.TID 0000.0001) // Begin MONITOR dynamic field statistics
(PID.TID 0000.0001) // =======================================================
(PID.TID 0000.0001) %MON time_tsnumber                =                 72001
(PID.TID 0000.0001) %MON time_secondsf                =   6.4800900000000E+07
(PID.TID 0000.0001) %MON dynstat_eta_max              =   8.2751990356260E+00
(PID.TID 0000.0001) %MON dynstat_eta_min              =  -1.7012100691278E+00
(PID.TID 0000.0001) %MON dynstat_eta_mean             =   8.2718405069402E-03
(PID.TID 0000.0001) %MON dynstat_eta_sd               =   6.4407396194915E-01
(PID.TID 0000.0001) %MON dynstat_eta_del2             =   7.8580723242065E-03
(PID.TID 0000.0001) %MON dynstat_uvel_max             =   3.2763406120368E-01
(PID.TID 0000.0001) %MON dynstat_uvel_min             =  -2.8705232110233E-01
(PID.TID 0000.0001) %MON dynstat_uvel_mean            =  -4.7447160933179E-04
(PID.TID 0000.0001) %MON dynstat_uvel_sd              =   1.2101806274958E-02
(PID.TID 0000.0001) %MON dynstat_uvel_del2            =   5.7504487474264E-05
(PID.TID 0000.0001) %MON dynstat_vvel_max             =   2.5891137632677E-01
(PID.TID 0000.0001) %MON dynstat_vvel_min             =  -2.6128450105039E-01
(PID.TID 0000.0001) %MON dynstat_vvel_mean            =  -3.9497131993286E-04
(PID.TID 0000.0001) %MON dynstat_vvel_sd              =   1.2716843184991E-02
(PID.TID 0000.0001) %MON dynstat_vvel_del2            =   6.3776259570060E-05
(PID.TID 0000.0001) %MON dynstat_wvel_max             =   1.2092768858020E-03
(PID.TID 0000.0001) %MON dynstat_wvel_min             =  -9.5244762402226E-03
(PID.TID 0000.0001) %MON dynstat_wvel_mean            =  -2.0446827041049E-07
(PID.TID 0000.0001) %MON dynstat_wvel_sd              =   3.1991889542405E-05
(PID.TID 0000.0001) %MON dynstat_wvel_del2            =   7.8900498788308E-07
(PID.TID 0000.0001) %MON dynstat_theta_max            =   3.0925747382659E+01
(PID.TID 0000.0001) %MON dynstat_theta_min            =  -3.0174062027799E+00
(PID.TID 0000.0001) %MON dynstat_theta_mean           =   3.9089311790601E+00
(PID.TID 0000.0001) %MON dynstat_theta_sd             =   4.5705885121374E+00
(PID.TID 0000.0001) %MON dynstat_theta_del2           =   2.6547612490830E-03
(PID.TID 0000.0001) %MON dynstat_salt_max             =   4.1379252577003E+01
(PID.TID 0000.0001) %MON dynstat_salt_min             =   1.8518388103661E+01
(PID.TID 0000.0001) %MON dynstat_salt_mean            =   3.4772205186440E+01
(PID.TID 0000.0001) %MON dynstat_salt_sd              =   5.3093627931424E-01
(PID.TID 0000.0001) %MON dynstat_salt_del2            =   8.0231290106588E-04
(PID.TID 0000.0001) %MON dynstat_sst_max              =   3.0925747382659E+01
(PID.TID 0000.0001) %MON dynstat_sst_min              =  -1.8999502158664E+00
(PID.TID 0000.0001) %MON dynstat_sst_mean             =   1.8098994903905E+01
(PID.TID 0000.0001) %MON dynstat_sst_sd               =   9.8003886799455E+00
(PID.TID 0000.0001) %MON dynstat_sst_del2             =   1.5358776721807E-02
(PID.TID 0000.0001) %MON dynstat_sss_max              =   4.1379252577003E+01
(PID.TID 0000.0001) %MON dynstat_sss_min              =   1.8738343205356E+01
(PID.TID 0000.0001) %MON dynstat_sss_mean             =   3.4642203249442E+01
(PID.TID 0000.0001) %MON dynstat_sss_sd               =   1.4555330012897E+00
(PID.TID 0000.0001) %MON dynstat_sss_del2             =   8.0103917888902E-03
(PID.TID 0000.0001) %MON forcing_qnet_max             =   3.7691018750000E+05
(PID.TID 0000.0001) %MON forcing_qnet_min             =  -8.4035984375000E+04
(PID.TID 0000.0001) %MON forcing_qnet_mean            =   3.4658907030828E+03
(PID.TID 0000.0001) %MON forcing_qnet_sd              =   1.3696982384013E+04
(PID.TID 0000.0001) %MON forcing_qnet_del2            =   3.4197695894784E+02
(PID.TID 0000.0001) %MON forcing_qsw_max              =   0.0000000000000E+00
(PID.TID 0000.0001) %MON forcing_qsw_min              =   0.0000000000000E+00
(PID.TID 0000.0001) %MON forcing_qsw_mean             =   0.0000000000000E+00
(PID.TID 0000.0001) %MON forcing_qsw_sd               =   0.0000000000000E+00
(PID.TID 0000.0001) %MON forcing_qsw_del2             =   0.0000000000000E+00
(PID.TID 0000.0001) %MON forcing_empmr_max            =   1.2516015768051E+00
(PID.TID 0000.0001) %MON forcing_empmr_min            =  -9.8578329086304E+00
(PID.TID 0000.0001) %MON forcing_empmr_mean           =  -9.5126165829650E-03
(PID.TID 0000.0001) %MON forcing_empmr_sd             =   2.8327979330373E-01
(PID.TID 0000.0001) %MON forcing_empmr_del2           =   9.3819937775883E-03
(PID.TID 0000.0001) %MON forcing_fu_max               =   5.0392189918545E-01
(PID.TID 0000.0001) %MON forcing_fu_min               =  -4.7699482610216E-01
(PID.TID 0000.0001) %MON forcing_fu_mean              =  -4.5940886084629E-03
(PID.TID 0000.0001) %MON forcing_fu_sd                =   7.1237103796122E-02
(PID.TID 0000.0001) %MON forcing_fu_del2              =   7.0950201633362E-04
(PID.TID 0000.0001) %MON forcing_fv_max               =   2.7800018649626E-01
(PID.TID 0000.0001) %MON forcing_fv_min               =  -5.2741249452058E-01
(PID.TID 0000.0001) %MON forcing_fv_mean              =  -1.4957455252377E-02
(PID.TID 0000.0001) %MON forcing_fv_sd                =   6.8080956361585E-02
(PID.TID 0000.0001) %MON forcing_fv_del2              =   5.9914313510675E-04
(PID.TID 0000.0001) %MON trAdv_CFL_u_max              =   1.1280666318195E-03
(PID.TID 0000.0001) %MON trAdv_CFL_v_max              =   1.5079006323307E-03
(PID.TID 0000.0001) %MON trAdv_CFL_w_max              =   1.0966523546169E-01
(PID.TID 0000.0001) %MON advcfl_uvel_max              =   1.1495862275626E-03
(PID.TID 0000.0001) %MON advcfl_vvel_max              =   8.4492226412035E-04
(PID.TID 0000.0001) %MON advcfl_wvel_max              =   3.4288114464801E-01
(PID.TID 0000.0001) %MON advcfl_W_hf_max              =   1.1442791522368E-01
(PID.TID 0000.0001) %MON pe_b_mean                    =   5.5272306132704E-04
(PID.TID 0000.0001) %MON ke_max                       =   5.0286353095193E-02
(PID.TID 0000.0001) %MON ke_mean                      =   1.4248291365440E-04
(PID.TID 0000.0001) %MON ke_vol                       =   1.3398024453628E+18
(PID.TID 0000.0001) %MON vort_r_min                   =  -1.1879226313394E-06
(PID.TID 0000.0001) %MON vort_r_max                   =   1.2254811260129E-06
(PID.TID 0000.0001) %MON vort_a_mean                  =  -2.0549865324846E-05
(PID.TID 0000.0001) %MON vort_a_sd                    =   7.5259518466826E-05
(PID.TID 0000.0001) %MON vort_p_mean                  =  -2.4783469220072E-05
(PID.TID 0000.0001) %MON vort_p_sd                    =   1.2812073739668E-04
(PID.TID 0000.0001) %MON surfExpan_theta_mean         =  -3.8460236815702E-07
(PID.TID 0000.0001) %MON surfExpan_salt_mean          =   9.7781191636968E-07
(PID.TID 0000.0001) // =======================================================
(PID.TID 0000.0001) // End MONITOR dynamic field statistics
(PID.TID 0000.0001) // =======================================================
 cg2d: Sum(rhs),rhsMax =  -4.50305056906124E+00  1.77240683104794E+02
(PID.TID 0000.0001)      cg2d_init_res =   1.50012575371141E-01
(PID.TID 0000.0001)      cg2d_iters(min,last) =      -1       9
(PID.TID 0000.0001)      cg2d_last_res =   4.09776179326738E-08
(PID.TID 0000.0001) // =======================================================
(PID.TID 0000.0001) // Begin MONITOR dynamic field statistics
(PID.TID 0000.0001) // =======================================================
(PID.TID 0000.0001) %MON time_tsnumber                =                 72002
(PID.TID 0000.0001) %MON time_secondsf                =   6.4801800000000E+07
(PID.TID 0000.0001) %MON dynstat_eta_max              =   8.2924737031951E+00
(PID.TID 0000.0001) %MON dynstat_eta_min              =  -1.6609316711969E+00
(PID.TID 0000.0001) %MON dynstat_eta_mean             =   9.2740922707943E-03
(PID.TID 0000.0001) %MON dynstat_eta_sd               =   6.4466253925555E-01
(PID.TID 0000.0001) %MON dynstat_eta_del2             =   7.7921290778890E-03
(PID.TID 0000.0001) %MON dynstat_uvel_max             =   5.7086781391901E-01
(PID.TID 0000.0001) %MON dynstat_uvel_min             =  -3.7404205246117E-01
(PID.TID 0000.0001) %MON dynstat_uvel_mean            =  -4.5405848724249E-04
(PID.TID 0000.0001) %MON dynstat_uvel_sd              =   1.2336712222084E-02
(PID.TID 0000.0001) %MON dynstat_uvel_del2            =   7.2185118750302E-05
(PID.TID 0000.0001) %MON dynstat_vvel_max             =   4.9571642492871E-01
(PID.TID 0000.0001) %MON dynstat_vvel_min             =  -4.9639363038519E-01
(PID.TID 0000.0001) %MON dynstat_vvel_mean            =  -3.8629702514595E-04
(PID.TID 0000.0001) %MON dynstat_vvel_sd              =   1.2949915436017E-02
(PID.TID 0000.0001) %MON dynstat_vvel_del2            =   9.1279361544064E-05
(PID.TID 0000.0001) %MON dynstat_wvel_max             =   1.0350104035244E-04
(PID.TID 0000.0001) %MON dynstat_wvel_min             =  -9.6356765083645E-04
(PID.TID 0000.0001) %MON dynstat_wvel_mean            =  -1.7877128824964E-07
(PID.TID 0000.0001) %MON dynstat_wvel_sd              =   8.6783568544268E-06
(PID.TID 0000.0001) %MON dynstat_wvel_del2            =   1.0394386007313E-07
(PID.TID 0000.0001) %MON dynstat_theta_max            =   3.0925531634201E+01
(PID.TID 0000.0001) %MON dynstat_theta_min            =  -3.0169870926979E+00
(PID.TID 0000.0001) %MON dynstat_theta_mean           =   3.9089377323980E+00
(PID.TID 0000.0001) %MON dynstat_theta_sd             =   4.5706024541218E+00
(PID.TID 0000.0001) %MON dynstat_theta_del2           =   2.6548747141541E-03
(PID.TID 0000.0001) %MON dynstat_salt_max             =   4.1377063719965E+01
(PID.TID 0000.0001) %MON dynstat_salt_min             =   1.8518393949489E+01
(PID.TID 0000.0001) %MON dynstat_salt_mean            =   3.4772195154507E+01
(PID.TID 0000.0001) %MON dynstat_salt_sd              =   5.3093609680177E-01
(PID.TID 0000.0001) %MON dynstat_salt_del2            =   8.0282860327723E-04
(PID.TID 0000.0001) %MON dynstat_sst_max              =   3.0925531634201E+01
(PID.TID 0000.0001) %MON dynstat_sst_min              =  -1.8999075183919E+00
(PID.TID 0000.0001) %MON dynstat_sst_mean             =   1.8099438933886E+01
(PID.TID 0000.0001) %MON dynstat_sst_sd               =   9.8002869865168E+00
(PID.TID 0000.0001) %MON dynstat_sst_del2             =   1.5341533652882E-02
(PID.TID 0000.0001) %MON dynstat_sss_max              =   4.1377063719965E+01
(PID.TID 0000.0001) %MON dynstat_sss_min              =   1.8752704687268E+01
(PID.TID 0000.0001) %MON dynstat_sss_mean             =   3.4641788505356E+01
(PID.TID 0000.0001) %MON dynstat_sss_sd               =   1.4568492646957E+00
(PID.TID 0000.0001) %MON dynstat_sss_del2             =   8.0147959361805E-03
(PID.TID 0000.0001) %MON forcing_qnet_max             =   1.4396238281250E+04
(PID.TID 0000.0001) %MON forcing_qnet_min             =  -2.5628341796875E+04
(PID.TID 0000.0001) %MON forcing_qnet_mean            =  -1.6847773015364E+02
(PID.TID 0000.0001) %MON forcing_qnet_sd              =   1.6463951141622E+03
(PID.TID 0000.0001) %MON forcing_qnet_del2            =   4.6216474442377E+01
(PID.TID 0000.0001) %MON forcing_qsw_max              =   0.0000000000000E+00
(PID.TID 0000.0001) %MON forcing_qsw_min              =   0.0000000000000E+00
(PID.TID 0000.0001) %MON forcing_qsw_mean             =   0.0000000000000E+00
(PID.TID 0000.0001) %MON forcing_qsw_sd               =   0.0000000000000E+00
(PID.TID 0000.0001) %MON forcing_qsw_del2             =   0.0000000000000E+00
(PID.TID 0000.0001) %MON forcing_empmr_max            =   7.8170306980610E-02
(PID.TID 0000.0001) %MON forcing_empmr_min            =  -9.9729251861572E-01
(PID.TID 0000.0001) %MON forcing_empmr_mean           =  -1.1525895284320E-03
(PID.TID 0000.0001) %MON forcing_empmr_sd             =   2.3034011358923E-02
(PID.TID 0000.0001) %MON forcing_empmr_del2           =   8.6730589035779E-04
(PID.TID 0000.0001) %MON forcing_fu_max               =   5.2671446920047E-01
(PID.TID 0000.0001) %MON forcing_fu_min               =  -4.7087130052072E-01
(PID.TID 0000.0001) %MON forcing_fu_mean              =  -4.8017413025156E-03
(PID.TID 0000.0001) %MON forcing_fu_sd                =   7.3145747184657E-02
(PID.TID 0000.0001) %MON forcing_fu_del2              =   7.3379674062036E-04
(PID.TID 0000.0001) %MON forcing_fv_max               =   3.1840054946215E-01
(PID.TID 0000.0001) %MON forcing_fv_min               =  -5.1713703126521E-01
(PID.TID 0000.0001) %MON forcing_fv_mean              =  -1.4676332140107E-02
(PID.TID 0000.0001) %MON forcing_fv_sd                =   7.0627083885620E-02
(PID.TID 0000.0001) %MON forcing_fv_del2              =   6.1674336072943E-04
(PID.TID 0000.0001) %MON trAdv_CFL_u_max              =   1.8246425488416E-03
(PID.TID 0000.0001) %MON trAdv_CFL_v_max              =   2.8636540300509E-03
(PID.TID 0000.0001) %MON trAdv_CFL_w_max              =   1.5827203602916E-02
(PID.TID 0000.0001) %MON advcfl_uvel_max              =   1.9313387734084E-03
(PID.TID 0000.0001) %MON advcfl_vvel_max              =   1.6177035171440E-03
(PID.TID 0000.0001) %MON advcfl_wvel_max              =   3.4688435430112E-02
(PID.TID 0000.0001) %MON advcfl_W_hf_max              =   1.5827203602916E-02
(PID.TID 0000.0001) %MON pe_b_mean                    =   5.5375573453435E-04
(PID.TID 0000.0001) %MON ke_max                       =   1.5978060861767E-01
(PID.TID 0000.0001) %MON ke_mean                      =   1.4788291692892E-04
(PID.TID 0000.0001) %MON ke_vol                       =   1.3398054553758E+18
(PID.TID 0000.0001) %MON vort_r_min                   =  -1.6384318976164E-06
(PID.TID 0000.0001) %MON vort_r_max                   =   1.7114606022138E-06
(PID.TID 0000.0001) %MON vort_a_mean                  =  -2.0549865324846E-05
(PID.TID 0000.0001) %MON vort_a_sd                    =   7.5259520783359E-05
(PID.TID 0000.0001) %MON vort_p_mean                  =  -2.4783431322081E-05
(PID.TID 0000.0001) %MON vort_p_sd                    =   1.2811974248822E-04
(PID.TID 0000.0001) %MON surfExpan_theta_mean         =  -6.1824901009318E-06
(PID.TID 0000.0001) %MON surfExpan_salt_mean          =   6.5975839525300E-07
(PID.TID 0000.0001) // =======================================================
(PID.TID 0000.0001) // End MONITOR dynamic field statistics
(PID.TID 0000.0001) // =======================================================
 cg2d: Sum(rhs),rhsMax =  -4.96484028346427E+00  1.70737441241979E+02
(PID.TID 0000.0001)      cg2d_init_res =   1.96543031464124E-01
(PID.TID 0000.0001)      cg2d_iters(min,last) =      -1       9
(PID.TID 0000.0001)      cg2d_last_res =   4.60313223717571E-08
(PID.TID 0000.0001) // =======================================================
(PID.TID 0000.0001) // Begin MONITOR dynamic field statistics
(PID.TID 0000.0001) // =======================================================
(PID.TID 0000.0001) %MON time_tsnumber                =                 72003
(PID.TID 0000.0001) %MON time_secondsf                =   6.4802700000000E+07
(PID.TID 0000.0001) %MON dynstat_eta_max              =   7.9895427827939E+00
(PID.TID 0000.0001) %MON dynstat_eta_min              =  -1.6194174246536E+00
(PID.TID 0000.0001) %MON dynstat_eta_mean             =   9.8499771680803E-03
(PID.TID 0000.0001) %MON dynstat_eta_sd               =   6.4014918908822E-01
(PID.TID 0000.0001) %MON dynstat_eta_del2             =   7.1354236473374E-03
(PID.TID 0000.0001) %MON dynstat_uvel_max             =   8.2367986676755E-01
(PID.TID 0000.0001) %MON dynstat_uvel_min             =  -4.7295938253563E-01
(PID.TID 0000.0001) %MON dynstat_uvel_mean            =  -4.2928893971579E-04
(PID.TID 0000.0001) %MON dynstat_uvel_sd              =   1.2635936936633E-02
(PID.TID 0000.0001) %MON dynstat_uvel_del2            =   8.8532757755519E-05
(PID.TID 0000.0001) %MON dynstat_vvel_max             =   7.0979121921215E-01
(PID.TID 0000.0001) %MON dynstat_vvel_min             =  -7.1857249347174E-01
(PID.TID 0000.0001) %MON dynstat_vvel_mean            =  -3.7872216508746E-04
(PID.TID 0000.0001) %MON dynstat_vvel_sd              =   1.3234273056967E-02
(PID.TID 0000.0001) %MON dynstat_vvel_del2            =   1.1881950591342E-04
(PID.TID 0000.0001) %MON dynstat_wvel_max             =   1.0367127640052E-04
(PID.TID 0000.0001) %MON dynstat_wvel_min             =  -8.2196882004263E-04
(PID.TID 0000.0001) %MON dynstat_wvel_mean            =  -2.3224690646981E-07
(PID.TID 0000.0001) %MON dynstat_wvel_sd              =   9.6190526606535E-06
(PID.TID 0000.0001) %MON dynstat_wvel_del2            =   9.2920486694767E-08
(PID.TID 0000.0001) %MON dynstat_theta_max            =   3.0925310175889E+01
(PID.TID 0000.0001) %MON dynstat_theta_min            =  -3.0163138772509E+00
(PID.TID 0000.0001) %MON dynstat_theta_mean           =   3.9089512888882E+00
(PID.TID 0000.0001) %MON dynstat_theta_sd             =   4.5706398833406E+00
(PID.TID 0000.0001) %MON dynstat_theta_del2           =   2.6544215750919E-03
(PID.TID 0000.0001) %MON dynstat_salt_max             =   4.1376508805581E+01
(PID.TID 0000.0001) %MON dynstat_salt_min             =   1.8518404077819E+01
(PID.TID 0000.0001) %MON dynstat_salt_mean            =   3.4772187305138E+01
(PID.TID 0000.0001) %MON dynstat_salt_sd              =   5.3094588406896E-01
(PID.TID 0000.0001) %MON dynstat_salt_del2            =   8.0397146513245E-04
(PID.TID 0000.0001) %MON dynstat_sst_max              =   3.0925310175889E+01
(PID.TID 0000.0001) %MON dynstat_sst_min              =  -1.8998660997098E+00
(PID.TID 0000.0001) %MON dynstat_sst_mean             =   1.8100231015574E+01
(PID.TID 0000.0001) %MON dynstat_sst_sd               =   9.8002372926757E+00
(PID.TID 0000.0001) %MON dynstat_sst_del2             =   1.5323979745309E-02
(PID.TID 0000.0001) %MON dynstat_sss_max              =   4.1376508805581E+01
(PID.TID 0000.0001) %MON dynstat_sss_min              =   1.8753325386153E+01
(PID.TID 0000.0001) %MON dynstat_sss_mean             =   3.4641230334819E+01
(PID.TID 0000.0001) %MON dynstat_sss_sd               =   1.4573221588418E+00
(PID.TID 0000.0001) %MON dynstat_sss_del2             =   8.0316969987662E-03
(PID.TID 0000.0001) %MON forcing_qnet_max             =   5.1518285156250E+04
(PID.TID 0000.0001) %MON forcing_qnet_min             =  -1.6905949218750E+04
(PID.TID 0000.0001) %MON forcing_qnet_mean            =  -1.8023434784102E+02
(PID.TID 0000.0001) %MON forcing_qnet_sd              =   1.4481426296171E+03
(PID.TID 0000.0001) %MON forcing_qnet_del2            =   4.8093814849578E+01
(PID.TID 0000.0001) %MON forcing_qsw_max              =   0.0000000000000E+00
(PID.TID 0000.0001) %MON forcing_qsw_min              =   0.0000000000000E+00
(PID.TID 0000.0001) %MON forcing_qsw_mean             =   0.0000000000000E+00
(PID.TID 0000.0001) %MON forcing_qsw_sd               =   0.0000000000000E+00
(PID.TID 0000.0001) %MON forcing_qsw_del2             =   0.0000000000000E+00
(PID.TID 0000.0001) %MON forcing_empmr_max            =   7.5694836676121E-02
(PID.TID 0000.0001) %MON forcing_empmr_min            =  -7.3506444692612E-01
(PID.TID 0000.0001) %MON forcing_empmr_mean           =  -6.6226763187894E-04
(PID.TID 0000.0001) %MON forcing_empmr_sd             =   1.3693293524094E-02
(PID.TID 0000.0001) %MON forcing_empmr_del2           =   5.3425015826486E-04
(PID.TID 0000.0001) %MON forcing_fu_max               =   5.5437446026216E-01
(PID.TID 0000.0001) %MON forcing_fu_min               =  -4.9051912496512E-01
(PID.TID 0000.0001) %MON forcing_fu_mean              =  -4.6598503704197E-03
(PID.TID 0000.0001) %MON forcing_fu_sd                =   7.4384820052611E-02
(PID.TID 0000.0001) %MON forcing_fu_del2              =   7.4734822799202E-04
(PID.TID 0000.0001) %MON forcing_fv_max               =   3.3975148042540E-01
(PID.TID 0000.0001) %MON forcing_fv_min               =  -5.0081112334802E-01
(PID.TID 0000.0001) %MON forcing_fv_mean              =  -1.4328839026342E-02
(PID.TID 0000.0001) %MON forcing_fv_sd                =   7.2033237246382E-02
(PID.TID 0000.0001) %MON forcing_fv_del2              =   6.3402298268288E-04
(PID.TID 0000.0001) %MON trAdv_CFL_u_max              =   2.5746246547595E-03
(PID.TID 0000.0001) %MON trAdv_CFL_v_max              =   4.0588139886034E-03
(PID.TID 0000.0001) %MON trAdv_CFL_w_max              =   1.1423483465240E-02
(PID.TID 0000.0001) %MON advcfl_uvel_max              =   2.7467801359466E-03
(PID.TID 0000.0001) %MON advcfl_vvel_max              =   2.3163076590059E-03
(PID.TID 0000.0001) %MON advcfl_wvel_max              =   2.5567459023517E-02
(PID.TID 0000.0001) %MON advcfl_W_hf_max              =   1.1423483465240E-02
(PID.TID 0000.0001) %MON pe_b_mean                    =   5.4604519475807E-04
(PID.TID 0000.0001) %MON ke_max                       =   3.2608378343544E-01
(PID.TID 0000.0001) %MON ke_mean                      =   1.5475677419612E-04
(PID.TID 0000.0001) %MON ke_vol                       =   1.3398058200819E+18
(PID.TID 0000.0001) %MON vort_r_min                   =  -2.4213877161483E-06
(PID.TID 0000.0001) %MON vort_r_max                   =   2.4410028687329E-06
(PID.TID 0000.0001) %MON vort_a_mean                  =  -2.0549865324846E-05
(PID.TID 0000.0001) %MON vort_a_sd                    =   7.5259523312694E-05
(PID.TID 0000.0001) %MON vort_p_mean                  =  -2.4783424916727E-05
(PID.TID 0000.0001) %MON vort_p_sd                    =   1.2811962576744E-04
(PID.TID 0000.0001) %MON surfExpan_theta_mean         =  -6.7876694622475E-06
(PID.TID 0000.0001) %MON surfExpan_salt_mean          =   7.1914189622696E-07
(PID.TID 0000.0001) // =======================================================
(PID.TID 0000.0001) // End MONITOR dynamic field statistics
(PID.TID 0000.0001) // =======================================================
 Computing Diagnostic #     81  oceTAUX      Counter:       1   Parms: UU      U1      
           Vector  Mate for  oceTAUX      Diagnostic #     82  oceTAUY  exists 
 Computing Diagnostic #     82  oceTAUY      Counter:       1   Parms: VV      U1      
           Vector  Mate for  oceTAUY      Diagnostic #     81  oceTAUX  exists 
 Computing Diagnostic #     85  oceFWflx     Counter:       1   Parms: SM      U1      
 Computing Diagnostic #     86  oceSflux     Counter:       1   Parms: SM      U1      
 Computing Diagnostic #     87  oceQnet      Counter:       1   Parms: SM      U1      
 Computing Diagnostic #     88  oceQsw       Counter:       1   Parms: SM      U1      
 Computing Diagnostic #     27  SALT         Counter:       1   Parms: SMR     MR      
 Computing Diagnostic #     26  THETA        Counter:       1   Parms: SMR     MR      
 Computing Diagnostic #     45  UVELMASS     Counter:       1   Parms: UUr     MR      
           Vector  Mate for  UVELMASS     Diagnostic #     46  VVELMASS exists 
 Computing Diagnostic #     46  VVELMASS     Counter:       1   Parms: VVr     MR      
           Vector  Mate for  VVELMASS     Diagnostic #     45  UVELMASS exists 
 cg2d: Sum(rhs),rhsMax =  -5.53246305745273E+00  1.61502119592028E+02
(PID.TID 0000.0001)      cg2d_init_res =   2.22912662158453E-01
(PID.TID 0000.0001)      cg2d_iters(min,last) =      -1       9
(PID.TID 0000.0001)      cg2d_last_res =   4.87734263369825E-08
(PID.TID 0000.0001) // =======================================================
(PID.TID 0000.0001) // Begin MONITOR dynamic field statistics
(PID.TID 0000.0001) // =======================================================
(PID.TID 0000.0001) %MON time_tsnumber                =                 72004
(PID.TID 0000.0001) %MON time_secondsf                =   6.4803600000000E+07
(PID.TID 0000.0001) %MON dynstat_eta_max              =   7.5597029956879E+00
(PID.TID 0000.0001) %MON dynstat_eta_min              =  -1.6203953100472E+00
(PID.TID 0000.0001) %MON dynstat_eta_mean             =   1.0382403957689E-02
(PID.TID 0000.0001) %MON dynstat_eta_sd               =   6.3530162946113E-01
(PID.TID 0000.0001) %MON dynstat_eta_del2             =   6.3696742551492E-03
(PID.TID 0000.0001) %MON dynstat_uvel_max             =   1.0566236082860E+00
(PID.TID 0000.0001) %MON dynstat_uvel_min             =  -5.6475181885512E-01
(PID.TID 0000.0001) %MON dynstat_uvel_mean            =  -4.0087564884629E-04
(PID.TID 0000.0001) %MON dynstat_uvel_sd              =   1.2936755403832E-02
(PID.TID 0000.0001) %MON dynstat_uvel_del2            =   1.0351290074328E-04
(PID.TID 0000.0001) %MON dynstat_vvel_max             =   8.9571823878690E-01
(PID.TID 0000.0001) %MON dynstat_vvel_min             =  -9.2257249085285E-01
(PID.TID 0000.0001) %MON dynstat_vvel_mean            =  -3.7323654672339E-04
(PID.TID 0000.0001) %MON dynstat_vvel_sd              =   1.3510335832162E-02
(PID.TID 0000.0001) %MON dynstat_vvel_del2            =   1.4231924084950E-04
(PID.TID 0000.0001) %MON dynstat_wvel_max             =   1.0386310958945E-04
(PID.TID 0000.0001) %MON dynstat_wvel_min             =  -8.6329116523120E-04
(PID.TID 0000.0001) %MON dynstat_wvel_mean            =  -2.9325828557453E-07
(PID.TID 0000.0001) %MON dynstat_wvel_sd              =   1.0316278386932E-05
(PID.TID 0000.0001) %MON dynstat_wvel_del2            =   9.3979227761856E-08
(PID.TID 0000.0001) %MON dynstat_theta_max            =   3.0925084084966E+01
(PID.TID 0000.0001) %MON dynstat_theta_min            =  -3.0154699324780E+00
(PID.TID 0000.0001) %MON dynstat_theta_mean           =   3.9089622946579E+00
(PID.TID 0000.0001) %MON dynstat_theta_sd             =   4.5706713655033E+00
(PID.TID 0000.0001) %MON dynstat_theta_del2           =   2.6537803995719E-03
(PID.TID 0000.0001) %MON dynstat_salt_max             =   4.1375918233963E+01
(PID.TID 0000.0001) %MON dynstat_salt_min             =   1.8518413784639E+01
(PID.TID 0000.0001) %MON dynstat_salt_mean            =   3.4772179837306E+01
(PID.TID 0000.0001) %MON dynstat_salt_sd              =   5.3095828477334E-01
(PID.TID 0000.0001) %MON dynstat_salt_del2            =   8.0555977647642E-04
(PID.TID 0000.0001) %MON dynstat_sst_max              =   3.0925084084966E+01
(PID.TID 0000.0001) %MON dynstat_sst_min              =  -1.8998248493422E+00
(PID.TID 0000.0001) %MON dynstat_sst_mean             =   1.8100847486977E+01
(PID.TID 0000.0001) %MON dynstat_sst_sd               =   9.8002476269903E+00
(PID.TID 0000.0001) %MON dynstat_sst_del2             =   1.5307150928137E-02
(PID.TID 0000.0001) %MON dynstat_sss_max              =   4.1375918233963E+01
(PID.TID 0000.0001) %MON dynstat_sss_min              =   1.8752722977221E+01
(PID.TID 0000.0001) %MON dynstat_sss_mean             =   3.4640697744445E+01
(PID.TID 0000.0001) %MON dynstat_sss_sd               =   1.4576512135321E+00
(PID.TID 0000.0001) %MON dynstat_sss_del2             =   8.0564890546760E-03
(PID.TID 0000.0001) %MON forcing_qnet_max             =   4.9344394531250E+04
(PID.TID 0000.0001) %MON forcing_qnet_min             =  -9.6732070312500E+03
(PID.TID 0000.0001) %MON forcing_qnet_mean            =  -1.3369511506972E+02
(PID.TID 0000.0001) %MON forcing_qnet_sd              =   1.1721054574745E+03
(PID.TID 0000.0001) %MON forcing_qnet_del2            =   4.5703400387252E+01
(PID.TID 0000.0001) %MON forcing_qsw_max              =   0.0000000000000E+00
(PID.TID 0000.0001) %MON forcing_qsw_min              =   0.0000000000000E+00
(PID.TID 0000.0001) %MON forcing_qsw_mean             =   0.0000000000000E+00
(PID.TID 0000.0001) %MON forcing_qsw_sd               =   0.0000000000000E+00
(PID.TID 0000.0001) %MON forcing_qsw_del2             =   0.0000000000000E+00
(PID.TID 0000.0001) %MON forcing_empmr_max            =   7.7714525163174E-02
(PID.TID 0000.0001) %MON forcing_empmr_min            =  -5.9912461042404E-01
(PID.TID 0000.0001) %MON forcing_empmr_mean           =  -6.1229080805043E-04
(PID.TID 0000.0001) %MON forcing_empmr_sd             =   1.1933395403920E-02
(PID.TID 0000.0001) %MON forcing_empmr_del2           =   4.6851894194893E-04
(PID.TID 0000.0001) %MON forcing_fu_max               =   5.6987772000101E-01
(PID.TID 0000.0001) %MON forcing_fu_min               =  -4.8732062499144E-01
(PID.TID 0000.0001) %MON forcing_fu_mean              =  -4.4598710305341E-03
(PID.TID 0000.0001) %MON forcing_fu_sd                =   7.4599928315988E-02
(PID.TID 0000.0001) %MON forcing_fu_del2              =   7.5259239306124E-04
(PID.TID 0000.0001) %MON forcing_fv_max               =   3.5994408208162E-01
(PID.TID 0000.0001) %MON forcing_fv_min               =  -4.6829190908478E-01
(PID.TID 0000.0001) %MON forcing_fv_mean              =  -1.4090173747006E-02
(PID.TID 0000.0001) %MON forcing_fv_sd                =   7.2503821840557E-02
(PID.TID 0000.0001) %MON forcing_fv_del2              =   6.4145539462616E-04
(PID.TID 0000.0001) %MON trAdv_CFL_u_max              =   3.3155819385490E-03
(PID.TID 0000.0001) %MON trAdv_CFL_v_max              =   5.0123478941094E-03
(PID.TID 0000.0001) %MON trAdv_CFL_w_max              =   9.0853960645345E-03
(PID.TID 0000.0001) %MON advcfl_uvel_max              =   3.5235931525216E-03
(PID.TID 0000.0001) %MON advcfl_vvel_max              =   2.9230553445228E-03
(PID.TID 0000.0001) %MON advcfl_wvel_max              =   2.0839116884314E-02
(PID.TID 0000.0001) %MON advcfl_W_hf_max              =   9.0853960645345E-03
(PID.TID 0000.0001) %MON pe_b_mean                    =   5.3782281800288E-04
(PID.TID 0000.0001) %MON ke_max                       =   5.4126901507145E-01
(PID.TID 0000.0001) %MON ke_mean                      =   1.6170327813654E-04
(PID.TID 0000.0001) %MON ke_vol                       =   1.3398060296388E+18
(PID.TID 0000.0001) %MON vort_r_min                   =  -3.1015132057289E-06
(PID.TID 0000.0001) %MON vort_r_max                   =   3.0598910387173E-06
(PID.TID 0000.0001) %MON vort_a_mean                  =  -2.0549865324846E-05
(PID.TID 0000.0001) %MON vort_a_sd                    =   7.5259525522887E-05
(PID.TID 0000.0001) %MON vort_p_mean                  =  -2.4783420172537E-05
(PID.TID 0000.0001) %MON vort_p_sd                    =   1.2811956550457E-04
(PID.TID 0000.0001) %MON surfExpan_theta_mean         =  -7.1960260023155E-06
(PID.TID 0000.0001) %MON surfExpan_salt_mean          =   8.2677040577924E-07
(PID.TID 0000.0001) // =======================================================
(PID.TID 0000.0001) // End MONITOR dynamic field statistics
(PID.TID 0000.0001) // =======================================================
 cg2d: Sum(rhs),rhsMax =  -6.22957983132085E+00  1.50489568649196E+02
(PID.TID 0000.0001)      cg2d_init_res =   2.42946822208636E-01
(PID.TID 0000.0001)      cg2d_iters(min,last) =      -1       9
(PID.TID 0000.0001)      cg2d_last_res =   5.63169323524809E-08
(PID.TID 0000.0001) // =======================================================
(PID.TID 0000.0001) // Begin MONITOR dynamic field statistics
(PID.TID 0000.0001) // =======================================================
(PID.TID 0000.0001) %MON time_tsnumber                =                 72005
(PID.TID 0000.0001) %MON time_secondsf                =   6.4804500000000E+07
(PID.TID 0000.0001) %MON dynstat_eta_max              =   7.0469896045741E+00
(PID.TID 0000.0001) %MON dynstat_eta_min              =  -1.6213474333216E+00
(PID.TID 0000.0001) %MON dynstat_eta_mean             =   1.0893472119877E-02
(PID.TID 0000.0001) %MON dynstat_eta_sd               =   6.3070827976602E-01
(PID.TID 0000.0001) %MON dynstat_eta_del2             =   5.5666440004358E-03
(PID.TID 0000.0001) %MON dynstat_uvel_max             =   1.2661549631002E+00
(PID.TID 0000.0001) %MON dynstat_uvel_min             =  -6.4857226215037E-01
(PID.TID 0000.0001) %MON dynstat_uvel_mean            =  -3.7002350131609E-04
(PID.TID 0000.0001) %MON dynstat_uvel_sd              =   1.3205096468284E-02
(PID.TID 0000.0001) %MON dynstat_uvel_del2            =   1.1601575899059E-04
(PID.TID 0000.0001) %MON dynstat_vvel_max             =   1.0526991934816E+00
(PID.TID 0000.0001) %MON dynstat_vvel_min             =  -1.1050365607161E+00
(PID.TID 0000.0001) %MON dynstat_vvel_mean            =  -3.7051831086766E-04
(PID.TID 0000.0001) %MON dynstat_vvel_sd              =   1.3751532018361E-02
(PID.TID 0000.0001) %MON dynstat_vvel_del2            =   1.6083605628279E-04
(PID.TID 0000.0001) %MON dynstat_wvel_max             =   1.0407630084274E-04
(PID.TID 0000.0001) %MON dynstat_wvel_min             =  -8.1067747747441E-04
(PID.TID 0000.0001) %MON dynstat_wvel_mean            =  -3.4920107436572E-07
(PID.TID 0000.0001) %MON dynstat_wvel_sd              =   1.0485038263686E-05
(PID.TID 0000.0001) %MON dynstat_wvel_del2            =   9.3808455791248E-08
(PID.TID 0000.0001) %MON dynstat_theta_max            =   3.0924852209107E+01
(PID.TID 0000.0001) %MON dynstat_theta_min            =  -3.0145559981679E+00
(PID.TID 0000.0001) %MON dynstat_theta_mean           =   3.9089795581185E+00
(PID.TID 0000.0001) %MON dynstat_theta_sd             =   4.5707305829666E+00
(PID.TID 0000.0001) %MON dynstat_theta_del2           =   2.6530523154811E-03
(PID.TID 0000.0001) %MON dynstat_salt_max             =   4.1375234653791E+01
(PID.TID 0000.0001) %MON dynstat_salt_min             =   1.8518423378709E+01
(PID.TID 0000.0001) %MON dynstat_salt_mean            =   3.4772172668169E+01
(PID.TID 0000.0001) %MON dynstat_salt_sd              =   5.3097182353766E-01
(PID.TID 0000.0001) %MON dynstat_salt_del2            =   8.0756297612038E-04
(PID.TID 0000.0001) %MON dynstat_sst_max              =   3.0924852209107E+01
(PID.TID 0000.0001) %MON dynstat_sst_min              =  -1.8997848219103E+00
(PID.TID 0000.0001) %MON dynstat_sst_mean             =   1.8101888304155E+01
(PID.TID 0000.0001) %MON dynstat_sst_sd               =   9.8005646580769E+00
(PID.TID 0000.0001) %MON dynstat_sst_del2             =   1.5288285304043E-02
(PID.TID 0000.0001) %MON dynstat_sss_max              =   4.1375234653791E+01
(PID.TID 0000.0001) %MON dynstat_sss_min              =   1.8751621624909E+01
(PID.TID 0000.0001) %MON dynstat_sss_mean             =   3.4640184771866E+01
(PID.TID 0000.0001) %MON dynstat_sss_sd               =   1.4579698081061E+00
(PID.TID 0000.0001) %MON dynstat_sss_del2             =   8.0879151600125E-03
(PID.TID 0000.0001) %MON forcing_qnet_max             =   1.0297356034487E+04
(PID.TID 0000.0001) %MON forcing_qnet_min             =  -1.6057606445312E+04
(PID.TID 0000.0001) %MON forcing_qnet_mean            =  -2.4146785612613E+02
(PID.TID 0000.0001) %MON forcing_qnet_sd              =   7.7005258607676E+02
(PID.TID 0000.0001) %MON forcing_qnet_del2            =   2.7864716074628E+01
(PID.TID 0000.0001) %MON forcing_qsw_max              =   0.0000000000000E+00
(PID.TID 0000.0001) %MON forcing_qsw_min              =  -4.2152558153362E+02
(PID.TID 0000.0001) %MON forcing_qsw_mean             =  -8.7702024557337E+01
(PID.TID 0000.0001) %MON forcing_qsw_sd               =   1.2009770967087E+02
(PID.TID 0000.0001) %MON forcing_qsw_del2             =   9.1324261079001E-01
(PID.TID 0000.0001) %MON forcing_empmr_max            =   2.8359869495034E-02
(PID.TID 0000.0001) %MON forcing_empmr_min            =  -5.0658386945724E-01
(PID.TID 0000.0001) %MON forcing_empmr_mean           =  -5.8772838651631E-04
(PID.TID 0000.0001) %MON forcing_empmr_sd             =   1.0770432678268E-02
(PID.TID 0000.0001) %MON forcing_empmr_del2           =   4.2565673154203E-04
(PID.TID 0000.0001) %MON forcing_fu_max               =   5.8806251798891E-01
(PID.TID 0000.0001) %MON forcing_fu_min               =  -4.6986363714904E-01
(PID.TID 0000.0001) %MON forcing_fu_mean              =  -4.2874377749933E-03
(PID.TID 0000.0001) %MON forcing_fu_sd                =   7.4577842676894E-02
(PID.TID 0000.0001) %MON forcing_fu_del2              =   7.5466374872684E-04
(PID.TID 0000.0001) %MON forcing_fv_max               =   3.6930312221043E-01
(PID.TID 0000.0001) %MON forcing_fv_min               =  -4.3061499173447E-01
(PID.TID 0000.0001) %MON forcing_fv_mean              =  -1.3962226296657E-02
(PID.TID 0000.0001) %MON forcing_fv_sd                =   7.2684187329431E-02
(PID.TID 0000.0001) %MON forcing_fv_del2              =   6.4370777563637E-04
(PID.TID 0000.0001) %MON trAdv_CFL_u_max              =   3.9913696519903E-03
(PID.TID 0000.0001) %MON trAdv_CFL_v_max              =   5.8704976699329E-03
(PID.TID 0000.0001) %MON trAdv_CFL_w_max              =   7.4927126140994E-03
(PID.TID 0000.0001) %MON advcfl_uvel_max              =   4.2223313231175E-03
(PID.TID 0000.0001) %MON advcfl_vvel_max              =   3.4353414616727E-03
(PID.TID 0000.0001) %MON advcfl_wvel_max              =   1.7620308502861E-02
(PID.TID 0000.0001) %MON advcfl_W_hf_max              =   7.4927126140994E-03
(PID.TID 0000.0001) %MON pe_b_mean                    =   5.3009029147354E-04
(PID.TID 0000.0001) %MON ke_max                       =   7.7834234300735E-01
(PID.TID 0000.0001) %MON ke_mean                      =   1.6796499933974E-04
(PID.TID 0000.0001) %MON ke_vol                       =   1.3398062233819E+18
(PID.TID 0000.0001) %MON vort_r_min                   =  -3.6558565894327E-06
(PID.TID 0000.0001) %MON vort_r_max                   =   3.5658031149915E-06
(PID.TID 0000.0001) %MON vort_a_mean                  =  -2.0549865324846E-05
(PID.TID 0000.0001) %MON vort_a_sd                    =   7.5259527126510E-05
(PID.TID 0000.0001) %MON vort_p_mean                  =  -2.4783415410111E-05
(PID.TID 0000.0001) %MON vort_p_sd                    =   1.2811950751957E-04
(PID.TID 0000.0001) %MON surfExpan_theta_mean         =  -7.5160669054186E-06
(PID.TID 0000.0001) %MON surfExpan_salt_mean          =   9.4911127855958E-07
(PID.TID 0000.0001) // =======================================================
(PID.TID 0000.0001) // End MONITOR dynamic field statistics
(PID.TID 0000.0001) // =======================================================
 cg2d: Sum(rhs),rhsMax =  -7.10146269515749E+00  1.37982156449193E+02
(PID.TID 0000.0001)      cg2d_init_res =   2.61193933581980E-01
(PID.TID 0000.0001)      cg2d_iters(min,last) =      -1       9
(PID.TID 0000.0001)      cg2d_last_res =   6.87726095329203E-08
(PID.TID 0000.0001) // =======================================================
(PID.TID 0000.0001) // Begin MONITOR dynamic field statistics
(PID.TID 0000.0001) // =======================================================
(PID.TID 0000.0001) %MON time_tsnumber                =                 72006
(PID.TID 0000.0001) %MON time_secondsf                =   6.4805400000000E+07
(PID.TID 0000.0001) %MON dynstat_eta_max              =   6.4644472085628E+00
(PID.TID 0000.0001) %MON dynstat_eta_min              =  -1.6220211289064E+00
(PID.TID 0000.0001) %MON dynstat_eta_mean             =   1.1386019184828E-02
(PID.TID 0000.0001) %MON dynstat_eta_sd               =   6.2655175491685E-01
(PID.TID 0000.0001) %MON dynstat_eta_del2             =   4.7836482899214E-03
(PID.TID 0000.0001) %MON dynstat_uvel_max             =   1.4499833588918E+00
(PID.TID 0000.0001) %MON dynstat_uvel_min             =  -7.2368919101889E-01
(PID.TID 0000.0001) %MON dynstat_uvel_mean            =  -3.3798909384700E-04
(PID.TID 0000.0001) %MON dynstat_uvel_sd              =   1.3431177590246E-02
(PID.TID 0000.0001) %MON dynstat_uvel_del2            =   1.2576005367787E-04
(PID.TID 0000.0001) %MON dynstat_vvel_max             =   1.1797817688689E+00
(PID.TID 0000.0001) %MON dynstat_vvel_min             =  -1.2630886739908E+00
(PID.TID 0000.0001) %MON dynstat_vvel_mean            =  -3.7083598066168E-04
(PID.TID 0000.0001) %MON dynstat_vvel_sd              =   1.3949882473138E-02
(PID.TID 0000.0001) %MON dynstat_vvel_del2            =   1.7428116711171E-04
(PID.TID 0000.0001) %MON dynstat_wvel_max             =   1.0431015729690E-04
(PID.TID 0000.0001) %MON dynstat_wvel_min             =  -6.9155045892858E-04
(PID.TID 0000.0001) %MON dynstat_wvel_mean            =  -3.9601552956963E-07
(PID.TID 0000.0001) %MON dynstat_wvel_sd              =   1.0259115098048E-05
(PID.TID 0000.0001) %MON dynstat_wvel_del2            =   9.2281230307437E-08
(PID.TID 0000.0001) %MON dynstat_theta_max            =   3.0924615197747E+01
(PID.TID 0000.0001) %MON dynstat_theta_min            =  -3.0136663081518E+00
(PID.TID 0000.0001) %MON dynstat_theta_mean           =   3.9089952512793E+00
(PID.TID 0000.0001) %MON dynstat_theta_sd             =   4.5707855043417E+00
(PID.TID 0000.0001) %MON dynstat_theta_del2           =   2.6523431481272E-03
(PID.TID 0000.0001) %MON dynstat_salt_max             =   4.1374469140612E+01
(PID.TID 0000.0001) %MON dynstat_salt_min             =   1.8518432930877E+01
(PID.TID 0000.0001) %MON dynstat_salt_mean            =   3.4772165634044E+01
(PID.TID 0000.0001) %MON dynstat_salt_sd              =   5.3098608998507E-01
(PID.TID 0000.0001) %MON dynstat_salt_del2            =   8.0996179742205E-04
(PID.TID 0000.0001) %MON dynstat_sst_max              =   3.0924615197747E+01
(PID.TID 0000.0001) %MON dynstat_sst_min              =  -1.8997466591030E+00
(PID.TID 0000.0001) %MON dynstat_sst_mean             =   1.8102813355247E+01
(PID.TID 0000.0001) %MON dynstat_sst_sd               =   9.8009042924154E+00
(PID.TID 0000.0001) %MON dynstat_sst_del2             =   1.5270170398452E-02
(PID.TID 0000.0001) %MON dynstat_sss_max              =   4.1374469140612E+01
(PID.TID 0000.0001) %MON dynstat_sss_min              =   1.8751421386053E+01
(PID.TID 0000.0001) %MON dynstat_sss_mean             =   3.4639680574715E+01
(PID.TID 0000.0001) %MON dynstat_sss_sd               =   1.4583006844465E+00
(PID.TID 0000.0001) %MON dynstat_sss_del2             =   8.1255438686164E-03
(PID.TID 0000.0001) %MON forcing_qnet_max             =   1.1810430655508E+04
(PID.TID 0000.0001) %MON forcing_qnet_min             =  -3.3351375000000E+04
(PID.TID 0000.0001) %MON forcing_qnet_mean            =  -2.1643337385683E+02
(PID.TID 0000.0001) %MON forcing_qnet_sd              =   7.7781968039942E+02
(PID.TID 0000.0001) %MON forcing_qnet_del2            =   3.4016505125191E+01
(PID.TID 0000.0001) %MON forcing_qsw_max              =   0.0000000000000E+00
(PID.TID 0000.0001) %MON forcing_qsw_min              =  -4.1888629582244E+02
(PID.TID 0000.0001) %MON forcing_qsw_mean             =  -8.7849562532296E+01
(PID.TID 0000.0001) %MON forcing_qsw_sd               =   1.2016897059940E+02
(PID.TID 0000.0001) %MON forcing_qsw_del2             =   9.1651334303125E-01
(PID.TID 0000.0001) %MON forcing_empmr_max            =   2.9296237975359E-02
(PID.TID 0000.0001) %MON forcing_empmr_min            =  -4.3651127815247E-01
(PID.TID 0000.0001) %MON forcing_empmr_mean           =  -5.6642912469361E-04
(PID.TID 0000.0001) %MON forcing_empmr_sd             =   9.9334281563428E-03
(PID.TID 0000.0001) %MON forcing_empmr_del2           =   3.9504395494316E-04
(PID.TID 0000.0001) %MON forcing_fu_max               =   6.1004715370569E-01
(PID.TID 0000.0001) %MON forcing_fu_min               =  -4.4550839003317E-01
(PID.TID 0000.0001) %MON forcing_fu_mean              =  -4.1641984683086E-03
(PID.TID 0000.0001) %MON forcing_fu_sd                =   7.4509313174445E-02
(PID.TID 0000.0001) %MON forcing_fu_del2              =   7.5517314374369E-04
(PID.TID 0000.0001) %MON forcing_fv_max               =   3.6919691558461E-01
(PID.TID 0000.0001) %MON forcing_fv_min               =  -3.9410224371037E-01
(PID.TID 0000.0001) %MON forcing_fv_mean              =  -1.3893739025057E-02
(PID.TID 0000.0001) %MON forcing_fv_sd                =   7.2784401165158E-02
(PID.TID 0000.0001) %MON forcing_fv_del2              =   6.4283470749961E-04
(PID.TID 0000.0001) %MON trAdv_CFL_u_max              =   4.5939055965025E-03
(PID.TID 0000.0001) %MON trAdv_CFL_v_max              =   6.7150423394017E-03
(PID.TID 0000.0001) %MON trAdv_CFL_w_max              =   6.4700915886263E-03
(PID.TID 0000.0001) %MON advcfl_uvel_max              =   4.8353561235959E-03
(PID.TID 0000.0001) %MON advcfl_vvel_max              =   3.8500582611038E-03
(PID.TID 0000.0001) %MON advcfl_wvel_max              =   1.5183000979216E-02
(PID.TID 0000.0001) %MON advcfl_W_hf_max              =   6.4700915886263E-03
(PID.TID 0000.0001) %MON pe_b_mean                    =   5.2314308273778E-04
(PID.TID 0000.0001) %MON ke_max                       =   1.0178341104121E+00
(PID.TID 0000.0001) %MON ke_mean                      =   1.7327095644419E-04
(PID.TID 0000.0001) %MON ke_vol                       =   1.3398064093528E+18
(PID.TID 0000.0001) %MON vort_r_min                   =  -4.1690397424694E-06
(PID.TID 0000.0001) %MON vort_r_max                   =   3.9557433645813E-06
(PID.TID 0000.0001) %MON vort_a_mean                  =  -2.0549865324846E-05
(PID.TID 0000.0001) %MON vort_a_sd                    =   7.5259528011722E-05
(PID.TID 0000.0001) %MON vort_p_mean                  =  -2.4783410636052E-05
(PID.TID 0000.0001) %MON vort_p_sd                    =   1.2811945055806E-04
(PID.TID 0000.0001) %MON surfExpan_theta_mean         =  -7.7507103385728E-06
(PID.TID 0000.0001) %MON surfExpan_salt_mean          =   1.0745892555839E-06
(PID.TID 0000.0001) // =======================================================
(PID.TID 0000.0001) // End MONITOR dynamic field statistics
(PID.TID 0000.0001) // =======================================================
 cg2d: Sum(rhs),rhsMax =  -8.21392587633210E+00  1.24274828016906E+02
(PID.TID 0000.0001)      cg2d_init_res =   2.81133883853309E-01
(PID.TID 0000.0001)      cg2d_iters(min,last) =      -1       9
(PID.TID 0000.0001)      cg2d_last_res =   8.11412845626654E-08
(PID.TID 0000.0001) // =======================================================
(PID.TID 0000.0001) // Begin MONITOR dynamic field statistics
(PID.TID 0000.0001) // =======================================================
(PID.TID 0000.0001) %MON time_tsnumber                =                 72007
(PID.TID 0000.0001) %MON time_secondsf                =   6.4806300000000E+07
(PID.TID 0000.0001) %MON dynstat_eta_max              =   5.8257571671098E+00
(PID.TID 0000.0001) %MON dynstat_eta_min              =  -2.3303136141637E+00
(PID.TID 0000.0001) %MON dynstat_eta_mean             =   1.1861377375703E-02
(PID.TID 0000.0001) %MON dynstat_eta_sd               =   6.2285137067219E-01
(PID.TID 0000.0001) %MON dynstat_eta_del2             =   4.0732879794608E-03
(PID.TID 0000.0001) %MON dynstat_uvel_max             =   1.6068819939115E+00
(PID.TID 0000.0001) %MON dynstat_uvel_min             =  -7.8952139844976E-01
(PID.TID 0000.0001) %MON dynstat_uvel_mean            =  -3.0588499294233E-04
(PID.TID 0000.0001) %MON dynstat_uvel_sd              =   1.3620894073761E-02
(PID.TID 0000.0001) %MON dynstat_uvel_del2            =   1.3291156967578E-04
(PID.TID 0000.0001) %MON dynstat_vvel_max             =   1.2764597540969E+00
(PID.TID 0000.0001) %MON dynstat_vvel_min             =  -1.3944394836079E+00
(PID.TID 0000.0001) %MON dynstat_vvel_mean            =  -3.7407619580674E-04
(PID.TID 0000.0001) %MON dynstat_vvel_sd              =   1.4104886267535E-02
(PID.TID 0000.0001) %MON dynstat_vvel_del2            =   1.8293972762043E-04
(PID.TID 0000.0001) %MON dynstat_wvel_max             =   1.0456442245891E-04
(PID.TID 0000.0001) %MON dynstat_wvel_min             =  -5.3424491337104E-04
(PID.TID 0000.0001) %MON dynstat_wvel_mean            =  -4.3021690369233E-07
(PID.TID 0000.0001) %MON dynstat_wvel_sd              =   9.8141175314193E-06
(PID.TID 0000.0001) %MON dynstat_wvel_del2            =   8.9689390522103E-08
(PID.TID 0000.0001) %MON dynstat_theta_max            =   3.0924387182965E+01
(PID.TID 0000.0001) %MON dynstat_theta_min            =  -3.0128716841449E+00
(PID.TID 0000.0001) %MON dynstat_theta_mean           =   3.9090096186247E+00
(PID.TID 0000.0001) %MON dynstat_theta_sd             =   4.5708368369767E+00
(PID.TID 0000.0001) %MON dynstat_theta_del2           =   2.6519375831156E-03
(PID.TID 0000.0001) %MON dynstat_salt_max             =   4.1373639683007E+01
(PID.TID 0000.0001) %MON dynstat_salt_min             =   1.8518442467222E+01
(PID.TID 0000.0001) %MON dynstat_salt_mean            =   3.4772158716785E+01
(PID.TID 0000.0001) %MON dynstat_salt_sd              =   5.3100113677129E-01
(PID.TID 0000.0001) %MON dynstat_salt_del2            =   8.1283086173638E-04
(PID.TID 0000.0001) %MON dynstat_sst_max              =   3.0924387182965E+01
(PID.TID 0000.0001) %MON dynstat_sst_min              =  -1.8997095115040E+00
(PID.TID 0000.0001) %MON dynstat_sst_mean             =   1.8103654061718E+01
(PID.TID 0000.0001) %MON dynstat_sst_sd               =   9.8012598305702E+00
(PID.TID 0000.0001) %MON dynstat_sst_del2             =   1.5260298054108E-02
(PID.TID 0000.0001) %MON dynstat_sss_max              =   4.1373639683007E+01
(PID.TID 0000.0001) %MON dynstat_sss_min              =   1.8751385404437E+01
(PID.TID 0000.0001) %MON dynstat_sss_mean             =   3.4639186559499E+01
(PID.TID 0000.0001) %MON dynstat_sss_sd               =   1.4586555698347E+00
(PID.TID 0000.0001) %MON dynstat_sss_del2             =   8.1704733714538E-03
(PID.TID 0000.0001) %MON forcing_qnet_max             =   7.8231209928998E+03
(PID.TID 0000.0001) %MON forcing_qnet_min             =  -9.5908691406250E+03
(PID.TID 0000.0001) %MON forcing_qnet_mean            =  -1.9577378009729E+02
(PID.TID 0000.0001) %MON forcing_qnet_sd              =   6.2498546693292E+02
(PID.TID 0000.0001) %MON forcing_qnet_del2            =   2.0891893473660E+01
(PID.TID 0000.0001) %MON forcing_qsw_max              =   0.0000000000000E+00
(PID.TID 0000.0001) %MON forcing_qsw_min              =  -4.1447001536433E+02
(PID.TID 0000.0001) %MON forcing_qsw_mean             =  -8.7688815933231E+01
(PID.TID 0000.0001) %MON forcing_qsw_sd               =   1.2005683546435E+02
(PID.TID 0000.0001) %MON forcing_qsw_del2             =   9.1898310623706E-01
(PID.TID 0000.0001) %MON forcing_empmr_max            =   2.9616955667734E-02
(PID.TID 0000.0001) %MON forcing_empmr_min            =  -3.7782347202301E-01
(PID.TID 0000.0001) %MON forcing_empmr_mean           =  -5.4666191950588E-04
(PID.TID 0000.0001) %MON forcing_empmr_sd             =   9.2584748897335E-03
(PID.TID 0000.0001) %MON forcing_empmr_del2           =   3.7046637935811E-04
(PID.TID 0000.0001) %MON forcing_fu_max               =   6.3567865036591E-01
(PID.TID 0000.0001) %MON forcing_fu_min               =  -4.1699153506405E-01
(PID.TID 0000.0001) %MON forcing_fu_mean              =  -4.0953841839928E-03
(PID.TID 0000.0001) %MON forcing_fu_sd                =   7.4490087350195E-02
(PID.TID 0000.0001) %MON forcing_fu_del2              =   7.5691825722399E-04
(PID.TID 0000.0001) %MON forcing_fv_max               =   3.6429258267460E-01
(PID.TID 0000.0001) %MON forcing_fv_min               =  -3.6234013998442E-01
(PID.TID 0000.0001) %MON forcing_fv_mean              =  -1.3823906759448E-02
(PID.TID 0000.0001) %MON forcing_fv_sd                =   7.2868933058371E-02
(PID.TID 0000.0001) %MON forcing_fv_del2              =   6.4170523974418E-04
(PID.TID 0000.0001) %MON trAdv_CFL_u_max              =   5.1176045853274E-03
(PID.TID 0000.0001) %MON trAdv_CFL_v_max              =   7.4244447641443E-03
(PID.TID 0000.0001) %MON trAdv_CFL_w_max              =   6.8372185497021E-03
(PID.TID 0000.0001) %MON advcfl_uvel_max              =   5.3585764564182E-03
(PID.TID 0000.0001) %MON advcfl_vvel_max              =   4.1788135883240E-03
(PID.TID 0000.0001) %MON advcfl_wvel_max              =   1.3141685983409E-02
(PID.TID 0000.0001) %MON advcfl_W_hf_max              =   6.8372185497021E-03
(PID.TID 0000.0001) %MON pe_b_mean                    =   5.1699870132853E-04
(PID.TID 0000.0001) %MON ke_max                       =   1.2417902012799E+00
(PID.TID 0000.0001) %MON ke_mean                      =   1.7763854453227E-04
(PID.TID 0000.0001) %MON ke_vol                       =   1.3398065885841E+18
(PID.TID 0000.0001) %MON vort_r_min                   =  -4.6025855075258E-06
(PID.TID 0000.0001) %MON vort_r_max                   =   4.2289084277057E-06
(PID.TID 0000.0001) %MON vort_a_mean                  =  -2.0549865324846E-05
(PID.TID 0000.0001) %MON vort_a_sd                    =   7.5259528197104E-05
(PID.TID 0000.0001) %MON vort_p_mean                  =  -2.4783405910510E-05
(PID.TID 0000.0001) %MON vort_p_sd                    =   1.2811939583662E-04
(PID.TID 0000.0001) %MON surfExpan_theta_mean         =  -7.8664622366261E-06
(PID.TID 0000.0001) %MON surfExpan_salt_mean          =   1.1930878188177E-06
(PID.TID 0000.0001) // =======================================================
(PID.TID 0000.0001) // End MONITOR dynamic field statistics
(PID.TID 0000.0001) // =======================================================
 Computing Diagnostic #     81  oceTAUX      Counter:       1   Parms: UU      U1      
           Vector  Mate for  oceTAUX      Diagnostic #     82  oceTAUY  exists 
 Computing Diagnostic #     82  oceTAUY      Counter:       1   Parms: VV      U1      
           Vector  Mate for  oceTAUY      Diagnostic #     81  oceTAUX  exists 
 Computing Diagnostic #     85  oceFWflx     Counter:       1   Parms: SM      U1      
 Computing Diagnostic #     86  oceSflux     Counter:       1   Parms: SM      U1      
 Computing Diagnostic #     87  oceQnet      Counter:       1   Parms: SM      U1      
 Computing Diagnostic #     88  oceQsw       Counter:       1   Parms: SM      U1      
 Computing Diagnostic #     27  SALT         Counter:       1   Parms: SMR     MR      
 Computing Diagnostic #     26  THETA        Counter:       1   Parms: SMR     MR      
 Computing Diagnostic #     45  UVELMASS     Counter:       1   Parms: UUr     MR      
           Vector  Mate for  UVELMASS     Diagnostic #     46  VVELMASS exists 
 Computing Diagnostic #     46  VVELMASS     Counter:       1   Parms: VVr     MR      
           Vector  Mate for  VVELMASS     Diagnostic #     45  UVELMASS exists 
 cg2d: Sum(rhs),rhsMax =  -9.66919935062018E+00  1.09668228096313E+02
(PID.TID 0000.0001)      cg2d_init_res =   3.07337698241115E-01
(PID.TID 0000.0001)      cg2d_iters(min,last) =      -1       9
(PID.TID 0000.0001)      cg2d_last_res =   9.25052008694711E-08
(PID.TID 0000.0001) // =======================================================
(PID.TID 0000.0001) // Begin MONITOR dynamic field statistics
(PID.TID 0000.0001) // =======================================================
(PID.TID 0000.0001) %MON time_tsnumber                =                 72008
(PID.TID 0000.0001) %MON time_secondsf                =   6.4807200000000E+07
(PID.TID 0000.0001) %MON dynstat_eta_max              =   5.1448840128998E+00
(PID.TID 0000.0001) %MON dynstat_eta_min              =  -2.6957479672317E+00
(PID.TID 0000.0001) %MON dynstat_eta_mean             =   1.2321753435479E-02
(PID.TID 0000.0001) %MON dynstat_eta_sd               =   6.1957540480543E-01
(PID.TID 0000.0001) %MON dynstat_eta_del2             =   3.4751469014747E-03
(PID.TID 0000.0001) %MON dynstat_uvel_max             =   1.7365075671562E+00
(PID.TID 0000.0001) %MON dynstat_uvel_min             =  -8.4564607096778E-01
(PID.TID 0000.0001) %MON dynstat_uvel_mean            =  -2.7457771965610E-04
(PID.TID 0000.0001) %MON dynstat_uvel_sd              =   1.3785348788155E-02
(PID.TID 0000.0001) %MON dynstat_uvel_del2            =   1.3786671839820E-04
(PID.TID 0000.0001) %MON dynstat_vvel_max             =   1.3426315527957E+00
(PID.TID 0000.0001) %MON dynstat_vvel_min             =  -1.4974189609029E+00
(PID.TID 0000.0001) %MON dynstat_vvel_mean            =  -3.7983556832233E-04
(PID.TID 0000.0001) %MON dynstat_vvel_sd              =   1.4217638713087E-02
(PID.TID 0000.0001) %MON dynstat_vvel_del2            =   1.8728967272528E-04
(PID.TID 0000.0001) %MON dynstat_wvel_max             =   1.0483863586763E-04
(PID.TID 0000.0001) %MON dynstat_wvel_min             =  -5.4859529948782E-04
(PID.TID 0000.0001) %MON dynstat_wvel_mean            =  -4.5184258636092E-07
(PID.TID 0000.0001) %MON dynstat_wvel_sd              =   9.3253124821891E-06
(PID.TID 0000.0001) %MON dynstat_wvel_del2            =   8.6595973769303E-08
(PID.TID 0000.0001) %MON dynstat_theta_max            =   3.0924173994939E+01
(PID.TID 0000.0001) %MON dynstat_theta_min            =  -3.0122109902787E+00
(PID.TID 0000.0001) %MON dynstat_theta_mean           =   3.9090232561471E+00
(PID.TID 0000.0001) %MON dynstat_theta_sd             =   4.5708855670045E+00
(PID.TID 0000.0001) %MON dynstat_theta_del2           =   2.6515560087704E-03
(PID.TID 0000.0001) %MON dynstat_salt_max             =   4.1372762315094E+01
(PID.TID 0000.0001) %MON dynstat_salt_min             =   1.8518452010183E+01
(PID.TID 0000.0001) %MON dynstat_salt_mean            =   3.4772152027454E+01
(PID.TID 0000.0001) %MON dynstat_salt_sd              =   5.3101684749080E-01
(PID.TID 0000.0001) %MON dynstat_salt_del2            =   8.1606802258129E-04
(PID.TID 0000.0001) %MON dynstat_sst_max              =   3.0924173994939E+01
(PID.TID 0000.0001) %MON dynstat_sst_min              =  -1.8996747441500E+00
(PID.TID 0000.0001) %MON dynstat_sst_mean             =   1.8104443274827E+01
(PID.TID 0000.0001) %MON dynstat_sst_sd               =   9.8015967717911E+00
(PID.TID 0000.0001) %MON dynstat_sst_del2             =   1.5250927957255E-02
(PID.TID 0000.0001) %MON dynstat_sss_max              =   4.1372762315094E+01
(PID.TID 0000.0001) %MON dynstat_sss_min              =   1.8751379291318E+01
(PID.TID 0000.0001) %MON dynstat_sss_mean             =   3.4638706673958E+01
(PID.TID 0000.0001) %MON dynstat_sss_sd               =   1.4590272651872E+00
(PID.TID 0000.0001) %MON dynstat_sss_del2             =   8.2210691143182E-03
(PID.TID 0000.0001) %MON forcing_qnet_max             =   6.0845048828125E+03
(PID.TID 0000.0001) %MON forcing_qnet_min             =  -1.1112329101562E+04
(PID.TID 0000.0001) %MON forcing_qnet_mean            =  -1.8499879069202E+02
(PID.TID 0000.0001) %MON forcing_qnet_sd              =   5.8093775160828E+02
(PID.TID 0000.0001) %MON forcing_qnet_del2            =   1.9864617570189E+01
(PID.TID 0000.0001) %MON forcing_qsw_max              =   0.0000000000000E+00
(PID.TID 0000.0001) %MON forcing_qsw_min              =  -4.1394154264218E+02
(PID.TID 0000.0001) %MON forcing_qsw_mean             =  -8.7244081421760E+01
(PID.TID 0000.0001) %MON forcing_qsw_sd               =   1.1974455290575E+02
(PID.TID 0000.0001) %MON forcing_qsw_del2             =   9.2057063284939E-01
(PID.TID 0000.0001) %MON forcing_empmr_max            =   2.9560448601842E-02
(PID.TID 0000.0001) %MON forcing_empmr_min            =  -3.3001914620399E-01
(PID.TID 0000.0001) %MON forcing_empmr_mean           =  -5.2943246874250E-04
(PID.TID 0000.0001) %MON forcing_empmr_sd             =   8.7201917116329E-03
(PID.TID 0000.0001) %MON forcing_empmr_del2           =   3.5064496554151E-04
(PID.TID 0000.0001) %MON forcing_fu_max               =   6.5940025901033E-01
(PID.TID 0000.0001) %MON forcing_fu_min               =  -3.9677658308170E-01
(PID.TID 0000.0001) %MON forcing_fu_mean              =  -4.0923189011468E-03
(PID.TID 0000.0001) %MON forcing_fu_sd                =   7.4538442975895E-02
(PID.TID 0000.0001) %MON forcing_fu_del2              =   7.5970251283283E-04
(PID.TID 0000.0001) %MON forcing_fv_max               =   3.5876384218780E-01
(PID.TID 0000.0001) %MON forcing_fv_min               =  -3.3686738636405E-01
(PID.TID 0000.0001) %MON forcing_fv_mean              =  -1.3748844056277E-02
(PID.TID 0000.0001) %MON forcing_fv_sd                =   7.2971596862677E-02
(PID.TID 0000.0001) %MON forcing_fv_del2              =   6.4140951091337E-04
(PID.TID 0000.0001) %MON trAdv_CFL_u_max              =   5.5592009349249E-03
(PID.TID 0000.0001) %MON trAdv_CFL_v_max              =   7.9924929734810E-03
(PID.TID 0000.0001) %MON trAdv_CFL_w_max              =   7.0351763912267E-03
(PID.TID 0000.0001) %MON advcfl_uvel_max              =   5.7908474928545E-03
(PID.TID 0000.0001) %MON advcfl_vvel_max              =   4.4874193357211E-03
(PID.TID 0000.0001) %MON advcfl_wvel_max              =   1.1478926824487E-02
(PID.TID 0000.0001) %MON advcfl_W_hf_max              =   7.0351763912267E-03
(PID.TID 0000.0001) %MON pe_b_mean                    =   5.1159129476488E-04
(PID.TID 0000.0001) %MON ke_max                       =   1.4346858243831E+00
(PID.TID 0000.0001) %MON ke_mean                      =   1.8118499862478E-04
(PID.TID 0000.0001) %MON ke_vol                       =   1.3398067615607E+18
(PID.TID 0000.0001) %MON vort_r_min                   =  -4.9424868480588E-06
(PID.TID 0000.0001) %MON vort_r_max                   =   4.3865307471224E-06
(PID.TID 0000.0001) %MON vort_a_mean                  =  -2.0549865324846E-05
(PID.TID 0000.0001) %MON vort_a_sd                    =   7.5259527770803E-05
(PID.TID 0000.0001) %MON vort_p_mean                  =  -2.4783401285556E-05
(PID.TID 0000.0001) %MON vort_p_sd                    =   1.2811934458983E-04
(PID.TID 0000.0001) %MON surfExpan_theta_mean         =  -7.9005189276771E-06
(PID.TID 0000.0001) %MON surfExpan_salt_mean          =   1.2989743111601E-06
(PID.TID 0000.0001) // =======================================================
(PID.TID 0000.0001) // End MONITOR dynamic field statistics
(PID.TID 0000.0001) // =======================================================
 cg2d: Sum(rhs),rhsMax =  -1.16330425596473E+01  9.44616464612321E+01
(PID.TID 0000.0001)      cg2d_init_res =   3.46626921490514E-01
(PID.TID 0000.0001)      cg2d_iters(min,last) =      -1      10
(PID.TID 0000.0001)      cg2d_last_res =   2.24683532680527E-08
(PID.TID 0000.0001) // =======================================================
(PID.TID 0000.0001) // Begin MONITOR dynamic field statistics
(PID.TID 0000.0001) // =======================================================
(PID.TID 0000.0001) %MON time_tsnumber                =                 72009
(PID.TID 0000.0001) %MON time_secondsf                =   6.4808100000000E+07
(PID.TID 0000.0001) %MON dynstat_eta_max              =   4.4357448967002E+00
(PID.TID 0000.0001) %MON dynstat_eta_min              =  -2.6956804937196E+00
(PID.TID 0000.0001) %MON dynstat_eta_mean             =   1.2768797549327E-02
(PID.TID 0000.0001) %MON dynstat_eta_sd               =   6.1671658071281E-01
(PID.TID 0000.0001) %MON dynstat_eta_del2             =   3.0102745497133E-03
(PID.TID 0000.0001) %MON dynstat_uvel_max             =   1.8391962215837E+00
(PID.TID 0000.0001) %MON dynstat_uvel_min             =  -8.9179835896018E-01
(PID.TID 0000.0001) %MON dynstat_uvel_mean            =  -2.4462913275068E-04
(PID.TID 0000.0001) %MON dynstat_uvel_sd              =   1.3931864724619E-02
(PID.TID 0000.0001) %MON dynstat_uvel_del2            =   1.4106298658620E-04
(PID.TID 0000.0001) %MON dynstat_vvel_max             =   1.3786144546147E+00
(PID.TID 0000.0001) %MON dynstat_vvel_min             =  -1.5709880010596E+00
(PID.TID 0000.0001) %MON dynstat_vvel_mean            =  -3.8746826903338E-04
(PID.TID 0000.0001) %MON dynstat_vvel_sd              =   1.4288843026491E-02
(PID.TID 0000.0001) %MON dynstat_vvel_del2            =   1.8790197394015E-04
(PID.TID 0000.0001) %MON dynstat_wvel_max             =   1.0513253669988E-04
(PID.TID 0000.0001) %MON dynstat_wvel_min             =  -5.5294725384298E-04
(PID.TID 0000.0001) %MON dynstat_wvel_mean            =  -4.6212225672085E-07
(PID.TID 0000.0001) %MON dynstat_wvel_sd              =   8.9292858497265E-06
(PID.TID 0000.0001) %MON dynstat_wvel_del2            =   8.3640131694219E-08
(PID.TID 0000.0001) %MON dynstat_theta_max            =   3.0924012725431E+01
(PID.TID 0000.0001) %MON dynstat_theta_min            =  -3.0116904036439E+00
(PID.TID 0000.0001) %MON dynstat_theta_mean           =   3.9090362434088E+00
(PID.TID 0000.0001) %MON dynstat_theta_sd             =   4.5709324479079E+00
(PID.TID 0000.0001) %MON dynstat_theta_del2           =   2.6512009561851E-03
(PID.TID 0000.0001) %MON dynstat_salt_max             =   4.1371845295253E+01
(PID.TID 0000.0001) %MON dynstat_salt_min             =   1.8518461582422E+01
(PID.TID 0000.0001) %MON dynstat_salt_mean            =   3.4772145498749E+01
(PID.TID 0000.0001) %MON dynstat_salt_sd              =   5.3103319530548E-01
(PID.TID 0000.0001) %MON dynstat_salt_del2            =   8.1962878164786E-04
(PID.TID 0000.0001) %MON dynstat_sst_max              =   3.0924012725431E+01
(PID.TID 0000.0001) %MON dynstat_sst_min              =  -1.8996425221641E+00
(PID.TID 0000.0001) %MON dynstat_sst_mean             =   1.8105193028970E+01
(PID.TID 0000.0001) %MON dynstat_sst_sd               =   9.8019316576878E+00
(PID.TID 0000.0001) %MON dynstat_sst_del2             =   1.5242264202445E-02
(PID.TID 0000.0001) %MON dynstat_sss_max              =   4.1371845295253E+01
(PID.TID 0000.0001) %MON dynstat_sss_min              =   1.8751378681631E+01
(PID.TID 0000.0001) %MON dynstat_sss_mean             =   3.4638238006148E+01
(PID.TID 0000.0001) %MON dynstat_sss_sd               =   1.4594174083208E+00
(PID.TID 0000.0001) %MON dynstat_sss_del2             =   8.2766026410456E-03
(PID.TID 0000.0001) %MON forcing_qnet_max             =   1.0216877929688E+04
(PID.TID 0000.0001) %MON forcing_qnet_min             =  -1.3566896484375E+04
(PID.TID 0000.0001) %MON forcing_qnet_mean            =  -1.7527108556707E+02
(PID.TID 0000.0001) %MON forcing_qnet_sd              =   5.7174451304509E+02
(PID.TID 0000.0001) %MON forcing_qnet_del2            =   2.0812683901940E+01
(PID.TID 0000.0001) %MON forcing_qsw_max              =   0.0000000000000E+00
(PID.TID 0000.0001) %MON forcing_qsw_min              =  -4.2017909998096E+02
(PID.TID 0000.0001) %MON forcing_qsw_mean             =  -8.9110225605117E+01
(PID.TID 0000.0001) %MON forcing_qsw_sd               =   1.2206824504962E+02
(PID.TID 0000.0001) %MON forcing_qsw_del2             =   9.3021145518837E-01
(PID.TID 0000.0001) %MON forcing_empmr_max            =   2.9292568564415E-02
(PID.TID 0000.0001) %MON forcing_empmr_min            =  -2.9140868782997E-01
(PID.TID 0000.0001) %MON forcing_empmr_mean           =  -5.1410073092456E-04
(PID.TID 0000.0001) %MON forcing_empmr_sd             =   8.2904245719265E-03
(PID.TID 0000.0001) %MON forcing_empmr_del2           =   3.3444956659944E-04
(PID.TID 0000.0001) %MON forcing_fu_max               =   6.8048222909256E-01
(PID.TID 0000.0001) %MON forcing_fu_min               =  -4.2407050554824E-01
(PID.TID 0000.0001) %MON forcing_fu_mean              =  -4.1286955480297E-03
(PID.TID 0000.0001) %MON forcing_fu_sd                =   7.4717088385177E-02
(PID.TID 0000.0001) %MON forcing_fu_del2              =   7.6358778561726E-04
(PID.TID 0000.0001) %MON forcing_fv_max               =   3.5491976223068E-01
(PID.TID 0000.0001) %MON forcing_fv_min               =  -3.2633193229562E-01
(PID.TID 0000.0001) %MON forcing_fv_mean              =  -1.3602279463683E-02
(PID.TID 0000.0001) %MON forcing_fv_sd                =   7.3168933672964E-02
(PID.TID 0000.0001) %MON forcing_fv_del2              =   6.4343877550416E-04
(PID.TID 0000.0001) %MON trAdv_CFL_u_max              =   5.9174560297899E-03
(PID.TID 0000.0001) %MON trAdv_CFL_v_max              =   8.4146152453805E-03
(PID.TID 0000.0001) %MON trAdv_CFL_w_max              =   7.0901512920372E-03
(PID.TID 0000.0001) %MON advcfl_uvel_max              =   6.1332901912239E-03
(PID.TID 0000.0001) %MON advcfl_vvel_max              =   4.7078887847727E-03
(PID.TID 0000.0001) %MON advcfl_wvel_max              =   1.0135954359303E-02
(PID.TID 0000.0001) %MON advcfl_W_hf_max              =   7.0901512920372E-03
(PID.TID 0000.0001) %MON pe_b_mean                    =   5.0689779330334E-04
(PID.TID 0000.0001) %MON ke_max                       =   1.5842227823155E+00
(PID.TID 0000.0001) %MON ke_mean                      =   1.8398840217593E-04
(PID.TID 0000.0001) %MON ke_vol                       =   1.3398069290854E+18
(PID.TID 0000.0001) %MON vort_r_min                   =  -5.1853140212767E-06
(PID.TID 0000.0001) %MON vort_r_max                   =   4.4317173118044E-06
(PID.TID 0000.0001) %MON vort_a_mean                  =  -2.0549865324846E-05
(PID.TID 0000.0001) %MON vort_a_sd                    =   7.5259526843249E-05
(PID.TID 0000.0001) %MON vort_p_mean                  =  -2.4783396790236E-05
(PID.TID 0000.0001) %MON vort_p_sd                    =   1.2811929785762E-04
(PID.TID 0000.0001) %MON surfExpan_theta_mean         =  -7.8820001443164E-06
(PID.TID 0000.0001) %MON surfExpan_salt_mean          =   1.3899097412012E-06
(PID.TID 0000.0001) // =======================================================
(PID.TID 0000.0001) // End MONITOR dynamic field statistics
(PID.TID 0000.0001) // =======================================================
 cg2d: Sum(rhs),rhsMax =  -1.43934034191091E+01  7.89466411451935E+01
(PID.TID 0000.0001)      cg2d_init_res =   4.08234535161086E-01
(PID.TID 0000.0001)      cg2d_iters(min,last) =      -1      10
(PID.TID 0000.0001)      cg2d_last_res =   2.79401968635993E-08
(PID.TID 0000.0001) // =======================================================
(PID.TID 0000.0001) // Begin MONITOR dynamic field statistics
(PID.TID 0000.0001) // =======================================================
(PID.TID 0000.0001) %MON time_tsnumber                =                 72010
(PID.TID 0000.0001) %MON time_secondsf                =   6.4809000000000E+07
(PID.TID 0000.0001) %MON dynstat_eta_max              =   3.7119101669044E+00
(PID.TID 0000.0001) %MON dynstat_eta_min              =  -2.3913921414751E+00
(PID.TID 0000.0001) %MON dynstat_eta_mean             =   1.3203781488794E-02
(PID.TID 0000.0001) %MON dynstat_eta_sd               =   6.1432881952494E-01
(PID.TID 0000.0001) %MON dynstat_eta_del2             =   2.6847661374600E-03
(PID.TID 0000.0001) %MON dynstat_uvel_max             =   1.9157581227952E+00
(PID.TID 0000.0001) %MON dynstat_uvel_min             =  -9.2786834239115E-01
(PID.TID 0000.0001) %MON dynstat_uvel_mean            =  -2.1629044372107E-04
(PID.TID 0000.0001) %MON dynstat_uvel_sd              =   1.4059194656976E-02
(PID.TID 0000.0001) %MON dynstat_uvel_del2            =   1.4283423876406E-04
(PID.TID 0000.0001) %MON dynstat_vvel_max             =   1.3851805513298E+00
(PID.TID 0000.0001) %MON dynstat_vvel_min             =  -1.6147332690105E+00
(PID.TID 0000.0001) %MON dynstat_vvel_mean            =  -3.9619998226298E-04
(PID.TID 0000.0001) %MON dynstat_vvel_sd              =   1.4319073869481E-02
(PID.TID 0000.0001) %MON dynstat_vvel_del2            =   1.8537378377728E-04
(PID.TID 0000.0001) %MON dynstat_wvel_max             =   1.0544550633869E-04
(PID.TID 0000.0001) %MON dynstat_wvel_min             =  -5.4821890180006E-04
(PID.TID 0000.0001) %MON dynstat_wvel_mean            =  -4.6295882010557E-07
(PID.TID 0000.0001) %MON dynstat_wvel_sd              =   8.6904252263743E-06
(PID.TID 0000.0001) %MON dynstat_wvel_del2            =   8.1376980630974E-08
(PID.TID 0000.0001) %MON dynstat_theta_max            =   3.0923881068102E+01
(PID.TID 0000.0001) %MON dynstat_theta_min            =  -3.0112889342858E+00
(PID.TID 0000.0001) %MON dynstat_theta_mean           =   3.9090480793406E+00
(PID.TID 0000.0001) %MON dynstat_theta_sd             =   4.5709764020487E+00
(PID.TID 0000.0001) %MON dynstat_theta_del2           =   2.6508833926297E-03
(PID.TID 0000.0001) %MON dynstat_salt_max             =   4.1370901605838E+01
(PID.TID 0000.0001) %MON dynstat_salt_min             =   1.8518471201780E+01
(PID.TID 0000.0001) %MON dynstat_salt_mean            =   3.4772139083210E+01
(PID.TID 0000.0001) %MON dynstat_salt_sd              =   5.3104997550576E-01
(PID.TID 0000.0001) %MON dynstat_salt_del2            =   8.2347303451556E-04
(PID.TID 0000.0001) %MON dynstat_sst_max              =   3.0923881068102E+01
(PID.TID 0000.0001) %MON dynstat_sst_min              =  -1.8996118180398E+00
(PID.TID 0000.0001) %MON dynstat_sst_mean             =   1.8105879308398E+01
(PID.TID 0000.0001) %MON dynstat_sst_sd               =   9.8022784178818E+00
(PID.TID 0000.0001) %MON dynstat_sst_del2             =   1.5234306208109E-02
(PID.TID 0000.0001) %MON dynstat_sss_max              =   4.1370901605838E+01
(PID.TID 0000.0001) %MON dynstat_sss_min              =   1.8751379169094E+01
(PID.TID 0000.0001) %MON dynstat_sss_mean             =   3.4637780419986E+01
(PID.TID 0000.0001) %MON dynstat_sss_sd               =   1.4598246136172E+00
(PID.TID 0000.0001) %MON dynstat_sss_del2             =   8.3363998936406E-03
(PID.TID 0000.0001) %MON forcing_qnet_max             =   2.5946820312500E+04
(PID.TID 0000.0001) %MON forcing_qnet_min             =  -1.0264992187500E+04
(PID.TID 0000.0001) %MON forcing_qnet_mean            =  -1.5683715224998E+02
(PID.TID 0000.0001) %MON forcing_qnet_sd              =   6.4573481670339E+02
(PID.TID 0000.0001) %MON forcing_qnet_del2            =   2.5926505160060E+01
(PID.TID 0000.0001) %MON forcing_qsw_max              =   0.0000000000000E+00
(PID.TID 0000.0001) %MON forcing_qsw_min              =  -4.2445643862228E+02
(PID.TID 0000.0001) %MON forcing_qsw_mean             =  -8.8690107008903E+01
(PID.TID 0000.0001) %MON forcing_qsw_sd               =   1.2179990790183E+02
(PID.TID 0000.0001) %MON forcing_qsw_del2             =   9.3699062611772E-01
(PID.TID 0000.0001) %MON forcing_empmr_max            =   2.8879862278700E-02
(PID.TID 0000.0001) %MON forcing_empmr_min            =  -2.6043692231178E-01
(PID.TID 0000.0001) %MON forcing_empmr_mean           =  -5.0023153038704E-04
(PID.TID 0000.0001) %MON forcing_empmr_sd             =   7.9529920336263E-03
(PID.TID 0000.0001) %MON forcing_empmr_del2           =   3.2139707779073E-04
(PID.TID 0000.0001) %MON forcing_fu_max               =   6.9288301411691E-01
(PID.TID 0000.0001) %MON forcing_fu_min               =  -4.4906704560662E-01
(PID.TID 0000.0001) %MON forcing_fu_mean              =  -4.1319217325134E-03
(PID.TID 0000.0001) %MON forcing_fu_sd                =   7.4780381095754E-02
(PID.TID 0000.0001) %MON forcing_fu_del2              =   7.6645733316263E-04
(PID.TID 0000.0001) %MON forcing_fv_max               =   3.5022983460614E-01
(PID.TID 0000.0001) %MON forcing_fv_min               =  -3.3075964412302E-01
(PID.TID 0000.0001) %MON forcing_fv_mean              =  -1.3387794151305E-02
(PID.TID 0000.0001) %MON forcing_fv_sd                =   7.3339578230756E-02
(PID.TID 0000.0001) %MON forcing_fv_del2              =   6.4499799765086E-04
(PID.TID 0000.0001) %MON trAdv_CFL_u_max              =   6.1927897407121E-03
(PID.TID 0000.0001) %MON trAdv_CFL_v_max              =   8.6879666247042E-03
(PID.TID 0000.0001) %MON trAdv_CFL_w_max              =   7.0299093323962E-03
(PID.TID 0000.0001) %MON advcfl_uvel_max              =   6.3886062647411E-03
(PID.TID 0000.0001) %MON advcfl_vvel_max              =   4.8389832655925E-03
(PID.TID 0000.0001) %MON advcfl_wvel_max              =   9.0586755586707E-03
(PID.TID 0000.0001) %MON advcfl_W_hf_max              =   7.0299093323962E-03
(PID.TID 0000.0001) %MON pe_b_mean                    =   5.0299691533938E-04
(PID.TID 0000.0001) %MON ke_max                       =   1.6818765263441E+00
(PID.TID 0000.0001) %MON ke_mean                      =   1.8602446158898E-04
(PID.TID 0000.0001) %MON ke_vol                       =   1.3398070917588E+18
(PID.TID 0000.0001) %MON vort_r_min                   =  -5.6349256192889E-06
(PID.TID 0000.0001) %MON vort_r_max                   =   4.3692706884240E-06
(PID.TID 0000.0001) %MON vort_a_mean                  =  -2.0549865324846E-05
(PID.TID 0000.0001) %MON vort_a_sd                    =   7.5259525526973E-05
(PID.TID 0000.0001) %MON vort_p_mean                  =  -2.4783392442236E-05
(PID.TID 0000.0001) %MON vort_p_sd                    =   1.2811925661266E-04
(PID.TID 0000.0001) %MON surfExpan_theta_mean         =  -7.8314169882213E-06
(PID.TID 0000.0001) %MON surfExpan_salt_mean          =   1.4633803665439E-06
(PID.TID 0000.0001) // =======================================================
(PID.TID 0000.0001) // End MONITOR dynamic field statistics
(PID.TID 0000.0001) // =======================================================
 cg2d: Sum(rhs),rhsMax =  -1.84992781025031E+01  6.34013970050822E+01
(PID.TID 0000.0001)      cg2d_init_res =   5.04824020422358E-01
(PID.TID 0000.0001)      cg2d_iters(min,last) =      -1      10
(PID.TID 0000.0001)      cg2d_last_res =   4.01504166249430E-08
(PID.TID 0000.0001) // =======================================================
(PID.TID 0000.0001) // Begin MONITOR dynamic field statistics
(PID.TID 0000.0001) // =======================================================
(PID.TID 0000.0001) %MON time_tsnumber                =                 72011
(PID.TID 0000.0001) %MON time_secondsf                =   6.4809900000000E+07
(PID.TID 0000.0001) %MON dynstat_eta_max              =   2.9863385315754E+00
(PID.TID 0000.0001) %MON dynstat_eta_min              =  -1.8629309035458E+00
(PID.TID 0000.0001) %MON dynstat_eta_mean             =   1.3628710985296E-02
(PID.TID 0000.0001) %MON dynstat_eta_sd               =   6.1251505671830E-01
(PID.TID 0000.0001) %MON dynstat_eta_del2             =   2.4985163090817E-03
(PID.TID 0000.0001) %MON dynstat_uvel_max             =   1.9672800333527E+00
(PID.TID 0000.0001) %MON dynstat_uvel_min             =  -9.5389557818345E-01
(PID.TID 0000.0001) %MON dynstat_uvel_mean            =  -1.8954194943382E-04
(PID.TID 0000.0001) %MON dynstat_uvel_sd              =   1.4158398839768E-02
(PID.TID 0000.0001) %MON dynstat_uvel_del2            =   1.4335314526425E-04
(PID.TID 0000.0001) %MON dynstat_vvel_max             =   1.3635833904102E+00
(PID.TID 0000.0001) %MON dynstat_vvel_min             =  -1.6288476458453E+00
(PID.TID 0000.0001) %MON dynstat_vvel_mean            =  -4.0520971665287E-04
(PID.TID 0000.0001) %MON dynstat_vvel_sd              =   1.4310006241394E-02
(PID.TID 0000.0001) %MON dynstat_vvel_del2            =   1.8028801960212E-04
(PID.TID 0000.0001) %MON dynstat_wvel_max             =   1.0577650065873E-04
(PID.TID 0000.0001) %MON dynstat_wvel_min             =  -5.3653423408754E-04
(PID.TID 0000.0001) %MON dynstat_wvel_mean            =  -4.5773973339446E-07
(PID.TID 0000.0001) %MON dynstat_wvel_sd              =   8.5914575413727E-06
(PID.TID 0000.0001) %MON dynstat_wvel_del2            =   8.0039680069895E-08
(PID.TID 0000.0001) %MON dynstat_theta_max            =   3.0923778644443E+01
(PID.TID 0000.0001) %MON dynstat_theta_min            =  -3.0109677750788E+00
(PID.TID 0000.0001) %MON dynstat_theta_mean           =   3.9090587203011E+00
(PID.TID 0000.0001) %MON dynstat_theta_sd             =   4.5710167461515E+00
(PID.TID 0000.0001) %MON dynstat_theta_del2           =   2.6506056179828E-03
(PID.TID 0000.0001) %MON dynstat_salt_max             =   4.1369943950484E+01
(PID.TID 0000.0001) %MON dynstat_salt_min             =   1.8518480877353E+01
(PID.TID 0000.0001) %MON dynstat_salt_mean            =   3.4772132729295E+01
(PID.TID 0000.0001) %MON dynstat_salt_sd              =   5.3106707234730E-01
(PID.TID 0000.0001) %MON dynstat_salt_del2            =   8.2756472246365E-04
(PID.TID 0000.0001) %MON dynstat_sst_max              =   3.0923778644443E+01
(PID.TID 0000.0001) %MON dynstat_sst_min              =  -1.8995837517538E+00
(PID.TID 0000.0001) %MON dynstat_sst_mean             =   1.8106483458915E+01
(PID.TID 0000.0001) %MON dynstat_sst_sd               =   9.8026194647971E+00
(PID.TID 0000.0001) %MON dynstat_sst_del2             =   1.5227460832837E-02
(PID.TID 0000.0001) %MON dynstat_sss_max              =   4.1369943950484E+01
(PID.TID 0000.0001) %MON dynstat_sss_min              =   1.8751379928610E+01
(PID.TID 0000.0001) %MON dynstat_sss_mean             =   3.4637325793208E+01
(PID.TID 0000.0001) %MON dynstat_sss_sd               =   1.4602393154975E+00
(PID.TID 0000.0001) %MON dynstat_sss_del2             =   8.3998937295900E-03
(PID.TID 0000.0001) %MON forcing_qnet_max             =   3.4032843750000E+04
(PID.TID 0000.0001) %MON forcing_qnet_min             =  -6.6505039062500E+03
(PID.TID 0000.0001) %MON forcing_qnet_mean            =  -1.3732982046838E+02
(PID.TID 0000.0001) %MON forcing_qnet_sd              =   7.0401031368451E+02
(PID.TID 0000.0001) %MON forcing_qnet_del2            =   2.9820388729276E+01
(PID.TID 0000.0001) %MON forcing_qsw_max              =   0.0000000000000E+00
(PID.TID 0000.0001) %MON forcing_qsw_min              =  -4.2693788340201E+02
(PID.TID 0000.0001) %MON forcing_qsw_mean             =  -8.7994274091455E+01
(PID.TID 0000.0001) %MON forcing_qsw_sd               =   1.2131102724075E+02
(PID.TID 0000.0001) %MON forcing_qsw_del2             =   9.4316933431636E-01
(PID.TID 0000.0001) %MON forcing_empmr_max            =   2.8316067531705E-02
(PID.TID 0000.0001) %MON forcing_empmr_min            =  -2.3721954226494E-01
(PID.TID 0000.0001) %MON forcing_empmr_mean           =  -4.8866892097770E-04
(PID.TID 0000.0001) %MON forcing_empmr_sd             =   7.6921207658865E-03
(PID.TID 0000.0001) %MON forcing_empmr_del2           =   3.1123491124634E-04
(PID.TID 0000.0001) %MON forcing_fu_max               =   6.9958149090958E-01
(PID.TID 0000.0001) %MON forcing_fu_min               =  -4.6158516300255E-01
(PID.TID 0000.0001) %MON forcing_fu_mean              =  -4.0468528057967E-03
(PID.TID 0000.0001) %MON forcing_fu_sd                =   7.4642210629722E-02
(PID.TID 0000.0001) %MON forcing_fu_del2              =   7.6754211963393E-04
(PID.TID 0000.0001) %MON forcing_fv_max               =   3.5005743101305E-01
(PID.TID 0000.0001) %MON forcing_fv_min               =  -3.3669629549877E-01
(PID.TID 0000.0001) %MON forcing_fv_mean              =  -1.3118991267167E-02
(PID.TID 0000.0001) %MON forcing_fv_sd                =   7.3486701303984E-02
(PID.TID 0000.0001) %MON forcing_fv_del2              =   6.4649559272171E-04
(PID.TID 0000.0001) %MON trAdv_CFL_u_max              =   6.3868516719724E-03
(PID.TID 0000.0001) %MON trAdv_CFL_v_max              =   8.8115852795516E-03
(PID.TID 0000.0001) %MON trAdv_CFL_w_max              =   6.8815986287249E-03
(PID.TID 0000.0001) %MON advcfl_uvel_max              =   6.5604198129350E-03
(PID.TID 0000.0001) %MON advcfl_vvel_max              =   4.8812807983297E-03
(PID.TID 0000.0001) %MON advcfl_wvel_max              =   8.2511145135631E-03
(PID.TID 0000.0001) %MON advcfl_W_hf_max              =   6.8815986287249E-03
(PID.TID 0000.0001) %MON pe_b_mean                    =   5.0004767329227E-04
(PID.TID 0000.0001) %MON ke_max                       =   1.7231855484724E+00
(PID.TID 0000.0001) %MON ke_mean                      =   1.8718852113202E-04
(PID.TID 0000.0001) %MON ke_vol                       =   1.3398072500437E+18
(PID.TID 0000.0001) %MON vort_r_min                   =  -6.3221200314236E-06
(PID.TID 0000.0001) %MON vort_r_max                   =   4.2055144268610E-06
(PID.TID 0000.0001) %MON vort_a_mean                  =  -2.0549865324846E-05
(PID.TID 0000.0001) %MON vort_a_sd                    =   7.5259523939306E-05
(PID.TID 0000.0001) %MON vort_p_mean                  =  -2.4783388252609E-05
(PID.TID 0000.0001) %MON vort_p_sd                    =   1.2811922176792E-04
(PID.TID 0000.0001) %MON surfExpan_theta_mean         =  -7.7887937467183E-06
(PID.TID 0000.0001) %MON surfExpan_salt_mean          =   1.5197561853264E-06
(PID.TID 0000.0001) // =======================================================
(PID.TID 0000.0001) // End MONITOR dynamic field statistics
(PID.TID 0000.0001) // =======================================================
 Computing Diagnostic #     81  oceTAUX      Counter:       1   Parms: UU      U1      
           Vector  Mate for  oceTAUX      Diagnostic #     82  oceTAUY  exists 
 Computing Diagnostic #     82  oceTAUY      Counter:       1   Parms: VV      U1      
           Vector  Mate for  oceTAUY      Diagnostic #     81  oceTAUX  exists 
 Computing Diagnostic #     85  oceFWflx     Counter:       1   Parms: SM      U1      
 Computing Diagnostic #     86  oceSflux     Counter:       1   Parms: SM      U1      
 Computing Diagnostic #     87  oceQnet      Counter:       1   Parms: SM      U1      
 Computing Diagnostic #     88  oceQsw       Counter:       1   Parms: SM      U1      
 Computing Diagnostic #     27  SALT         Counter:       1   Parms: SMR     MR      
 Computing Diagnostic #     26  THETA        Counter:       1   Parms: SMR     MR      
 Computing Diagnostic #     45  UVELMASS     Counter:       1   Parms: UUr     MR      
           Vector  Mate for  UVELMASS     Diagnostic #     46  VVELMASS exists 
 Computing Diagnostic #     46  VVELMASS     Counter:       1   Parms: VVr     MR      
           Vector  Mate for  VVELMASS     Diagnostic #     45  UVELMASS exists 
 cg2d: Sum(rhs),rhsMax =  -1.93714762050098E+01  6.23988464738588E+01
(PID.TID 0000.0001)      cg2d_init_res =   5.07912241006832E-01
(PID.TID 0000.0001)      cg2d_iters(min,last) =      -1      10
(PID.TID 0000.0001)      cg2d_last_res =   5.05279014620581E-08
(PID.TID 0000.0001) // =======================================================
(PID.TID 0000.0001) // Begin MONITOR dynamic field statistics
(PID.TID 0000.0001) // =======================================================
(PID.TID 0000.0001) %MON time_tsnumber                =                 72012
(PID.TID 0000.0001) %MON time_secondsf                =   6.4810800000000E+07
(PID.TID 0000.0001) %MON dynstat_eta_max              =   2.8681263064481E+00
(PID.TID 0000.0001) %MON dynstat_eta_min              =  -1.6159591802657E+00
(PID.TID 0000.0001) %MON dynstat_eta_mean             =   1.4045605037942E-02
(PID.TID 0000.0001) %MON dynstat_eta_sd               =   6.1137757599308E-01
(PID.TID 0000.0001) %MON dynstat_eta_del2             =   2.4481607179602E-03
(PID.TID 0000.0001) %MON dynstat_uvel_max             =   1.9949478169186E+00
(PID.TID 0000.0001) %MON dynstat_uvel_min             =  -9.7006143194769E-01
(PID.TID 0000.0001) %MON dynstat_uvel_mean            =  -1.6420382915424E-04
(PID.TID 0000.0001) %MON dynstat_uvel_sd              =   1.4217969609736E-02
(PID.TID 0000.0001) %MON dynstat_uvel_del2            =   1.4266892525996E-04
(PID.TID 0000.0001) %MON dynstat_vvel_max             =   1.3417548668429E+00
(PID.TID 0000.0001) %MON dynstat_vvel_min             =  -1.6140986172736E+00
(PID.TID 0000.0001) %MON dynstat_vvel_mean            =  -4.1374924976564E-04
(PID.TID 0000.0001) %MON dynstat_vvel_sd              =   1.4265364516866E-02
(PID.TID 0000.0001) %MON dynstat_vvel_del2            =   1.7319608273122E-04
(PID.TID 0000.0001) %MON dynstat_wvel_max             =   1.0612417151994E-04
(PID.TID 0000.0001) %MON dynstat_wvel_min             =  -5.3486691842075E-04
(PID.TID 0000.0001) %MON dynstat_wvel_mean            =  -4.4844586527216E-07
(PID.TID 0000.0001) %MON dynstat_wvel_sd              =   8.5700843025408E-06
(PID.TID 0000.0001) %MON dynstat_wvel_del2            =   7.9519067302442E-08
(PID.TID 0000.0001) %MON dynstat_theta_max            =   3.0923706039297E+01
(PID.TID 0000.0001) %MON dynstat_theta_min            =  -3.0106812892868E+00
(PID.TID 0000.0001) %MON dynstat_theta_mean           =   3.9090689971332E+00
(PID.TID 0000.0001) %MON dynstat_theta_sd             =   4.5710547239094E+00
(PID.TID 0000.0001) %MON dynstat_theta_del2           =   2.6504024389931E-03
(PID.TID 0000.0001) %MON dynstat_salt_max             =   4.1368983830248E+01
(PID.TID 0000.0001) %MON dynstat_salt_min             =   1.8518490610403E+01
(PID.TID 0000.0001) %MON dynstat_salt_mean            =   3.4772126594151E+01
(PID.TID 0000.0001) %MON dynstat_salt_sd              =   5.3108464781457E-01
(PID.TID 0000.0001) %MON dynstat_salt_del2            =   8.3188467573883E-04
(PID.TID 0000.0001) %MON dynstat_sst_max              =   3.0923706039297E+01
(PID.TID 0000.0001) %MON dynstat_sst_min              =  -1.8995570753958E+00
(PID.TID 0000.0001) %MON dynstat_sst_mean             =   1.8107049172352E+01
(PID.TID 0000.0001) %MON dynstat_sst_sd               =   9.8029290914579E+00
(PID.TID 0000.0001) %MON dynstat_sst_del2             =   1.5221904714046E-02
(PID.TID 0000.0001) %MON dynstat_sss_max              =   4.1368983830248E+01
(PID.TID 0000.0001) %MON dynstat_sss_min              =   1.8751380799326E+01
(PID.TID 0000.0001) %MON dynstat_sss_mean             =   3.4636883847827E+01
(PID.TID 0000.0001) %MON dynstat_sss_sd               =   1.4606667990142E+00
(PID.TID 0000.0001) %MON dynstat_sss_del2             =   8.4667453939128E-03
(PID.TID 0000.0001) %MON forcing_qnet_max             =   3.6493726506290E+03
(PID.TID 0000.0001) %MON forcing_qnet_min             =  -5.7949975585938E+03
(PID.TID 0000.0001) %MON forcing_qnet_mean            =  -1.3177802554207E+02
(PID.TID 0000.0001) %MON forcing_qnet_sd              =   4.0924104967673E+02
(PID.TID 0000.0001) %MON forcing_qnet_del2            =   1.2868553308353E+01
(PID.TID 0000.0001) %MON forcing_qsw_max              =   0.0000000000000E+00
(PID.TID 0000.0001) %MON forcing_qsw_min              =  -4.2761283034961E+02
(PID.TID 0000.0001) %MON forcing_qsw_mean             =  -8.7038056599329E+01
(PID.TID 0000.0001) %MON forcing_qsw_sd               =   1.2060077172380E+02
(PID.TID 0000.0001) %MON forcing_qsw_del2             =   9.4865739842131E-01
(PID.TID 0000.0001) %MON forcing_empmr_max            =   2.7474476024508E-02
(PID.TID 0000.0001) %MON forcing_empmr_min            =  -2.2166812419891E-01
(PID.TID 0000.0001) %MON forcing_empmr_mean           =  -4.7942816054286E-04
(PID.TID 0000.0001) %MON forcing_empmr_sd             =   7.5035864300548E-03
(PID.TID 0000.0001) %MON forcing_empmr_del2           =   3.0391449997084E-04
(PID.TID 0000.0001) %MON forcing_fu_max               =   7.0506740342584E-01
(PID.TID 0000.0001) %MON forcing_fu_min               =  -4.6683066390353E-01
(PID.TID 0000.0001) %MON forcing_fu_mean              =  -3.9347202471851E-03
(PID.TID 0000.0001) %MON forcing_fu_sd                =   7.4491199327181E-02
(PID.TID 0000.0001) %MON forcing_fu_del2              =   7.6883461544353E-04
(PID.TID 0000.0001) %MON forcing_fv_max               =   3.5822992624683E-01
(PID.TID 0000.0001) %MON forcing_fv_min               =  -3.4078981128952E-01
(PID.TID 0000.0001) %MON forcing_fv_mean              =  -1.2904680839963E-02
(PID.TID 0000.0001) %MON forcing_fv_sd                =   7.3370481861858E-02
(PID.TID 0000.0001) %MON forcing_fv_del2              =   6.4605111243025E-04
(PID.TID 0000.0001) %MON trAdv_CFL_u_max              =   6.5020659817480E-03
(PID.TID 0000.0001) %MON trAdv_CFL_v_max              =   8.7865754794550E-03
(PID.TID 0000.0001) %MON trAdv_CFL_w_max              =   6.6699947077545E-03
(PID.TID 0000.0001) %MON advcfl_uvel_max              =   6.6526854143790E-03
(PID.TID 0000.0001) %MON advcfl_vvel_max              =   4.8370813606814E-03
(PID.TID 0000.0001) %MON advcfl_wvel_max              =   7.7101956243100E-03
(PID.TID 0000.0001) %MON advcfl_W_hf_max              =   6.6699947077545E-03
(PID.TID 0000.0001) %MON pe_b_mean                    =   4.9820838538457E-04
(PID.TID 0000.0001) %MON ke_max                       =   1.7077696881800E+00
(PID.TID 0000.0001) %MON ke_mean                      =   1.8737241686713E-04
(PID.TID 0000.0001) %MON ke_vol                       =   1.3398074046699E+18
(PID.TID 0000.0001) %MON vort_r_min                   =  -6.9527045330509E-06
(PID.TID 0000.0001) %MON vort_r_max                   =   3.9481346927262E-06
(PID.TID 0000.0001) %MON vort_a_mean                  =  -2.0549865324846E-05
(PID.TID 0000.0001) %MON vort_a_sd                    =   7.5259522209044E-05
(PID.TID 0000.0001) %MON vort_p_mean                  =  -2.4783384220368E-05
(PID.TID 0000.0001) %MON vort_p_sd                    =   1.2811919418977E-04
(PID.TID 0000.0001) %MON surfExpan_theta_mean         =  -7.7439815467854E-06
(PID.TID 0000.0001) %MON surfExpan_salt_mean          =   1.5612238159232E-06
(PID.TID 0000.0001) // =======================================================
(PID.TID 0000.0001) // End MONITOR dynamic field statistics
(PID.TID 0000.0001) // =======================================================
 cg2d: Sum(rhs),rhsMax =  -1.81583614191471E+01  6.85127258430393E+01
(PID.TID 0000.0001)      cg2d_init_res =   4.51169782344730E-01
(PID.TID 0000.0001)      cg2d_iters(min,last) =      -1      10
(PID.TID 0000.0001)      cg2d_last_res =   5.16347189405157E-08
(PID.TID 0000.0001) // =======================================================
(PID.TID 0000.0001) // Begin MONITOR dynamic field statistics
(PID.TID 0000.0001) // =======================================================
(PID.TID 0000.0001) %MON time_tsnumber                =                 72013
(PID.TID 0000.0001) %MON time_secondsf                =   6.4811700000000E+07
(PID.TID 0000.0001) %MON dynstat_eta_max              =   3.1440007690273E+00
(PID.TID 0000.0001) %MON dynstat_eta_min              =  -1.6137915924559E+00
(PID.TID 0000.0001) %MON dynstat_eta_mean             =   1.4456031165337E-02
(PID.TID 0000.0001) %MON dynstat_eta_sd               =   6.1096575932897E-01
(PID.TID 0000.0001) %MON dynstat_eta_del2             =   2.5203485497282E-03
(PID.TID 0000.0001) %MON dynstat_uvel_max             =   1.9999035978482E+00
(PID.TID 0000.0001) %MON dynstat_uvel_min             =  -9.7667917784736E-01
(PID.TID 0000.0001) %MON dynstat_uvel_mean            =  -1.3997755332652E-04
(PID.TID 0000.0001) %MON dynstat_uvel_sd              =   1.4229551881861E-02
(PID.TID 0000.0001) %MON dynstat_uvel_del2            =   1.4079386766338E-04
(PID.TID 0000.0001) %MON dynstat_vvel_max             =   1.3031762438885E+00
(PID.TID 0000.0001) %MON dynstat_vvel_min             =  -1.5717850779516E+00
(PID.TID 0000.0001) %MON dynstat_vvel_mean            =  -4.2117485387580E-04
(PID.TID 0000.0001) %MON dynstat_vvel_sd              =   1.4191722630657E-02
(PID.TID 0000.0001) %MON dynstat_vvel_del2            =   1.6461934531852E-04
(PID.TID 0000.0001) %MON dynstat_wvel_max             =   1.0824463853153E-04
(PID.TID 0000.0001) %MON dynstat_wvel_min             =  -5.5214387938063E-04
(PID.TID 0000.0001) %MON dynstat_wvel_mean            =  -4.3656901984037E-07
(PID.TID 0000.0001) %MON dynstat_wvel_sd              =   8.5663981802074E-06
(PID.TID 0000.0001) %MON dynstat_wvel_del2            =   7.9450539000821E-08
(PID.TID 0000.0001) %MON dynstat_theta_max            =   3.0923732928203E+01
(PID.TID 0000.0001) %MON dynstat_theta_min            =  -3.0103879143170E+00
(PID.TID 0000.0001) %MON dynstat_theta_mean           =   3.9090786293078E+00
(PID.TID 0000.0001) %MON dynstat_theta_sd             =   4.5710905675196E+00
(PID.TID 0000.0001) %MON dynstat_theta_del2           =   2.6502490070922E-03
(PID.TID 0000.0001) %MON dynstat_salt_max             =   4.1368032082345E+01
(PID.TID 0000.0001) %MON dynstat_salt_min             =   1.8518500393551E+01
(PID.TID 0000.0001) %MON dynstat_salt_mean            =   3.4772120620700E+01
(PID.TID 0000.0001) %MON dynstat_salt_sd              =   5.3110273279620E-01
(PID.TID 0000.0001) %MON dynstat_salt_del2            =   8.3641880348503E-04
(PID.TID 0000.0001) %MON dynstat_sst_max              =   3.0923732928203E+01
(PID.TID 0000.0001) %MON dynstat_sst_min              =  -1.8995326753914E+00
(PID.TID 0000.0001) %MON dynstat_sst_mean             =   1.8107570442718E+01
(PID.TID 0000.0001) %MON dynstat_sst_sd               =   9.8032406257276E+00
(PID.TID 0000.0001) %MON dynstat_sst_del2             =   1.5218236404218E-02
(PID.TID 0000.0001) %MON dynstat_sss_max              =   4.1368032082345E+01
(PID.TID 0000.0001) %MON dynstat_sss_min              =   1.8751381613216E+01
(PID.TID 0000.0001) %MON dynstat_sss_mean             =   3.4636453968943E+01
(PID.TID 0000.0001) %MON dynstat_sss_sd               =   1.4611119635576E+00
(PID.TID 0000.0001) %MON dynstat_sss_del2             =   8.5368327524523E-03
(PID.TID 0000.0001) %MON forcing_qnet_max             =   3.5990130809298E+03
(PID.TID 0000.0001) %MON forcing_qnet_min             =  -3.0917233886719E+03
(PID.TID 0000.0001) %MON forcing_qnet_mean            =  -1.2142515814343E+02
(PID.TID 0000.0001) %MON forcing_qnet_sd              =   3.8113159338732E+02
(PID.TID 0000.0001) %MON forcing_qnet_del2            =   1.1297698301357E+01
(PID.TID 0000.0001) %MON forcing_qsw_max              =   0.0000000000000E+00
(PID.TID 0000.0001) %MON forcing_qsw_min              =  -4.2402333884969E+02
(PID.TID 0000.0001) %MON forcing_qsw_mean             =  -8.6168907305514E+01
(PID.TID 0000.0001) %MON forcing_qsw_sd               =   1.2024069375001E+02
(PID.TID 0000.0001) %MON forcing_qsw_del2             =   9.7867008953840E-01
(PID.TID 0000.0001) %MON forcing_empmr_max            =   2.6084296405315E-02
(PID.TID 0000.0001) %MON forcing_empmr_min            =  -2.0909832417965E-01
(PID.TID 0000.0001) %MON forcing_empmr_mean           =  -4.7199004650397E-04
(PID.TID 0000.0001) %MON forcing_empmr_sd             =   7.3488980965757E-03
(PID.TID 0000.0001) %MON forcing_empmr_del2           =   2.9795617635002E-04
(PID.TID 0000.0001) %MON forcing_fu_max               =   6.9638982776425E-01
(PID.TID 0000.0001) %MON forcing_fu_min               =  -4.6631774304928E-01
(PID.TID 0000.0001) %MON forcing_fu_mean              =  -3.7657010072553E-03
(PID.TID 0000.0001) %MON forcing_fu_sd                =   7.4457457434529E-02
(PID.TID 0000.0001) %MON forcing_fu_del2              =   7.6539680235346E-04
(PID.TID 0000.0001) %MON forcing_fv_max               =   3.5251269123383E-01
(PID.TID 0000.0001) %MON forcing_fv_min               =  -3.4363732079984E-01
(PID.TID 0000.0001) %MON forcing_fv_mean              =  -1.2716352936852E-02
(PID.TID 0000.0001) %MON forcing_fv_sd                =   7.3128207207099E-02
(PID.TID 0000.0001) %MON forcing_fv_del2              =   6.4454137627677E-04
(PID.TID 0000.0001) %MON trAdv_CFL_u_max              =   6.5411990768276E-03
(PID.TID 0000.0001) %MON trAdv_CFL_v_max              =   8.6163009175261E-03
(PID.TID 0000.0001) %MON trAdv_CFL_w_max              =   6.4162305640523E-03
(PID.TID 0000.0001) %MON advcfl_uvel_max              =   6.6692117872632E-03
(PID.TID 0000.0001) %MON advcfl_vvel_max              =   4.7102774404199E-03
(PID.TID 0000.0001) %MON advcfl_wvel_max              =   7.2729851888574E-03
(PID.TID 0000.0001) %MON advcfl_W_hf_max              =   6.4162305640523E-03
(PID.TID 0000.0001) %MON pe_b_mean                    =   4.9755331813812E-04
(PID.TID 0000.0001) %MON ke_max                       =   1.6390819049775E+00
(PID.TID 0000.0001) %MON ke_mean                      =   1.8655100227382E-04
(PID.TID 0000.0001) %MON ke_vol                       =   1.3398075563722E+18
(PID.TID 0000.0001) %MON vort_r_min                   =  -7.5094262291728E-06
(PID.TID 0000.0001) %MON vort_r_max                   =   3.6060378287545E-06
(PID.TID 0000.0001) %MON vort_a_mean                  =  -2.0549865324846E-05
(PID.TID 0000.0001) %MON vort_a_sd                    =   7.5259520480304E-05
(PID.TID 0000.0001) %MON vort_p_mean                  =  -2.4783380343279E-05
(PID.TID 0000.0001) %MON vort_p_sd                    =   1.2811917433166E-04
(PID.TID 0000.0001) %MON surfExpan_theta_mean         =  -7.6977228395590E-06
(PID.TID 0000.0001) %MON surfExpan_salt_mean          =   1.5875482446325E-06
(PID.TID 0000.0001) // =======================================================
(PID.TID 0000.0001) // End MONITOR dynamic field statistics
(PID.TID 0000.0001) // =======================================================
 cg2d: Sum(rhs),rhsMax =  -1.72706718114497E+01  7.40537830133177E+01
(PID.TID 0000.0001)      cg2d_init_res =   3.97721665449741E-01
(PID.TID 0000.0001)      cg2d_iters(min,last) =      -1      10
(PID.TID 0000.0001)      cg2d_last_res =   4.64205541428872E-08
(PID.TID 0000.0001) // =======================================================
(PID.TID 0000.0001) // Begin MONITOR dynamic field statistics
(PID.TID 0000.0001) // =======================================================
(PID.TID 0000.0001) %MON time_tsnumber                =                 72014
(PID.TID 0000.0001) %MON time_secondsf                =   6.4812600000000E+07
(PID.TID 0000.0001) %MON dynstat_eta_max              =   3.3940045651271E+00
(PID.TID 0000.0001) %MON dynstat_eta_min              =  -1.6115944425268E+00
(PID.TID 0000.0001) %MON dynstat_eta_mean             =   1.4861329179954E-02
(PID.TID 0000.0001) %MON dynstat_eta_sd               =   6.1124106788885E-01
(PID.TID 0000.0001) %MON dynstat_eta_del2             =   2.6851899244779E-03
(PID.TID 0000.0001) %MON dynstat_uvel_max             =   1.9831518148212E+00
(PID.TID 0000.0001) %MON dynstat_uvel_min             =  -9.7418262142102E-01
(PID.TID 0000.0001) %MON dynstat_uvel_mean            =  -1.1661078956116E-04
(PID.TID 0000.0001) %MON dynstat_uvel_sd              =   1.4191514065810E-02
(PID.TID 0000.0001) %MON dynstat_uvel_del2            =   1.3779166567438E-04
(PID.TID 0000.0001) %MON dynstat_vvel_max             =   1.2457493687047E+00
(PID.TID 0000.0001) %MON dynstat_vvel_min             =  -1.5036837485117E+00
(PID.TID 0000.0001) %MON dynstat_vvel_mean            =  -4.2702786864312E-04
(PID.TID 0000.0001) %MON dynstat_vvel_sd              =   1.4098336598167E-02
(PID.TID 0000.0001) %MON dynstat_vvel_del2            =   1.5506398122151E-04
(PID.TID 0000.0001) %MON dynstat_wvel_max             =   1.0685883381667E-04
(PID.TID 0000.0001) %MON dynstat_wvel_min             =  -5.5963043079682E-04
(PID.TID 0000.0001) %MON dynstat_wvel_mean            =  -4.2333505396021E-07
(PID.TID 0000.0001) %MON dynstat_wvel_sd              =   8.5584815111339E-06
(PID.TID 0000.0001) %MON dynstat_wvel_del2            =   7.9590512263657E-08
(PID.TID 0000.0001) %MON dynstat_theta_max            =   3.0923798306413E+01
(PID.TID 0000.0001) %MON dynstat_theta_min            =  -3.0100568785239E+00
(PID.TID 0000.0001) %MON dynstat_theta_mean           =   3.9090876932349E+00
(PID.TID 0000.0001) %MON dynstat_theta_sd             =   4.5711245049460E+00
(PID.TID 0000.0001) %MON dynstat_theta_del2           =   2.6501023099991E-03
(PID.TID 0000.0001) %MON dynstat_salt_max             =   4.1367098099198E+01
(PID.TID 0000.0001) %MON dynstat_salt_min             =   1.8518510215392E+01
(PID.TID 0000.0001) %MON dynstat_salt_mean            =   3.4772114793739E+01
(PID.TID 0000.0001) %MON dynstat_salt_sd              =   5.3112114446787E-01
(PID.TID 0000.0001) %MON dynstat_salt_del2            =   8.4113382697699E-04
(PID.TID 0000.0001) %MON dynstat_sst_max              =   3.0923798306413E+01
(PID.TID 0000.0001) %MON dynstat_sst_min              =  -1.8995101885666E+00
(PID.TID 0000.0001) %MON dynstat_sst_mean             =   1.8108052531815E+01
(PID.TID 0000.0001) %MON dynstat_sst_sd               =   9.8035483001848E+00
(PID.TID 0000.0001) %MON dynstat_sst_del2             =   1.5214786796455E-02
(PID.TID 0000.0001) %MON dynstat_sss_max              =   4.1367098099198E+01
(PID.TID 0000.0001) %MON dynstat_sss_min              =   1.8751382474274E+01
(PID.TID 0000.0001) %MON dynstat_sss_mean             =   3.4636034221783E+01
(PID.TID 0000.0001) %MON dynstat_sss_sd               =   1.4615677506892E+00
(PID.TID 0000.0001) %MON dynstat_sss_del2             =   8.6094988236358E-03
(PID.TID 0000.0001) %MON forcing_qnet_max             =   3.5498982432165E+03
(PID.TID 0000.0001) %MON forcing_qnet_min             =  -3.7553806152344E+03
(PID.TID 0000.0001) %MON forcing_qnet_mean            =  -1.1231692988928E+02
(PID.TID 0000.0001) %MON forcing_qnet_sd              =   3.7184770200607E+02
(PID.TID 0000.0001) %MON forcing_qnet_del2            =   1.0922005165019E+01
(PID.TID 0000.0001) %MON forcing_qsw_max              =   0.0000000000000E+00
(PID.TID 0000.0001) %MON forcing_qsw_min              =  -4.2110126354389E+02
(PID.TID 0000.0001) %MON forcing_qsw_mean             =  -8.5320242194892E+01
(PID.TID 0000.0001) %MON forcing_qsw_sd               =   1.1950328460449E+02
(PID.TID 0000.0001) %MON forcing_qsw_del2             =   9.8934667734504E-01
(PID.TID 0000.0001) %MON forcing_empmr_max            =   2.3818876594305E-02
(PID.TID 0000.0001) %MON forcing_empmr_min            =  -1.9887997210026E-01
(PID.TID 0000.0001) %MON forcing_empmr_mean           =  -4.6609271680985E-04
(PID.TID 0000.0001) %MON forcing_empmr_sd             =   7.2242099035073E-03
(PID.TID 0000.0001) %MON forcing_empmr_del2           =   2.9330021497090E-04
(PID.TID 0000.0001) %MON forcing_fu_max               =   6.8748252997899E-01
(PID.TID 0000.0001) %MON forcing_fu_min               =  -4.6021976756690E-01
(PID.TID 0000.0001) %MON forcing_fu_mean              =  -3.5929252639322E-03
(PID.TID 0000.0001) %MON forcing_fu_sd                =   7.4400735366037E-02
(PID.TID 0000.0001) %MON forcing_fu_del2              =   7.6159006610225E-04
(PID.TID 0000.0001) %MON forcing_fv_max               =   3.4271716934001E-01
(PID.TID 0000.0001) %MON forcing_fv_min               =  -3.4602812444137E-01
(PID.TID 0000.0001) %MON forcing_fv_mean              =  -1.2523503637261E-02
(PID.TID 0000.0001) %MON forcing_fv_sd                =   7.2855549479868E-02
(PID.TID 0000.0001) %MON forcing_fv_del2              =   6.4238607804051E-04
(PID.TID 0000.0001) %MON trAdv_CFL_u_max              =   6.5070055051110E-03
(PID.TID 0000.0001) %MON trAdv_CFL_v_max              =   8.3065343927530E-03
(PID.TID 0000.0001) %MON trAdv_CFL_w_max              =   6.1370552729420E-03
(PID.TID 0000.0001) %MON advcfl_uvel_max              =   6.6133485001820E-03
(PID.TID 0000.0001) %MON advcfl_vvel_max              =   4.5061934595863E-03
(PID.TID 0000.0001) %MON advcfl_wvel_max              =   6.9175642469655E-03
(PID.TID 0000.0001) %MON advcfl_W_hf_max              =   6.1370552729420E-03
(PID.TID 0000.0001) %MON pe_b_mean                    =   4.9801734910123E-04
(PID.TID 0000.0001) %MON ke_max                       =   1.5239052641413E+00
(PID.TID 0000.0001) %MON ke_mean                      =   1.8482819552032E-04
(PID.TID 0000.0001) %MON ke_vol                       =   1.3398077057208E+18
(PID.TID 0000.0001) %MON vort_r_min                   =  -7.9775379983039E-06
(PID.TID 0000.0001) %MON vort_r_max                   =   3.1892139824728E-06
(PID.TID 0000.0001) %MON vort_a_mean                  =  -2.0549865324846E-05
(PID.TID 0000.0001) %MON vort_a_sd                    =   7.5259518894148E-05
(PID.TID 0000.0001) %MON vort_p_mean                  =  -2.4783376620391E-05
(PID.TID 0000.0001) %MON vort_p_sd                    =   1.2811916216700E-04
(PID.TID 0000.0001) %MON surfExpan_theta_mean         =  -7.6549727618103E-06
(PID.TID 0000.0001) %MON surfExpan_salt_mean          =   1.6025552786902E-06
(PID.TID 0000.0001) // =======================================================
(PID.TID 0000.0001) // End MONITOR dynamic field statistics
(PID.TID 0000.0001) // =======================================================
 cg2d: Sum(rhs),rhsMax =  -1.66459924600303E+01  7.89070709429118E+01
(PID.TID 0000.0001)      cg2d_init_res =   3.46654372938601E-01
(PID.TID 0000.0001)      cg2d_iters(min,last) =      -1      10
(PID.TID 0000.0001)      cg2d_last_res =   4.18751238708901E-08
(PID.TID 0000.0001) // =======================================================
(PID.TID 0000.0001) // Begin MONITOR dynamic field statistics
(PID.TID 0000.0001) // =======================================================
(PID.TID 0000.0001) %MON time_tsnumber                =                 72015
(PID.TID 0000.0001) %MON time_secondsf                =   6.4813500000000E+07
(PID.TID 0000.0001) %MON dynstat_eta_max              =   3.6129277226217E+00
(PID.TID 0000.0001) %MON dynstat_eta_min              =  -1.8016730842373E+00
(PID.TID 0000.0001) %MON dynstat_eta_mean             =   1.5262539092684E-02
(PID.TID 0000.0001) %MON dynstat_eta_sd               =   6.1207715679423E-01
(PID.TID 0000.0001) %MON dynstat_eta_del2             =   2.9025232280404E-03
(PID.TID 0000.0001) %MON dynstat_uvel_max             =   1.9455238784433E+00
(PID.TID 0000.0001) %MON dynstat_uvel_min             =  -9.6311293360629E-01
(PID.TID 0000.0001) %MON dynstat_uvel_mean            =  -9.3986233020838E-05
(PID.TID 0000.0001) %MON dynstat_uvel_sd              =   1.4109642235073E-02
(PID.TID 0000.0001) %MON dynstat_uvel_del2            =   1.3381646253031E-04
(PID.TID 0000.0001) %MON dynstat_vvel_max             =   1.1714188768190E+00
(PID.TID 0000.0001) %MON dynstat_vvel_min             =  -1.4119884394120E+00
(PID.TID 0000.0001) %MON dynstat_vvel_mean            =  -4.3110957816039E-04
(PID.TID 0000.0001) %MON dynstat_vvel_sd              =   1.3996232688161E-02
(PID.TID 0000.0001) %MON dynstat_vvel_del2            =   1.4503748871157E-04
(PID.TID 0000.0001) %MON dynstat_wvel_max             =   1.1684294019191E-04
(PID.TID 0000.0001) %MON dynstat_wvel_min             =  -5.5629525528640E-04
(PID.TID 0000.0001) %MON dynstat_wvel_mean            =  -4.0982841384402E-07
(PID.TID 0000.0001) %MON dynstat_wvel_sd              =   8.5591008833103E-06
(PID.TID 0000.0001) %MON dynstat_wvel_del2            =   7.9787453758525E-08
(PID.TID 0000.0001) %MON dynstat_theta_max            =   3.0923900778327E+01
(PID.TID 0000.0001) %MON dynstat_theta_min            =  -3.0096732394423E+00
(PID.TID 0000.0001) %MON dynstat_theta_mean           =   3.9090961435508E+00
(PID.TID 0000.0001) %MON dynstat_theta_sd             =   4.5711562748748E+00
(PID.TID 0000.0001) %MON dynstat_theta_del2           =   2.6499562767620E-03
(PID.TID 0000.0001) %MON dynstat_salt_max             =   4.1366190071717E+01
(PID.TID 0000.0001) %MON dynstat_salt_min             =   1.8518520062764E+01
(PID.TID 0000.0001) %MON dynstat_salt_mean            =   3.4772109086471E+01
(PID.TID 0000.0001) %MON dynstat_salt_sd              =   5.3113983700353E-01
(PID.TID 0000.0001) %MON dynstat_salt_del2            =   8.4600028058217E-04
(PID.TID 0000.0001) %MON dynstat_sst_max              =   3.0923900778327E+01
(PID.TID 0000.0001) %MON dynstat_sst_min              =  -1.8994879997414E+00
(PID.TID 0000.0001) %MON dynstat_sst_mean             =   1.8108489531818E+01
(PID.TID 0000.0001) %MON dynstat_sst_sd               =   9.8038436147449E+00
(PID.TID 0000.0001) %MON dynstat_sst_del2             =   1.5211459848632E-02
(PID.TID 0000.0001) %MON dynstat_sss_max              =   4.1366190071717E+01
(PID.TID 0000.0001) %MON dynstat_sss_min              =   1.8751383222366E+01
(PID.TID 0000.0001) %MON dynstat_sss_mean             =   3.4635621291064E+01
(PID.TID 0000.0001) %MON dynstat_sss_sd               =   1.4620293583139E+00
(PID.TID 0000.0001) %MON dynstat_sss_del2             =   8.6843248391072E-03
(PID.TID 0000.0001) %MON forcing_qnet_max             =   3.5030082441903E+03
(PID.TID 0000.0001) %MON forcing_qnet_min             =  -3.6735454101562E+03
(PID.TID 0000.0001) %MON forcing_qnet_mean            =  -1.0241272367050E+02
(PID.TID 0000.0001) %MON forcing_qnet_sd              =   3.6327904910307E+02
(PID.TID 0000.0001) %MON forcing_qnet_del2            =   1.0401543075775E+01
(PID.TID 0000.0001) %MON forcing_qsw_max              =   0.0000000000000E+00
(PID.TID 0000.0001) %MON forcing_qsw_min              =  -4.2232265321053E+02
(PID.TID 0000.0001) %MON forcing_qsw_mean             =  -8.4243177294735E+01
(PID.TID 0000.0001) %MON forcing_qsw_sd               =   1.1853500517611E+02
(PID.TID 0000.0001) %MON forcing_qsw_del2             =   9.9891440830642E-01
(PID.TID 0000.0001) %MON forcing_empmr_max            =   2.0183442160487E-02
(PID.TID 0000.0001) %MON forcing_empmr_min            =  -1.8994848430157E-01
(PID.TID 0000.0001) %MON forcing_empmr_mean           =  -4.6139139963937E-04
(PID.TID 0000.0001) %MON forcing_empmr_sd             =   7.1067963322745E-03
(PID.TID 0000.0001) %MON forcing_empmr_del2           =   2.8884568223907E-04
(PID.TID 0000.0001) %MON forcing_fu_max               =   6.7262334113778E-01
(PID.TID 0000.0001) %MON forcing_fu_min               =  -4.5073879816744E-01
(PID.TID 0000.0001) %MON forcing_fu_mean              =  -3.5082238301387E-03
(PID.TID 0000.0001) %MON forcing_fu_sd                =   7.3996151017348E-02
(PID.TID 0000.0001) %MON forcing_fu_del2              =   7.5552813089210E-04
(PID.TID 0000.0001) %MON forcing_fv_max               =   3.3204333532601E-01
(PID.TID 0000.0001) %MON forcing_fv_min               =  -3.5051315719807E-01
(PID.TID 0000.0001) %MON forcing_fv_mean              =  -1.2327697001273E-02
(PID.TID 0000.0001) %MON forcing_fv_sd                =   7.2465259709264E-02
(PID.TID 0000.0001) %MON forcing_fv_del2              =   6.3980094745937E-04
(PID.TID 0000.0001) %MON trAdv_CFL_u_max              =   6.4020021536469E-03
(PID.TID 0000.0001) %MON trAdv_CFL_v_max              =   7.8655593354878E-03
(PID.TID 0000.0001) %MON trAdv_CFL_w_max              =   5.8446331545510E-03
(PID.TID 0000.0001) %MON advcfl_uvel_max              =   6.4878681134814E-03
(PID.TID 0000.0001) %MON advcfl_vvel_max              =   4.2314037622520E-03
(PID.TID 0000.0001) %MON advcfl_wvel_max              =   6.6069038017936E-03
(PID.TID 0000.0001) %MON advcfl_W_hf_max              =   5.8446331545510E-03
(PID.TID 0000.0001) %MON pe_b_mean                    =   4.9939595182774E-04
(PID.TID 0000.0001) %MON ke_max                       =   1.3716437527875E+00
(PID.TID 0000.0001) %MON ke_mean                      =   1.8243231644891E-04
(PID.TID 0000.0001) %MON ke_vol                       =   1.3398078532033E+18
(PID.TID 0000.0001) %MON vort_r_min                   =  -8.3450363885700E-06
(PID.TID 0000.0001) %MON vort_r_max                   =   3.1187935738099E-06
(PID.TID 0000.0001) %MON vort_a_mean                  =  -2.0549865324846E-05
(PID.TID 0000.0001) %MON vort_a_sd                    =   7.5259517558892E-05
(PID.TID 0000.0001) %MON vort_p_mean                  =  -2.4783373047547E-05
(PID.TID 0000.0001) %MON vort_p_sd                    =   1.2811915692838E-04
(PID.TID 0000.0001) %MON surfExpan_theta_mean         =  -7.6205980073818E-06
(PID.TID 0000.0001) %MON surfExpan_salt_mean          =   1.6058625281763E-06
(PID.TID 0000.0001) // =======================================================
(PID.TID 0000.0001) // End MONITOR dynamic field statistics
(PID.TID 0000.0001) // =======================================================
 Computing Diagnostic #     81  oceTAUX      Counter:       1   Parms: UU      U1      
           Vector  Mate for  oceTAUX      Diagnostic #     82  oceTAUY  exists 
 Computing Diagnostic #     82  oceTAUY      Counter:       1   Parms: VV      U1      
           Vector  Mate for  oceTAUY      Diagnostic #     81  oceTAUX  exists 
 Computing Diagnostic #     85  oceFWflx     Counter:       1   Parms: SM      U1      
 Computing Diagnostic #     86  oceSflux     Counter:       1   Parms: SM      U1      
 Computing Diagnostic #     87  oceQnet      Counter:       1   Parms: SM      U1      
 Computing Diagnostic #     88  oceQsw       Counter:       1   Parms: SM      U1      
 Computing Diagnostic #     27  SALT         Counter:       1   Parms: SMR     MR      
 Computing Diagnostic #     26  THETA        Counter:       1   Parms: SMR     MR      
 Computing Diagnostic #     45  UVELMASS     Counter:       1   Parms: UUr     MR      
           Vector  Mate for  UVELMASS     Diagnostic #     46  VVELMASS exists 
 Computing Diagnostic #     46  VVELMASS     Counter:       1   Parms: VVr     MR      
           Vector  Mate for  VVELMASS     Diagnostic #     45  UVELMASS exists 
 cg2d: Sum(rhs),rhsMax =  -1.62424646603138E+01  8.29762831864599E+01
(PID.TID 0000.0001)      cg2d_init_res =   2.99555380953128E-01
(PID.TID 0000.0001)      cg2d_iters(min,last) =      -1      10
(PID.TID 0000.0001)      cg2d_last_res =   4.24355482663841E-08
(PID.TID 0000.0001) // =======================================================
(PID.TID 0000.0001) // Begin MONITOR dynamic field statistics
(PID.TID 0000.0001) // =======================================================
(PID.TID 0000.0001) %MON time_tsnumber                =                 72016
(PID.TID 0000.0001) %MON time_secondsf                =   6.4814400000000E+07
(PID.TID 0000.0001) %MON dynstat_eta_max              =   3.7964000062427E+00
(PID.TID 0000.0001) %MON dynstat_eta_min              =  -2.0092082360326E+00
(PID.TID 0000.0001) %MON dynstat_eta_mean             =   1.5660552544910E-02
(PID.TID 0000.0001) %MON dynstat_eta_sd               =   6.1329054576832E-01
(PID.TID 0000.0001) %MON dynstat_eta_del2             =   3.1338775086703E-03
(PID.TID 0000.0001) %MON dynstat_uvel_max             =   1.8877035612914E+00
(PID.TID 0000.0001) %MON dynstat_uvel_min             =  -9.4410448439742E-01
(PID.TID 0000.0001) %MON dynstat_uvel_mean            =  -7.2112802695250E-05
(PID.TID 0000.0001) %MON dynstat_uvel_sd              =   1.3995379475433E-02
(PID.TID 0000.0001) %MON dynstat_uvel_del2            =   1.2910553407259E-04
(PID.TID 0000.0001) %MON dynstat_vvel_max             =   1.0823336434426E+00
(PID.TID 0000.0001) %MON dynstat_vvel_min             =  -1.2992424088939E+00
(PID.TID 0000.0001) %MON dynstat_vvel_mean            =  -4.3349033156858E-04
(PID.TID 0000.0001) %MON dynstat_vvel_sd              =   1.3896818139679E-02
(PID.TID 0000.0001) %MON dynstat_vvel_del2            =   1.3505948723103E-04
(PID.TID 0000.0001) %MON dynstat_wvel_max             =   1.2749645075918E-04
(PID.TID 0000.0001) %MON dynstat_wvel_min             =  -5.4176985507833E-04
(PID.TID 0000.0001) %MON dynstat_wvel_mean            =  -3.9627069562125E-07
(PID.TID 0000.0001) %MON dynstat_wvel_sd              =   8.5965873626356E-06
(PID.TID 0000.0001) %MON dynstat_wvel_del2            =   8.0133689845127E-08
(PID.TID 0000.0001) %MON dynstat_theta_max            =   3.0924039998730E+01
(PID.TID 0000.0001) %MON dynstat_theta_min            =  -3.0092378813626E+00
(PID.TID 0000.0001) %MON dynstat_theta_mean           =   3.9091036958998E+00
(PID.TID 0000.0001) %MON dynstat_theta_sd             =   4.5711860080786E+00
(PID.TID 0000.0001) %MON dynstat_theta_del2           =   2.6497872478543E-03
(PID.TID 0000.0001) %MON dynstat_salt_max             =   4.1365314996416E+01
(PID.TID 0000.0001) %MON dynstat_salt_min             =   1.8518529922802E+01
(PID.TID 0000.0001) %MON dynstat_salt_mean            =   3.4772103473130E+01
(PID.TID 0000.0001) %MON dynstat_salt_sd              =   5.3115889063959E-01
(PID.TID 0000.0001) %MON dynstat_salt_del2            =   8.5100024627986E-04
(PID.TID 0000.0001) %MON dynstat_sst_max              =   3.0924039998730E+01
(PID.TID 0000.0001) %MON dynstat_sst_min              =  -1.8994666334037E+00
(PID.TID 0000.0001) %MON dynstat_sst_mean             =   1.8108860082099E+01
(PID.TID 0000.0001) %MON dynstat_sst_sd               =   9.8041635882599E+00
(PID.TID 0000.0001) %MON dynstat_sst_del2             =   1.5207467976572E-02
(PID.TID 0000.0001) %MON dynstat_sss_max              =   4.1365314996416E+01
(PID.TID 0000.0001) %MON dynstat_sss_min              =   1.8751383975908E+01
(PID.TID 0000.0001) %MON dynstat_sss_mean             =   3.4635213564379E+01
(PID.TID 0000.0001) %MON dynstat_sss_sd               =   1.4625003129101E+00
(PID.TID 0000.0001) %MON dynstat_sss_del2             =   8.7610010658928E-03
(PID.TID 0000.0001) %MON forcing_qnet_max             =   2.2006385157400E+04
(PID.TID 0000.0001) %MON forcing_qnet_min             =  -2.1837777787377E+03
(PID.TID 0000.0001) %MON forcing_qnet_mean            =  -8.7668477753586E+01
(PID.TID 0000.0001) %MON forcing_qnet_sd              =   4.8895864735468E+02
(PID.TID 0000.0001) %MON forcing_qnet_del2            =   1.5727817448407E+01
(PID.TID 0000.0001) %MON forcing_qsw_max              =   0.0000000000000E+00
(PID.TID 0000.0001) %MON forcing_qsw_min              =  -4.2746014360063E+02
(PID.TID 0000.0001) %MON forcing_qsw_mean             =  -8.2919838382617E+01
(PID.TID 0000.0001) %MON forcing_qsw_sd               =   1.1736401365243E+02
(PID.TID 0000.0001) %MON forcing_qsw_del2             =   1.0072450481313E+00
(PID.TID 0000.0001) %MON forcing_empmr_max            =   1.4707808382809E-02
(PID.TID 0000.0001) %MON forcing_empmr_min            =  -1.8181125819683E-01
(PID.TID 0000.0001) %MON forcing_empmr_mean           =  -4.5771547005998E-04
(PID.TID 0000.0001) %MON forcing_empmr_sd             =   7.0046534981119E-03
(PID.TID 0000.0001) %MON forcing_empmr_del2           =   2.8520576693091E-04
(PID.TID 0000.0001) %MON forcing_fu_max               =   6.6128524159948E-01
(PID.TID 0000.0001) %MON forcing_fu_min               =  -4.4266629345447E-01
(PID.TID 0000.0001) %MON forcing_fu_mean              =  -3.4220987949266E-03
(PID.TID 0000.0001) %MON forcing_fu_sd                =   7.3582670751778E-02
(PID.TID 0000.0001) %MON forcing_fu_del2              =   7.4939482232346E-04
(PID.TID 0000.0001) %MON forcing_fv_max               =   3.2578004947314E-01
(PID.TID 0000.0001) %MON forcing_fv_min               =  -3.5382461018082E-01
(PID.TID 0000.0001) %MON forcing_fv_mean              =  -1.2142165129828E-02
(PID.TID 0000.0001) %MON forcing_fv_sd                =   7.2073797467449E-02
(PID.TID 0000.0001) %MON forcing_fv_del2              =   6.3613555709790E-04
(PID.TID 0000.0001) %MON trAdv_CFL_u_max              =   6.2284053700173E-03
(PID.TID 0000.0001) %MON trAdv_CFL_v_max              =   7.3041548667069E-03
(PID.TID 0000.0001) %MON trAdv_CFL_w_max              =   5.5468051403999E-03
(PID.TID 0000.0001) %MON advcfl_uvel_max              =   6.2950508491353E-03
(PID.TID 0000.0001) %MON advcfl_vvel_max              =   3.8935299069167E-03
(PID.TID 0000.0001) %MON advcfl_wvel_max              =   6.3238698503245E-03
(PID.TID 0000.0001) %MON advcfl_W_hf_max              =   5.5468051403999E-03
(PID.TID 0000.0001) %MON pe_b_mean                    =   5.0139304125005E-04
(PID.TID 0000.0001) %MON ke_max                       =   1.1934584937055E+00
(PID.TID 0000.0001) %MON ke_mean                      =   1.7966981677442E-04
(PID.TID 0000.0001) %MON ke_vol                       =   1.3398079991983E+18
(PID.TID 0000.0001) %MON vort_r_min                   =  -8.6027803855731E-06
(PID.TID 0000.0001) %MON vort_r_max                   =   3.0883282184244E-06
(PID.TID 0000.0001) %MON vort_a_mean                  =  -2.0549865324846E-05
(PID.TID 0000.0001) %MON vort_a_sd                    =   7.5259516542834E-05
(PID.TID 0000.0001) %MON vort_p_mean                  =  -2.4783369617234E-05
(PID.TID 0000.0001) %MON vort_p_sd                    =   1.2811915727325E-04
(PID.TID 0000.0001) %MON surfExpan_theta_mean         =  -7.5928723003577E-06
(PID.TID 0000.0001) %MON surfExpan_salt_mean          =   1.5993097693273E-06
(PID.TID 0000.0001) // =======================================================
(PID.TID 0000.0001) // End MONITOR dynamic field statistics
(PID.TID 0000.0001) // =======================================================
 cg2d: Sum(rhs),rhsMax =  -1.60326980594974E+01  8.61849667821979E+01
(PID.TID 0000.0001)      cg2d_init_res =   2.59115230066713E-01
(PID.TID 0000.0001)      cg2d_iters(min,last) =      -1      10
(PID.TID 0000.0001)      cg2d_last_res =   3.97094993604892E-08
(PID.TID 0000.0001) // =======================================================
(PID.TID 0000.0001) // Begin MONITOR dynamic field statistics
(PID.TID 0000.0001) // =======================================================
(PID.TID 0000.0001) %MON time_tsnumber                =                 72017
(PID.TID 0000.0001) %MON time_secondsf                =   6.4815300000000E+07
(PID.TID 0000.0001) %MON dynstat_eta_max              =   3.9409465698685E+00
(PID.TID 0000.0001) %MON dynstat_eta_min              =  -2.2790644449846E+00
(PID.TID 0000.0001) %MON dynstat_eta_mean             =   1.6056071944174E-02
(PID.TID 0000.0001) %MON dynstat_eta_sd               =   6.1468958889228E-01
(PID.TID 0000.0001) %MON dynstat_eta_del2             =   3.3498929405472E-03
(PID.TID 0000.0001) %MON dynstat_uvel_max             =   1.8103062875624E+00
(PID.TID 0000.0001) %MON dynstat_uvel_min             =  -9.1786975381430E-01
(PID.TID 0000.0001) %MON dynstat_uvel_mean            =  -5.1226050687219E-05
(PID.TID 0000.0001) %MON dynstat_uvel_sd              =   1.3861857531757E-02
(PID.TID 0000.0001) %MON dynstat_uvel_del2            =   1.2393623791902E-04
(PID.TID 0000.0001) %MON dynstat_vvel_max             =   9.8080643222850E-01
(PID.TID 0000.0001) %MON dynstat_vvel_min             =  -1.1682670540494E+00
(PID.TID 0000.0001) %MON dynstat_vvel_mean            =  -4.3446858453263E-04
(PID.TID 0000.0001) %MON dynstat_vvel_sd              =   1.3810021644742E-02
(PID.TID 0000.0001) %MON dynstat_vvel_del2            =   1.2565886146050E-04
(PID.TID 0000.0001) %MON dynstat_wvel_max             =   1.2992856595795E-04
(PID.TID 0000.0001) %MON dynstat_wvel_min             =  -5.1670233405058E-04
(PID.TID 0000.0001) %MON dynstat_wvel_mean            =  -3.8239284232305E-07
(PID.TID 0000.0001) %MON dynstat_wvel_sd              =   8.6874125290356E-06
(PID.TID 0000.0001) %MON dynstat_wvel_del2            =   8.0618192803576E-08
(PID.TID 0000.0001) %MON dynstat_theta_max            =   3.0924284547340E+01
(PID.TID 0000.0001) %MON dynstat_theta_min            =  -3.0087649399842E+00
(PID.TID 0000.0001) %MON dynstat_theta_mean           =   3.9091111347336E+00
(PID.TID 0000.0001) %MON dynstat_theta_sd             =   4.5712143559689E+00
(PID.TID 0000.0001) %MON dynstat_theta_del2           =   2.6496334660060E-03
(PID.TID 0000.0001) %MON dynstat_salt_max             =   4.1364478374303E+01
(PID.TID 0000.0001) %MON dynstat_salt_min             =   1.8518539786045E+01
(PID.TID 0000.0001) %MON dynstat_salt_mean            =   3.4772098094417E+01
(PID.TID 0000.0001) %MON dynstat_salt_sd              =   5.3117819397242E-01
(PID.TID 0000.0001) %MON dynstat_salt_del2            =   8.5613062762479E-04
(PID.TID 0000.0001) %MON dynstat_sst_max              =   3.0924284547340E+01
(PID.TID 0000.0001) %MON dynstat_sst_min              =  -1.8994442615195E+00
(PID.TID 0000.0001) %MON dynstat_sst_mean             =   1.8109231652008E+01
(PID.TID 0000.0001) %MON dynstat_sst_sd               =   9.8044468542951E+00
(PID.TID 0000.0001) %MON dynstat_sst_del2             =   1.5203903232941E-02
(PID.TID 0000.0001) %MON dynstat_sss_max              =   4.1364478374303E+01
(PID.TID 0000.0001) %MON dynstat_sss_min              =   1.8751384651494E+01
(PID.TID 0000.0001) %MON dynstat_sss_mean             =   3.4634824493619E+01
(PID.TID 0000.0001) %MON dynstat_sss_sd               =   1.4629823551985E+00
(PID.TID 0000.0001) %MON dynstat_sss_del2             =   8.8394663736131E-03
(PID.TID 0000.0001) %MON forcing_qnet_max             =   4.0526791992188E+03
(PID.TID 0000.0001) %MON forcing_qnet_min             =  -3.6304364702245E+03
(PID.TID 0000.0001) %MON forcing_qnet_mean            =  -8.6280283468515E+01
(PID.TID 0000.0001) %MON forcing_qnet_sd              =   3.4163509628532E+02
(PID.TID 0000.0001) %MON forcing_qnet_del2            =   9.4950402695095E+00
(PID.TID 0000.0001) %MON forcing_qsw_max              =   0.0000000000000E+00
(PID.TID 0000.0001) %MON forcing_qsw_min              =  -4.3353531873953E+02
(PID.TID 0000.0001) %MON forcing_qsw_mean             =  -8.1390222864207E+01
(PID.TID 0000.0001) %MON forcing_qsw_sd               =   1.1671113643356E+02
(PID.TID 0000.0001) %MON forcing_qsw_del2             =   1.0381746487666E+00
(PID.TID 0000.0001) %MON forcing_empmr_max            =   1.3025656342506E-02
(PID.TID 0000.0001) %MON forcing_empmr_min            =  -1.7511188983917E-01
(PID.TID 0000.0001) %MON forcing_empmr_mean           =  -4.5484730915359E-04
(PID.TID 0000.0001) %MON forcing_empmr_sd             =   6.9053110074766E-03
(PID.TID 0000.0001) %MON forcing_empmr_del2           =   2.8146241762792E-04
(PID.TID 0000.0001) %MON forcing_fu_max               =   6.4740484553387E-01
(PID.TID 0000.0001) %MON forcing_fu_min               =  -4.3486985560687E-01
(PID.TID 0000.0001) %MON forcing_fu_mean              =  -3.3523650758656E-03
(PID.TID 0000.0001) %MON forcing_fu_sd                =   7.3099324435065E-02
(PID.TID 0000.0001) %MON forcing_fu_del2              =   7.4207138349283E-04
(PID.TID 0000.0001) %MON forcing_fv_max               =   3.2047798682834E-01
(PID.TID 0000.0001) %MON forcing_fv_min               =  -3.5887117772080E-01
(PID.TID 0000.0001) %MON forcing_fv_mean              =  -1.1986648838627E-02
(PID.TID 0000.0001) %MON forcing_fv_sd                =   7.1653867961501E-02
(PID.TID 0000.0001) %MON forcing_fv_del2              =   6.3221974206137E-04
(PID.TID 0000.0001) %MON trAdv_CFL_u_max              =   5.9882422072564E-03
(PID.TID 0000.0001) %MON trAdv_CFL_v_max              =   6.6354815257199E-03
(PID.TID 0000.0001) %MON trAdv_CFL_w_max              =   5.2477415694675E-03
(PID.TID 0000.0001) %MON advcfl_uvel_max              =   6.0369490032210E-03
(PID.TID 0000.0001) %MON advcfl_vvel_max              =   3.5010269700780E-03
(PID.TID 0000.0001) %MON advcfl_wvel_max              =   6.0908483422321E-03
(PID.TID 0000.0001) %MON advcfl_W_hf_max              =   5.2477415694675E-03
(PID.TID 0000.0001) %MON pe_b_mean                    =   5.0369837859143E-04
(PID.TID 0000.0001) %MON ke_max                       =   1.0013289428394E+00
(PID.TID 0000.0001) %MON ke_mean                      =   1.7684457222536E-04
(PID.TID 0000.0001) %MON ke_vol                       =   1.3398081440301E+18
(PID.TID 0000.0001) %MON vort_r_min                   =  -8.7445194805017E-06
(PID.TID 0000.0001) %MON vort_r_max                   =   3.0398422527956E-06
(PID.TID 0000.0001) %MON vort_a_mean                  =  -2.0549865324846E-05
(PID.TID 0000.0001) %MON vort_a_sd                    =   7.5259515842962E-05
(PID.TID 0000.0001) %MON vort_p_mean                  =  -2.4783366318236E-05
(PID.TID 0000.0001) %MON vort_p_sd                    =   1.2811916126361E-04
(PID.TID 0000.0001) %MON surfExpan_theta_mean         =  -7.5508809234542E-06
(PID.TID 0000.0001) %MON surfExpan_salt_mean          =   1.5861797200846E-06
(PID.TID 0000.0001) // =======================================================
(PID.TID 0000.0001) // End MONITOR dynamic field statistics
(PID.TID 0000.0001) // =======================================================
 cg2d: Sum(rhs),rhsMax =  -1.59990103209763E+01  8.84772132424189E+01
(PID.TID 0000.0001)      cg2d_init_res =   2.27560909413352E-01
(PID.TID 0000.0001)      cg2d_iters(min,last) =      -1      10
(PID.TID 0000.0001)      cg2d_last_res =   3.51519515663966E-08
(PID.TID 0000.0001) // =======================================================
(PID.TID 0000.0001) // Begin MONITOR dynamic field statistics
(PID.TID 0000.0001) // =======================================================
(PID.TID 0000.0001) %MON time_tsnumber                =                 72018
(PID.TID 0000.0001) %MON time_secondsf                =   6.4816200000000E+07
(PID.TID 0000.0001) %MON dynstat_eta_max              =   4.0440200414497E+00
(PID.TID 0000.0001) %MON dynstat_eta_min              =  -2.8008195472928E+00
(PID.TID 0000.0001) %MON dynstat_eta_mean             =   1.6448478331724E-02
(PID.TID 0000.0001) %MON dynstat_eta_sd               =   6.1611411213615E-01
(PID.TID 0000.0001) %MON dynstat_eta_del2             =   3.5327795651772E-03
(PID.TID 0000.0001) %MON dynstat_uvel_max             =   1.7139961695709E+00
(PID.TID 0000.0001) %MON dynstat_uvel_min             =  -8.8518372155296E-01
(PID.TID 0000.0001) %MON dynstat_uvel_mean            =  -3.1749304099718E-05
(PID.TID 0000.0001) %MON dynstat_uvel_sd              =   1.3720757027448E-02
(PID.TID 0000.0001) %MON dynstat_uvel_del2            =   1.1857774192364E-04
(PID.TID 0000.0001) %MON dynstat_vvel_max             =   8.6926230328011E-01
(PID.TID 0000.0001) %MON dynstat_vvel_min             =  -1.0220789555891E+00
(PID.TID 0000.0001) %MON dynstat_vvel_mean            =  -4.3451564691151E-04
(PID.TID 0000.0001) %MON dynstat_vvel_sd              =   1.3742943158834E-02
(PID.TID 0000.0001) %MON dynstat_vvel_del2            =   1.1734962903572E-04
(PID.TID 0000.0001) %MON dynstat_wvel_max             =   1.2392444702711E-04
(PID.TID 0000.0001) %MON dynstat_wvel_min             =  -4.8281663960796E-04
(PID.TID 0000.0001) %MON dynstat_wvel_mean            =  -3.6804333427096E-07
(PID.TID 0000.0001) %MON dynstat_wvel_sd              =   8.8237570921469E-06
(PID.TID 0000.0001) %MON dynstat_wvel_del2            =   8.1238443908795E-08
(PID.TID 0000.0001) %MON dynstat_theta_max            =   3.0924569533765E+01
(PID.TID 0000.0001) %MON dynstat_theta_min            =  -3.0082771179175E+00
(PID.TID 0000.0001) %MON dynstat_theta_mean           =   3.9091181456602E+00
(PID.TID 0000.0001) %MON dynstat_theta_sd             =   4.5712409507827E+00
(PID.TID 0000.0001) %MON dynstat_theta_del2           =   2.6494830131603E-03
(PID.TID 0000.0001) %MON dynstat_salt_max             =   4.1363684961045E+01
(PID.TID 0000.0001) %MON dynstat_salt_min             =   1.8518549646992E+01
(PID.TID 0000.0001) %MON dynstat_salt_mean            =   3.4772092842964E+01
(PID.TID 0000.0001) %MON dynstat_salt_sd              =   5.3119771915520E-01
(PID.TID 0000.0001) %MON dynstat_salt_del2            =   8.6135357709045E-04
(PID.TID 0000.0001) %MON dynstat_sst_max              =   3.0924569533765E+01
(PID.TID 0000.0001) %MON dynstat_sst_min              =  -1.8994212059230E+00
(PID.TID 0000.0001) %MON dynstat_sst_mean             =   1.8109571976611E+01
(PID.TID 0000.0001) %MON dynstat_sst_sd               =   9.8047116820164E+00
(PID.TID 0000.0001) %MON dynstat_sst_del2             =   1.5200412856253E-02
(PID.TID 0000.0001) %MON dynstat_sss_max              =   4.1363684961045E+01
(PID.TID 0000.0001) %MON dynstat_sss_min              =   1.8751385361394E+01
(PID.TID 0000.0001) %MON dynstat_sss_mean             =   3.4634442973008E+01
(PID.TID 0000.0001) %MON dynstat_sss_sd               =   1.4634689413257E+00
(PID.TID 0000.0001) %MON dynstat_sss_del2             =   8.9191392521211E-03
(PID.TID 0000.0001) %MON forcing_qnet_max             =   3.4756701660156E+03
(PID.TID 0000.0001) %MON forcing_qnet_min             =  -2.1963663884366E+03
(PID.TID 0000.0001) %MON forcing_qnet_mean            =  -7.9529127045573E+01
(PID.TID 0000.0001) %MON forcing_qnet_sd              =   3.2971384240614E+02
(PID.TID 0000.0001) %MON forcing_qnet_del2            =   8.8616111644068E+00
(PID.TID 0000.0001) %MON forcing_qsw_max              =   0.0000000000000E+00
(PID.TID 0000.0001) %MON forcing_qsw_min              =  -4.3522226945502E+02
(PID.TID 0000.0001) %MON forcing_qsw_mean             =  -8.0302678586001E+01
(PID.TID 0000.0001) %MON forcing_qsw_sd               =   1.1553814799073E+02
(PID.TID 0000.0001) %MON forcing_qsw_del2             =   1.0493314718016E+00
(PID.TID 0000.0001) %MON forcing_empmr_max            =   1.2739260680974E-02
(PID.TID 0000.0001) %MON forcing_empmr_min            =  -1.6879802942276E-01
(PID.TID 0000.0001) %MON forcing_empmr_mean           =  -4.5126734568257E-04
(PID.TID 0000.0001) %MON forcing_empmr_sd             =   6.8108234725901E-03
(PID.TID 0000.0001) %MON forcing_empmr_del2           =   2.7782176491355E-04
(PID.TID 0000.0001) %MON forcing_fu_max               =   6.3113163480841E-01
(PID.TID 0000.0001) %MON forcing_fu_min               =  -4.2675810472608E-01
(PID.TID 0000.0001) %MON forcing_fu_mean              =  -3.2991402281017E-03
(PID.TID 0000.0001) %MON forcing_fu_sd                =   7.2555801757495E-02
(PID.TID 0000.0001) %MON forcing_fu_del2              =   7.3340217278883E-04
(PID.TID 0000.0001) %MON forcing_fv_max               =   3.1522585120900E-01
(PID.TID 0000.0001) %MON forcing_fv_min               =  -3.5979479013873E-01
(PID.TID 0000.0001) %MON forcing_fv_mean              =  -1.1878680790212E-02
(PID.TID 0000.0001) %MON forcing_fv_sd                =   7.1170741870947E-02
(PID.TID 0000.0001) %MON forcing_fv_del2              =   6.2727435782584E-04
(PID.TID 0000.0001) %MON trAdv_CFL_u_max              =   5.6836167250597E-03
(PID.TID 0000.0001) %MON trAdv_CFL_v_max              =   5.8748073478029E-03
(PID.TID 0000.0001) %MON trAdv_CFL_w_max              =   4.9488642925065E-03
(PID.TID 0000.0001) %MON advcfl_uvel_max              =   5.7157772353255E-03
(PID.TID 0000.0001) %MON advcfl_vvel_max              =   3.0629349485323E-03
(PID.TID 0000.0001) %MON advcfl_wvel_max              =   5.8712358060090E-03
(PID.TID 0000.0001) %MON advcfl_W_hf_max              =   4.9488642925065E-03
(PID.TID 0000.0001) %MON pe_b_mean                    =   5.0605103713257E-04
(PID.TID 0000.0001) %MON ke_max                       =   8.2832847791372E-01
(PID.TID 0000.0001) %MON ke_mean                      =   1.7419845998069E-04
(PID.TID 0000.0001) %MON ke_vol                       =   1.3398082879544E+18
(PID.TID 0000.0001) %MON vort_r_min                   =  -8.7668557621522E-06
(PID.TID 0000.0001) %MON vort_r_max                   =   2.9750727686399E-06
(PID.TID 0000.0001) %MON vort_a_mean                  =  -2.0549865324846E-05
(PID.TID 0000.0001) %MON vort_a_sd                    =   7.5259515385531E-05
(PID.TID 0000.0001) %MON vort_p_mean                  =  -2.4783363138662E-05
(PID.TID 0000.0001) %MON vort_p_sd                    =   1.2811916653440E-04
(PID.TID 0000.0001) %MON surfExpan_theta_mean         =  -7.5093621496346E-06
(PID.TID 0000.0001) %MON surfExpan_salt_mean          =   1.5666472504935E-06
(PID.TID 0000.0001) // =======================================================
(PID.TID 0000.0001) // End MONITOR dynamic field statistics
(PID.TID 0000.0001) // =======================================================
 cg2d: Sum(rhs),rhsMax =  -1.61309217049654E+01  8.98178257098290E+01
(PID.TID 0000.0001)      cg2d_init_res =   2.05945476311605E-01
(PID.TID 0000.0001)      cg2d_iters(min,last) =      -1      10
(PID.TID 0000.0001)      cg2d_last_res =   3.15471025553704E-08
(PID.TID 0000.0001) // =======================================================
(PID.TID 0000.0001) // Begin MONITOR dynamic field statistics
(PID.TID 0000.0001) // =======================================================
(PID.TID 0000.0001) %MON time_tsnumber                =                 72019
(PID.TID 0000.0001) %MON time_secondsf                =   6.4817100000000E+07
(PID.TID 0000.0001) %MON dynstat_eta_max              =   4.1040089162235E+00
(PID.TID 0000.0001) %MON dynstat_eta_min              =  -3.2534641550970E+00
(PID.TID 0000.0001) %MON dynstat_eta_mean             =   1.6835378857144E-02
(PID.TID 0000.0001) %MON dynstat_eta_sd               =   6.1745730727510E-01
(PID.TID 0000.0001) %MON dynstat_eta_del2             =   3.6742360256149E-03
(PID.TID 0000.0001) %MON dynstat_uvel_max             =   1.5996187826850E+00
(PID.TID 0000.0001) %MON dynstat_uvel_min             =  -8.4686799673177E-01
(PID.TID 0000.0001) %MON dynstat_uvel_mean            =  -1.4292372471518E-05
(PID.TID 0000.0001) %MON dynstat_uvel_sd              =   1.3580444962468E-02
(PID.TID 0000.0001) %MON dynstat_uvel_del2            =   1.1325524976200E-04
(PID.TID 0000.0001) %MON dynstat_vvel_max             =   7.5017010160432E-01
(PID.TID 0000.0001) %MON dynstat_vvel_min             =  -8.6382558952036E-01
(PID.TID 0000.0001) %MON dynstat_vvel_mean            =  -4.3419870184592E-04
(PID.TID 0000.0001) %MON dynstat_vvel_sd              =   1.3699183774165E-02
(PID.TID 0000.0001) %MON dynstat_vvel_del2            =   1.1058559138201E-04
(PID.TID 0000.0001) %MON dynstat_wvel_max             =   1.1011020021242E-04
(PID.TID 0000.0001) %MON dynstat_wvel_min             =  -4.4268763996495E-04
(PID.TID 0000.0001) %MON dynstat_wvel_mean            =  -3.5263675777410E-07
(PID.TID 0000.0001) %MON dynstat_wvel_sd              =   8.9746768137325E-06
(PID.TID 0000.0001) %MON dynstat_wvel_del2            =   8.1808963739788E-08
(PID.TID 0000.0001) %MON dynstat_theta_max            =   3.0924892487922E+01
(PID.TID 0000.0001) %MON dynstat_theta_min            =  -3.0078005264976E+00
(PID.TID 0000.0001) %MON dynstat_theta_mean           =   3.9091248367112E+00
(PID.TID 0000.0001) %MON dynstat_theta_sd             =   4.5712662785935E+00
(PID.TID 0000.0001) %MON dynstat_theta_del2           =   2.6493415849744E-03
(PID.TID 0000.0001) %MON dynstat_salt_max             =   4.1362937319577E+01
(PID.TID 0000.0001) %MON dynstat_salt_min             =   1.8518559503655E+01
(PID.TID 0000.0001) %MON dynstat_salt_mean            =   3.4772087749802E+01
(PID.TID 0000.0001) %MON dynstat_salt_sd              =   5.3121736468986E-01
(PID.TID 0000.0001) %MON dynstat_salt_del2            =   8.6665931917027E-04
(PID.TID 0000.0001) %MON dynstat_sst_max              =   3.0924892487922E+01
(PID.TID 0000.0001) %MON dynstat_sst_min              =  -1.8993954718782E+00
(PID.TID 0000.0001) %MON dynstat_sst_mean             =   1.8109893075760E+01
(PID.TID 0000.0001) %MON dynstat_sst_sd               =   9.8049634490284E+00
(PID.TID 0000.0001) %MON dynstat_sst_del2             =   1.5197180676633E-02
(PID.TID 0000.0001) %MON dynstat_sss_max              =   4.1362937319577E+01
(PID.TID 0000.0001) %MON dynstat_sss_min              =   1.8751386033358E+01
(PID.TID 0000.0001) %MON dynstat_sss_mean             =   3.4634072560477E+01
(PID.TID 0000.0001) %MON dynstat_sss_sd               =   1.4639593433440E+00
(PID.TID 0000.0001) %MON dynstat_sss_del2             =   8.9998630367126E-03
(PID.TID 0000.0001) %MON forcing_qnet_max             =   3.3132623787028E+03
(PID.TID 0000.0001) %MON forcing_qnet_min             =  -2.1706889068570E+03
(PID.TID 0000.0001) %MON forcing_qnet_mean            =  -7.4754075056139E+01
(PID.TID 0000.0001) %MON forcing_qnet_sd              =   3.2019460542670E+02
(PID.TID 0000.0001) %MON forcing_qnet_del2            =   8.4000902536127E+00
(PID.TID 0000.0001) %MON forcing_qsw_max              =   0.0000000000000E+00
(PID.TID 0000.0001) %MON forcing_qsw_min              =  -4.3515369981285E+02
(PID.TID 0000.0001) %MON forcing_qsw_mean             =  -7.9021607113567E+01
(PID.TID 0000.0001) %MON forcing_qsw_sd               =   1.1416470312489E+02
(PID.TID 0000.0001) %MON forcing_qsw_del2             =   1.0586416981034E+00
(PID.TID 0000.0001) %MON forcing_empmr_max            =   1.2354834005237E-02
(PID.TID 0000.0001) %MON forcing_empmr_min            =  -1.6345813870430E-01
(PID.TID 0000.0001) %MON forcing_empmr_mean           =  -4.4493560423278E-04
(PID.TID 0000.0001) %MON forcing_empmr_sd             =   6.7110952951871E-03
(PID.TID 0000.0001) %MON forcing_empmr_del2           =   2.7361239697052E-04
(PID.TID 0000.0001) %MON forcing_fu_max               =   6.1971665136868E-01
(PID.TID 0000.0001) %MON forcing_fu_min               =  -4.2217091359767E-01
(PID.TID 0000.0001) %MON forcing_fu_mean              =  -3.2556764670007E-03
(PID.TID 0000.0001) %MON forcing_fu_sd                =   7.2091367422337E-02
(PID.TID 0000.0001) %MON forcing_fu_del2              =   7.2645607432439E-04
(PID.TID 0000.0001) %MON forcing_fv_max               =   3.1103757419421E-01
(PID.TID 0000.0001) %MON forcing_fv_min               =  -3.6076374446768E-01
(PID.TID 0000.0001) %MON forcing_fv_mean              =  -1.1821549065047E-02
(PID.TID 0000.0001) %MON forcing_fv_sd                =   7.0630535628349E-02
(PID.TID 0000.0001) %MON forcing_fv_del2              =   6.2255453841280E-04
(PID.TID 0000.0001) %MON trAdv_CFL_u_max              =   5.3170861095766E-03
(PID.TID 0000.0001) %MON trAdv_CFL_v_max              =   5.0391366530090E-03
(PID.TID 0000.0001) %MON trAdv_CFL_w_max              =   4.6498907674624E-03
(PID.TID 0000.0001) %MON advcfl_uvel_max              =   5.3343553419719E-03
(PID.TID 0000.0001) %MON advcfl_vvel_max              =   2.6192099050623E-03
(PID.TID 0000.0001) %MON advcfl_wvel_max              =   5.6855004766713E-03
(PID.TID 0000.0001) %MON advcfl_W_hf_max              =   4.6498907674624E-03
(PID.TID 0000.0001) %MON pe_b_mean                    =   5.0827546166383E-04
(PID.TID 0000.0001) %MON ke_max                       =   7.3575483120361E-01
(PID.TID 0000.0001) %MON ke_mean                      =   1.7188104072232E-04
(PID.TID 0000.0001) %MON ke_vol                       =   1.3398084307459E+18
(PID.TID 0000.0001) %MON vort_r_min                   =  -8.6691586899430E-06
(PID.TID 0000.0001) %MON vort_r_max                   =   2.8957911486482E-06
(PID.TID 0000.0001) %MON vort_a_mean                  =  -2.0549865324846E-05
(PID.TID 0000.0001) %MON vort_a_sd                    =   7.5259515042308E-05
(PID.TID 0000.0001) %MON vort_p_mean                  =  -2.4783360070894E-05
(PID.TID 0000.0001) %MON vort_p_sd                    =   1.2811917103053E-04
(PID.TID 0000.0001) %MON surfExpan_theta_mean         =  -7.4416388201702E-06
(PID.TID 0000.0001) %MON surfExpan_salt_mean          =   1.5394530912427E-06
(PID.TID 0000.0001) // =======================================================
(PID.TID 0000.0001) // End MONITOR dynamic field statistics
(PID.TID 0000.0001) // =======================================================
 Computing Diagnostic #     81  oceTAUX      Counter:       1   Parms: UU      U1      
           Vector  Mate for  oceTAUX      Diagnostic #     82  oceTAUY  exists 
 Computing Diagnostic #     82  oceTAUY      Counter:       1   Parms: VV      U1      
           Vector  Mate for  oceTAUY      Diagnostic #     81  oceTAUX  exists 
 Computing Diagnostic #     85  oceFWflx     Counter:       1   Parms: SM      U1      
 Computing Diagnostic #     86  oceSflux     Counter:       1   Parms: SM      U1      
 Computing Diagnostic #     87  oceQnet      Counter:       1   Parms: SM      U1      
 Computing Diagnostic #     88  oceQsw       Counter:       1   Parms: SM      U1      
 Computing Diagnostic #     27  SALT         Counter:       1   Parms: SMR     MR      
 Computing Diagnostic #     26  THETA        Counter:       1   Parms: SMR     MR      
 Computing Diagnostic #     45  UVELMASS     Counter:       1   Parms: UUr     MR      
           Vector  Mate for  UVELMASS     Diagnostic #     46  VVELMASS exists 
 Computing Diagnostic #     46  VVELMASS     Counter:       1   Parms: VVr     MR      
           Vector  Mate for  VVELMASS     Diagnostic #     45  UVELMASS exists 
 cg2d: Sum(rhs),rhsMax =  -1.64280319668002E+01  9.01920275799505E+01
(PID.TID 0000.0001)      cg2d_init_res =   1.93333150086183E-01
(PID.TID 0000.0001)      cg2d_iters(min,last) =      -1      10
(PID.TID 0000.0001)      cg2d_last_res =   3.13319447750150E-08
(PID.TID 0000.0001) // =======================================================
(PID.TID 0000.0001) // Begin MONITOR dynamic field statistics
(PID.TID 0000.0001) // =======================================================
(PID.TID 0000.0001) %MON time_tsnumber                =                 72020
(PID.TID 0000.0001) %MON time_secondsf                =   6.4818000000000E+07
(PID.TID 0000.0001) %MON dynstat_eta_max              =   4.1202252117964E+00
(PID.TID 0000.0001) %MON dynstat_eta_min              =  -3.6331342836849E+00
(PID.TID 0000.0001) %MON dynstat_eta_mean             =   1.7216896265166E-02
(PID.TID 0000.0001) %MON dynstat_eta_sd               =   6.1866250650731E-01
(PID.TID 0000.0001) %MON dynstat_eta_del2             =   3.7726488682277E-03
(PID.TID 0000.0001) %MON dynstat_uvel_max             =   1.4683304139043E+00
(PID.TID 0000.0001) %MON dynstat_uvel_min             =  -8.0377504517732E-01
(PID.TID 0000.0001) %MON dynstat_uvel_mean            =   4.3491006185494E-07
(PID.TID 0000.0001) %MON dynstat_uvel_sd              =   1.3445736393545E-02
(PID.TID 0000.0001) %MON dynstat_uvel_del2            =   1.0813675603572E-04
(PID.TID 0000.0001) %MON dynstat_vvel_max             =   6.2597538794473E-01
(PID.TID 0000.0001) %MON dynstat_vvel_min             =  -8.3707987991416E-01
(PID.TID 0000.0001) %MON dynstat_vvel_mean            =  -4.3405882765193E-04
(PID.TID 0000.0001) %MON dynstat_vvel_sd              =   1.3679120008741E-02
(PID.TID 0000.0001) %MON dynstat_vvel_del2            =   1.0569693569950E-04
(PID.TID 0000.0001) %MON dynstat_wvel_max             =   1.0908447712479E-04
(PID.TID 0000.0001) %MON dynstat_wvel_min             =  -3.9932307954725E-04
(PID.TID 0000.0001) %MON dynstat_wvel_mean            =  -3.3673789769050E-07
(PID.TID 0000.0001) %MON dynstat_wvel_sd              =   9.1024170095440E-06
(PID.TID 0000.0001) %MON dynstat_wvel_del2            =   8.2193311329112E-08
(PID.TID 0000.0001) %MON dynstat_theta_max            =   3.0925251952263E+01
(PID.TID 0000.0001) %MON dynstat_theta_min            =  -3.0073596647622E+00
(PID.TID 0000.0001) %MON dynstat_theta_mean           =   3.9091310912055E+00
(PID.TID 0000.0001) %MON dynstat_theta_sd             =   4.5712898090872E+00
(PID.TID 0000.0001) %MON dynstat_theta_del2           =   2.6491996215873E-03
(PID.TID 0000.0001) %MON dynstat_salt_max             =   4.1362237629895E+01
(PID.TID 0000.0001) %MON dynstat_salt_min             =   1.8518569358093E+01
(PID.TID 0000.0001) %MON dynstat_salt_mean            =   3.4772082765544E+01
(PID.TID 0000.0001) %MON dynstat_salt_sd              =   5.3123706768133E-01
(PID.TID 0000.0001) %MON dynstat_salt_del2            =   8.7203123505253E-04
(PID.TID 0000.0001) %MON dynstat_sst_max              =   3.0925251952263E+01
(PID.TID 0000.0001) %MON dynstat_sst_min              =  -1.8993672765452E+00
(PID.TID 0000.0001) %MON dynstat_sst_mean             =   1.8110186556335E+01
(PID.TID 0000.0001) %MON dynstat_sst_sd               =   9.8051969281905E+00
(PID.TID 0000.0001) %MON dynstat_sst_del2             =   1.5193940735641E-02
(PID.TID 0000.0001) %MON dynstat_sss_max              =   4.1362237629895E+01
(PID.TID 0000.0001) %MON dynstat_sss_min              =   1.8751386660170E+01
(PID.TID 0000.0001) %MON dynstat_sss_mean             =   3.4633709961783E+01
(PID.TID 0000.0001) %MON dynstat_sss_sd               =   1.4644519202381E+00
(PID.TID 0000.0001) %MON dynstat_sss_del2             =   9.0813780471604E-03
(PID.TID 0000.0001) %MON forcing_qnet_max             =   3.2678470044429E+03
(PID.TID 0000.0001) %MON forcing_qnet_min             =  -2.0843452148438E+03
(PID.TID 0000.0001) %MON forcing_qnet_mean            =  -6.7836241233898E+01
(PID.TID 0000.0001) %MON forcing_qnet_sd              =   3.1925006899202E+02
(PID.TID 0000.0001) %MON forcing_qnet_del2            =   8.6047751112030E+00
(PID.TID 0000.0001) %MON forcing_qsw_max              =   0.0000000000000E+00
(PID.TID 0000.0001) %MON forcing_qsw_min              =  -4.3332989961689E+02
(PID.TID 0000.0001) %MON forcing_qsw_mean             =  -7.7558579665910E+01
(PID.TID 0000.0001) %MON forcing_qsw_sd               =   1.1260627680563E+02
(PID.TID 0000.0001) %MON forcing_qsw_del2             =   1.0659673973574E+00
(PID.TID 0000.0001) %MON forcing_empmr_max            =   1.1982281692326E-02
(PID.TID 0000.0001) %MON forcing_empmr_min            =  -1.5865395963192E-01
(PID.TID 0000.0001) %MON forcing_empmr_mean           =  -4.3874501922570E-04
(PID.TID 0000.0001) %MON forcing_empmr_sd             =   6.6131833116972E-03
(PID.TID 0000.0001) %MON forcing_empmr_del2           =   2.6941440950259E-04
(PID.TID 0000.0001) %MON forcing_fu_max               =   6.0541076171964E-01
(PID.TID 0000.0001) %MON forcing_fu_min               =  -4.1642332097745E-01
(PID.TID 0000.0001) %MON forcing_fu_mean              =  -3.2259912346343E-03
(PID.TID 0000.0001) %MON forcing_fu_sd                =   7.1670372891119E-02
(PID.TID 0000.0001) %MON forcing_fu_del2              =   7.1939514289759E-04
(PID.TID 0000.0001) %MON forcing_fv_max               =   3.0457892088076E-01
(PID.TID 0000.0001) %MON forcing_fv_min               =  -3.5627022058335E-01
(PID.TID 0000.0001) %MON forcing_fv_mean              =  -1.1782752422954E-02
(PID.TID 0000.0001) %MON forcing_fv_sd                =   7.0133776506214E-02
(PID.TID 0000.0001) %MON forcing_fv_del2              =   6.1788620592414E-04
(PID.TID 0000.0001) %MON trAdv_CFL_u_max              =   4.8920971538557E-03
(PID.TID 0000.0001) %MON trAdv_CFL_v_max              =   4.1467594845670E-03
(PID.TID 0000.0001) %MON trAdv_CFL_w_max              =   4.3498496536223E-03
(PID.TID 0000.0001) %MON advcfl_uvel_max              =   4.8965392704650E-03
(PID.TID 0000.0001) %MON advcfl_vvel_max              =   2.8603063468460E-03
(PID.TID 0000.0001) %MON advcfl_wvel_max              =   5.5183985958929E-03
(PID.TID 0000.0001) %MON advcfl_W_hf_max              =   4.3498496536223E-03
(PID.TID 0000.0001) %MON pe_b_mean                    =   5.1027735603675E-04
(PID.TID 0000.0001) %MON ke_max                       =   6.7938345186778E-01
(PID.TID 0000.0001) %MON ke_mean                      =   1.6995354665398E-04
(PID.TID 0000.0001) %MON ke_vol                       =   1.3398085715338E+18
(PID.TID 0000.0001) %MON vort_r_min                   =  -8.4534610917305E-06
(PID.TID 0000.0001) %MON vort_r_max                   =   2.9023894189488E-06
(PID.TID 0000.0001) %MON vort_a_mean                  =  -2.0549865324846E-05
(PID.TID 0000.0001) %MON vort_a_sd                    =   7.5259514659477E-05
(PID.TID 0000.0001) %MON vort_p_mean                  =  -2.4783357119752E-05
(PID.TID 0000.0001) %MON vort_p_sd                    =   1.2811917303962E-04
(PID.TID 0000.0001) %MON surfExpan_theta_mean         =  -7.3864301619012E-06
(PID.TID 0000.0001) %MON surfExpan_salt_mean          =   1.5098513058938E-06
(PID.TID 0000.0001) // =======================================================
(PID.TID 0000.0001) // End MONITOR dynamic field statistics
(PID.TID 0000.0001) // =======================================================
 cg2d: Sum(rhs),rhsMax =  -1.68972101454211E+01  8.96047261884989E+01
(PID.TID 0000.0001)      cg2d_init_res =   1.87257942266751E-01
(PID.TID 0000.0001)      cg2d_iters(min,last) =      -1      10
(PID.TID 0000.0001)      cg2d_last_res =   3.43924250052031E-08
(PID.TID 0000.0001) // =======================================================
(PID.TID 0000.0001) // Begin MONITOR dynamic field statistics
(PID.TID 0000.0001) // =======================================================
(PID.TID 0000.0001) %MON time_tsnumber                =                 72021
(PID.TID 0000.0001) %MON time_secondsf                =   6.4818900000000E+07
(PID.TID 0000.0001) %MON dynstat_eta_max              =   4.0928719574326E+00
(PID.TID 0000.0001) %MON dynstat_eta_min              =  -3.9368938232600E+00
(PID.TID 0000.0001) %MON dynstat_eta_mean             =   1.7593291382285E-02
(PID.TID 0000.0001) %MON dynstat_eta_sd               =   6.1970936101496E-01
(PID.TID 0000.0001) %MON dynstat_eta_del2             =   3.8300221769388E-03
(PID.TID 0000.0001) %MON dynstat_uvel_max             =   1.3216980005804E+00
(PID.TID 0000.0001) %MON dynstat_uvel_min             =  -7.5677293576835E-01
(PID.TID 0000.0001) %MON dynstat_uvel_mean            =   1.1718129124993E-05
(PID.TID 0000.0001) %MON dynstat_uvel_sd              =   1.3318730495308E-02
(PID.TID 0000.0001) %MON dynstat_uvel_del2            =   1.0334045391256E-04
(PID.TID 0000.0001) %MON dynstat_vvel_max             =   4.9904892227609E-01
(PID.TID 0000.0001) %MON dynstat_vvel_min             =  -8.9258321889477E-01
(PID.TID 0000.0001) %MON dynstat_vvel_mean            =  -4.3454642137583E-04
(PID.TID 0000.0001) %MON dynstat_vvel_sd              =   1.3680586437485E-02
(PID.TID 0000.0001) %MON dynstat_vvel_del2            =   1.0282735248602E-04
(PID.TID 0000.0001) %MON dynstat_wvel_max             =   1.0941598406639E-04
(PID.TID 0000.0001) %MON dynstat_wvel_min             =  -3.6921578814246E-04
(PID.TID 0000.0001) %MON dynstat_wvel_mean            =  -3.2076046570608E-07
(PID.TID 0000.0001) %MON dynstat_wvel_sd              =   9.1751548833986E-06
(PID.TID 0000.0001) %MON dynstat_wvel_del2            =   8.2204869419856E-08
(PID.TID 0000.0001) %MON dynstat_theta_max            =   3.0925708485102E+01
(PID.TID 0000.0001) %MON dynstat_theta_min            =  -3.0069737373266E+00
(PID.TID 0000.0001) %MON dynstat_theta_mean           =   3.9091368803369E+00
(PID.TID 0000.0001) %MON dynstat_theta_sd             =   4.5713118263645E+00
(PID.TID 0000.0001) %MON dynstat_theta_del2           =   2.6490554181169E-03
(PID.TID 0000.0001) %MON dynstat_salt_max             =   4.1361586936288E+01
(PID.TID 0000.0001) %MON dynstat_salt_min             =   1.8518579215519E+01
(PID.TID 0000.0001) %MON dynstat_salt_mean            =   3.4772077925721E+01
(PID.TID 0000.0001) %MON dynstat_salt_sd              =   5.3125685453481E-01
(PID.TID 0000.0001) %MON dynstat_salt_del2            =   8.7745608020163E-04
(PID.TID 0000.0001) %MON dynstat_sst_max              =   3.0925708485102E+01
(PID.TID 0000.0001) %MON dynstat_sst_min              =  -1.8993345780497E+00
(PID.TID 0000.0001) %MON dynstat_sst_mean             =   1.8110453550882E+01
(PID.TID 0000.0001) %MON dynstat_sst_sd               =   9.8054264070495E+00
(PID.TID 0000.0001) %MON dynstat_sst_del2             =   1.5190707491446E-02
(PID.TID 0000.0001) %MON dynstat_sss_max              =   4.1361586936288E+01
(PID.TID 0000.0001) %MON dynstat_sss_min              =   1.8751387284486E+01
(PID.TID 0000.0001) %MON dynstat_sss_mean             =   3.4633359116984E+01
(PID.TID 0000.0001) %MON dynstat_sss_sd               =   1.4649493248989E+00
(PID.TID 0000.0001) %MON dynstat_sss_del2             =   9.1634800867476E-03
(PID.TID 0000.0001) %MON forcing_qnet_max             =   3.2228406037946E+03
(PID.TID 0000.0001) %MON forcing_qnet_min             =  -3.1408330078125E+03
(PID.TID 0000.0001) %MON forcing_qnet_mean            =  -6.0332334155260E+01
(PID.TID 0000.0001) %MON forcing_qnet_sd              =   3.0898220194746E+02
(PID.TID 0000.0001) %MON forcing_qnet_del2            =   8.2516658381390E+00
(PID.TID 0000.0001) %MON forcing_qsw_max              =   0.0000000000000E+00
(PID.TID 0000.0001) %MON forcing_qsw_min              =  -4.4104536334312E+02
(PID.TID 0000.0001) %MON forcing_qsw_mean             =  -7.4876283122832E+01
(PID.TID 0000.0001) %MON forcing_qsw_sd               =   1.0948489731872E+02
(PID.TID 0000.0001) %MON forcing_qsw_del2             =   1.0810707467463E+00
(PID.TID 0000.0001) %MON forcing_empmr_max            =   1.1520342901349E-02
(PID.TID 0000.0001) %MON forcing_empmr_min            =  -1.5429782867432E-01
(PID.TID 0000.0001) %MON forcing_empmr_mean           =  -4.3285438468682E-04
(PID.TID 0000.0001) %MON forcing_empmr_sd             =   6.5087471916284E-03
(PID.TID 0000.0001) %MON forcing_empmr_del2           =   2.6470941021957E-04
(PID.TID 0000.0001) %MON forcing_fu_max               =   5.8930955897888E-01
(PID.TID 0000.0001) %MON forcing_fu_min               =  -4.1315487991915E-01
(PID.TID 0000.0001) %MON forcing_fu_mean              =  -3.1781492865101E-03
(PID.TID 0000.0001) %MON forcing_fu_sd                =   7.1134764902814E-02
(PID.TID 0000.0001) %MON forcing_fu_del2              =   7.1022250042894E-04
(PID.TID 0000.0001) %MON forcing_fv_max               =   3.0863311122113E-01
(PID.TID 0000.0001) %MON forcing_fv_min               =  -3.5257762105917E-01
(PID.TID 0000.0001) %MON forcing_fv_mean              =  -1.1770775241284E-02
(PID.TID 0000.0001) %MON forcing_fv_sd                =   6.9648116830928E-02
(PID.TID 0000.0001) %MON forcing_fv_del2              =   6.1305121210350E-04
(PID.TID 0000.0001) %MON trAdv_CFL_u_max              =   4.4133938250643E-03
(PID.TID 0000.0001) %MON trAdv_CFL_v_max              =   3.2166613581933E-03
(PID.TID 0000.0001) %MON trAdv_CFL_w_max              =   4.0479250671704E-03
(PID.TID 0000.0001) %MON advcfl_uvel_max              =   4.4075543912003E-03
(PID.TID 0000.0001) %MON advcfl_vvel_max              =   3.0499615477018E-03
(PID.TID 0000.0001) %MON advcfl_wvel_max              =   5.3668809973675E-03
(PID.TID 0000.0001) %MON advcfl_W_hf_max              =   4.0479250671704E-03
(PID.TID 0000.0001) %MON pe_b_mean                    =   5.1202178774024E-04
(PID.TID 0000.0001) %MON ke_max                       =   6.2182424441599E-01
(PID.TID 0000.0001) %MON ke_mean                      =   1.6841084056559E-04
(PID.TID 0000.0001) %MON ke_vol                       =   1.3398087103630E+18
(PID.TID 0000.0001) %MON vort_r_min                   =  -8.1243252549978E-06
(PID.TID 0000.0001) %MON vort_r_max                   =   2.9299412063016E-06
(PID.TID 0000.0001) %MON vort_a_mean                  =  -2.0549865324846E-05
(PID.TID 0000.0001) %MON vort_a_sd                    =   7.5259514084089E-05
(PID.TID 0000.0001) %MON vort_p_mean                  =  -2.4783354273127E-05
(PID.TID 0000.0001) %MON vort_p_sd                    =   1.2811917129203E-04
(PID.TID 0000.0001) %MON surfExpan_theta_mean         =  -7.3475510193631E-06
(PID.TID 0000.0001) %MON surfExpan_salt_mean          =   1.4772274944037E-06
(PID.TID 0000.0001) // =======================================================
(PID.TID 0000.0001) // End MONITOR dynamic field statistics
(PID.TID 0000.0001) // =======================================================
 cg2d: Sum(rhs),rhsMax =  -1.75525867773479E+01  8.80794151953539E+01
(PID.TID 0000.0001)      cg2d_init_res =   1.85025900266080E-01
(PID.TID 0000.0001)      cg2d_iters(min,last) =      -1       9
(PID.TID 0000.0001)      cg2d_last_res =   9.05992399523854E-08
(PID.TID 0000.0001) // =======================================================
(PID.TID 0000.0001) // Begin MONITOR dynamic field statistics
(PID.TID 0000.0001) // =======================================================
(PID.TID 0000.0001) %MON time_tsnumber                =                 72022
(PID.TID 0000.0001) %MON time_secondsf                =   6.4819800000000E+07
(PID.TID 0000.0001) %MON dynstat_eta_max              =   4.0229942976895E+00
(PID.TID 0000.0001) %MON dynstat_eta_min              =  -4.1627563865527E+00
(PID.TID 0000.0001) %MON dynstat_eta_mean             =   1.7964565785210E-02
(PID.TID 0000.0001) %MON dynstat_eta_sd               =   6.2059384942901E-01
(PID.TID 0000.0001) %MON dynstat_eta_del2             =   3.8495637270955E-03
(PID.TID 0000.0001) %MON dynstat_uvel_max             =   1.1617562187929E+00
(PID.TID 0000.0001) %MON dynstat_uvel_min             =  -7.0673047104444E-01
(PID.TID 0000.0001) %MON dynstat_uvel_mean            =   1.8880944246216E-05
(PID.TID 0000.0001) %MON dynstat_uvel_sd              =   1.3200721112765E-02
(PID.TID 0000.0001) %MON dynstat_uvel_del2            =   9.8957394103889E-05
(PID.TID 0000.0001) %MON dynstat_vvel_max             =   3.7164417042127E-01
(PID.TID 0000.0001) %MON dynstat_vvel_min             =  -9.3291116787837E-01
(PID.TID 0000.0001) %MON dynstat_vvel_mean            =  -4.3594825598061E-04
(PID.TID 0000.0001) %MON dynstat_vvel_sd              =   1.3699982590857E-02
(PID.TID 0000.0001) %MON dynstat_vvel_del2            =   1.0190315557834E-04
(PID.TID 0000.0001) %MON dynstat_wvel_max             =   1.0972948044550E-04
(PID.TID 0000.0001) %MON dynstat_wvel_min             =  -4.0920748320020E-04
(PID.TID 0000.0001) %MON dynstat_wvel_mean            =  -3.0377761621918E-07
(PID.TID 0000.0001) %MON dynstat_wvel_sd              =   9.1785199248166E-06
(PID.TID 0000.0001) %MON dynstat_wvel_del2            =   8.1808383351695E-08
(PID.TID 0000.0001) %MON dynstat_theta_max            =   3.0926199570345E+01
(PID.TID 0000.0001) %MON dynstat_theta_min            =  -3.0066544461292E+00
(PID.TID 0000.0001) %MON dynstat_theta_mean           =   3.9091424413782E+00
(PID.TID 0000.0001) %MON dynstat_theta_sd             =   4.5713330694760E+00
(PID.TID 0000.0001) %MON dynstat_theta_del2           =   2.6489048576078E-03
(PID.TID 0000.0001) %MON dynstat_salt_max             =   4.1360984199811E+01
(PID.TID 0000.0001) %MON dynstat_salt_min             =   1.8518589082625E+01
(PID.TID 0000.0001) %MON dynstat_salt_mean            =   3.4772073235401E+01
(PID.TID 0000.0001) %MON dynstat_salt_sd              =   5.3127670431187E-01
(PID.TID 0000.0001) %MON dynstat_salt_del2            =   8.8291860019028E-04
(PID.TID 0000.0001) %MON dynstat_sst_max              =   3.0926199570345E+01
(PID.TID 0000.0001) %MON dynstat_sst_min              =  -1.8992975710061E+00
(PID.TID 0000.0001) %MON dynstat_sst_mean             =   1.8110706740202E+01
(PID.TID 0000.0001) %MON dynstat_sst_sd               =   9.8056482343489E+00
(PID.TID 0000.0001) %MON dynstat_sst_del2             =   1.5187294816070E-02
(PID.TID 0000.0001) %MON dynstat_sss_max              =   4.1360984199811E+01
(PID.TID 0000.0001) %MON dynstat_sss_min              =   1.8751387878955E+01
(PID.TID 0000.0001) %MON dynstat_sss_mean             =   3.4633018480847E+01
(PID.TID 0000.0001) %MON dynstat_sss_sd               =   1.4654480161029E+00
(PID.TID 0000.0001) %MON dynstat_sss_del2             =   9.2459361504240E-03
(PID.TID 0000.0001) %MON forcing_qnet_max             =   3.1771175189644E+03
(PID.TID 0000.0001) %MON forcing_qnet_min             =  -1.1094341796875E+04
(PID.TID 0000.0001) %MON forcing_qnet_mean            =  -5.6889710920327E+01
(PID.TID 0000.0001) %MON forcing_qnet_sd              =   3.4601022617110E+02
(PID.TID 0000.0001) %MON forcing_qnet_del2            =   1.0329401174366E+01
(PID.TID 0000.0001) %MON forcing_qsw_max              =   0.0000000000000E+00
(PID.TID 0000.0001) %MON forcing_qsw_min              =  -4.4307904479350E+02
(PID.TID 0000.0001) %MON forcing_qsw_mean             =  -7.3894843418244E+01
(PID.TID 0000.0001) %MON forcing_qsw_sd               =   1.0810495427276E+02
(PID.TID 0000.0001) %MON forcing_qsw_del2             =   1.0886173402427E+00
(PID.TID 0000.0001) %MON forcing_empmr_max            =   1.0978422127664E-02
(PID.TID 0000.0001) %MON forcing_empmr_min            =  -1.5086460113525E-01
(PID.TID 0000.0001) %MON forcing_empmr_mean           =  -4.2696556336374E-04
(PID.TID 0000.0001) %MON forcing_empmr_sd             =   6.4079887153650E-03
(PID.TID 0000.0001) %MON forcing_empmr_del2           =   2.6008227126536E-04
(PID.TID 0000.0001) %MON forcing_fu_max               =   5.7628520713077E-01
(PID.TID 0000.0001) %MON forcing_fu_min               =  -4.0839020352392E-01
(PID.TID 0000.0001) %MON forcing_fu_mean              =  -3.1409246897465E-03
(PID.TID 0000.0001) %MON forcing_fu_sd                =   7.0582454232003E-02
(PID.TID 0000.0001) %MON forcing_fu_del2              =   7.0275904569522E-04
(PID.TID 0000.0001) %MON forcing_fv_max               =   3.1188749972459E-01
(PID.TID 0000.0001) %MON forcing_fv_min               =  -3.4396961158301E-01
(PID.TID 0000.0001) %MON forcing_fv_mean              =  -1.1774328543889E-02
(PID.TID 0000.0001) %MON forcing_fv_sd                =   6.9133632384520E-02
(PID.TID 0000.0001) %MON forcing_fv_del2              =   6.0836026494695E-04
(PID.TID 0000.0001) %MON trAdv_CFL_u_max              =   3.8873293039410E-03
(PID.TID 0000.0001) %MON trAdv_CFL_v_max              =   3.0409330662439E-03
(PID.TID 0000.0001) %MON trAdv_CFL_w_max              =   3.7441097930542E-03
(PID.TID 0000.0001) %MON advcfl_uvel_max              =   3.8741858740772E-03
(PID.TID 0000.0001) %MON advcfl_vvel_max              =   3.1877623612213E-03
(PID.TID 0000.0001) %MON advcfl_wvel_max              =   5.2474643873132E-03
(PID.TID 0000.0001) %MON advcfl_W_hf_max              =   3.7441097930542E-03
(PID.TID 0000.0001) %MON pe_b_mean                    =   5.1350076723913E-04
(PID.TID 0000.0001) %MON ke_max                       =   5.6500975538249E-01
(PID.TID 0000.0001) %MON ke_mean                      =   1.6722023645688E-04
(PID.TID 0000.0001) %MON ke_vol                       =   1.3398088473282E+18
(PID.TID 0000.0001) %MON vort_r_min                   =  -7.6886863639423E-06
(PID.TID 0000.0001) %MON vort_r_max                   =   2.9377192273914E-06
(PID.TID 0000.0001) %MON vort_a_mean                  =  -2.0549865324846E-05
(PID.TID 0000.0001) %MON vort_a_sd                    =   7.5259513198514E-05
(PID.TID 0000.0001) %MON vort_p_mean                  =  -2.4783351520363E-05
(PID.TID 0000.0001) %MON vort_p_sd                    =   1.2811916518700E-04
(PID.TID 0000.0001) %MON surfExpan_theta_mean         =  -7.3071286052024E-06
(PID.TID 0000.0001) %MON surfExpan_salt_mean          =   1.4446779507698E-06
(PID.TID 0000.0001) // =======================================================
(PID.TID 0000.0001) // End MONITOR dynamic field statistics
(PID.TID 0000.0001) // =======================================================
 cg2d: Sum(rhs),rhsMax =  -1.84168235963213E+01  8.56567430214366E+01
(PID.TID 0000.0001)      cg2d_init_res =   1.84836812024608E-01
(PID.TID 0000.0001)      cg2d_iters(min,last) =      -1      10
(PID.TID 0000.0001)      cg2d_last_res =   3.80837835020864E-08
(PID.TID 0000.0001) // =======================================================
(PID.TID 0000.0001) // Begin MONITOR dynamic field statistics
(PID.TID 0000.0001) // =======================================================
(PID.TID 0000.0001) %MON time_tsnumber                =                 72023
(PID.TID 0000.0001) %MON time_secondsf                =   6.4820700000000E+07
(PID.TID 0000.0001) %MON dynstat_eta_max              =   3.9124154277430E+00
(PID.TID 0000.0001) %MON dynstat_eta_min              =  -4.3097315221894E+00
(PID.TID 0000.0001) %MON dynstat_eta_mean             =   1.8330632831256E-02
(PID.TID 0000.0001) %MON dynstat_eta_sd               =   6.2131339700282E-01
(PID.TID 0000.0001) %MON dynstat_eta_del2             =   3.8342246396184E-03
(PID.TID 0000.0001) %MON dynstat_uvel_max             =   9.9101296793523E-01
(PID.TID 0000.0001) %MON dynstat_uvel_min             =  -6.5450341942315E-01
(PID.TID 0000.0001) %MON dynstat_uvel_mean            =   2.1379245871884E-05
(PID.TID 0000.0001) %MON dynstat_uvel_sd              =   1.3093302031728E-02
(PID.TID 0000.0001) %MON dynstat_uvel_del2            =   9.5065666534952E-05
(PID.TID 0000.0001) %MON dynstat_vvel_max             =   3.1407040814245E-01
(PID.TID 0000.0001) %MON dynstat_vvel_min             =  -9.5803260913363E-01
(PID.TID 0000.0001) %MON dynstat_vvel_mean            =  -4.3837276181808E-04
(PID.TID 0000.0001) %MON dynstat_vvel_sd              =   1.3733242293102E-02
(PID.TID 0000.0001) %MON dynstat_vvel_del2            =   1.0265791979831E-04
(PID.TID 0000.0001) %MON dynstat_wvel_max             =   1.1002426128402E-04
(PID.TID 0000.0001) %MON dynstat_wvel_min             =  -4.3433041844855E-04
(PID.TID 0000.0001) %MON dynstat_wvel_mean            =  -2.8593295334015E-07
(PID.TID 0000.0001) %MON dynstat_wvel_sd              =   9.1155178182517E-06
(PID.TID 0000.0001) %MON dynstat_wvel_del2            =   8.1035228478607E-08
(PID.TID 0000.0001) %MON dynstat_theta_max            =   3.0926721830151E+01
(PID.TID 0000.0001) %MON dynstat_theta_min            =  -3.0064054208265E+00
(PID.TID 0000.0001) %MON dynstat_theta_mean           =   3.9091475761349E+00
(PID.TID 0000.0001) %MON dynstat_theta_sd             =   4.5713527160615E+00
(PID.TID 0000.0001) %MON dynstat_theta_del2           =   2.6487543985537E-03
(PID.TID 0000.0001) %MON dynstat_salt_max             =   4.1360428568753E+01
(PID.TID 0000.0001) %MON dynstat_salt_min             =   1.8518598967554E+01
(PID.TID 0000.0001) %MON dynstat_salt_mean            =   3.4772068604417E+01
(PID.TID 0000.0001) %MON dynstat_salt_sd              =   5.3129658183837E-01
(PID.TID 0000.0001) %MON dynstat_salt_del2            =   8.8840772750296E-04
(PID.TID 0000.0001) %MON dynstat_sst_max              =   3.0926721830151E+01
(PID.TID 0000.0001) %MON dynstat_sst_min              =  -1.8992542511523E+00
(PID.TID 0000.0001) %MON dynstat_sst_mean             =   1.8110934645742E+01
(PID.TID 0000.0001) %MON dynstat_sst_sd               =   9.8058587789386E+00
(PID.TID 0000.0001) %MON dynstat_sst_del2             =   1.5183957205809E-02
(PID.TID 0000.0001) %MON dynstat_sss_max              =   4.1360428568753E+01
(PID.TID 0000.0001) %MON dynstat_sss_min              =   1.8751388529583E+01
(PID.TID 0000.0001) %MON dynstat_sss_mean             =   3.4632682904653E+01
(PID.TID 0000.0001) %MON dynstat_sss_sd               =   1.4659490650358E+00
(PID.TID 0000.0001) %MON dynstat_sss_del2             =   9.3285832119253E-03
(PID.TID 0000.0001) %MON forcing_qnet_max             =   4.9278644654745E+03
(PID.TID 0000.0001) %MON forcing_qnet_min             =  -3.6575686035156E+03
(PID.TID 0000.0001) %MON forcing_qnet_mean            =  -5.0102381437947E+01
(PID.TID 0000.0001) %MON forcing_qnet_sd              =   3.1091717377524E+02
(PID.TID 0000.0001) %MON forcing_qnet_del2            =   8.9843716015895E+00
(PID.TID 0000.0001) %MON forcing_qsw_max              =   0.0000000000000E+00
(PID.TID 0000.0001) %MON forcing_qsw_min              =  -4.4369850866252E+02
(PID.TID 0000.0001) %MON forcing_qsw_mean             =  -7.2751202277605E+01
(PID.TID 0000.0001) %MON forcing_qsw_sd               =   1.0660310920481E+02
(PID.TID 0000.0001) %MON forcing_qsw_del2             =   1.0933119635981E+00
(PID.TID 0000.0001) %MON forcing_empmr_max            =   1.0300571098924E-02
(PID.TID 0000.0001) %MON forcing_empmr_min            =  -1.4707449078560E-01
(PID.TID 0000.0001) %MON forcing_empmr_mean           =  -4.2097710295282E-04
(PID.TID 0000.0001) %MON forcing_empmr_sd             =   6.3064249510793E-03
(PID.TID 0000.0001) %MON forcing_empmr_del2           =   2.5545020742791E-04
(PID.TID 0000.0001) %MON forcing_fu_max               =   5.6386901398108E-01
(PID.TID 0000.0001) %MON forcing_fu_min               =  -4.0331425607954E-01
(PID.TID 0000.0001) %MON forcing_fu_mean              =  -3.0886525168485E-03
(PID.TID 0000.0001) %MON forcing_fu_sd                =   7.0127712938619E-02
(PID.TID 0000.0001) %MON forcing_fu_del2              =   6.9597868394093E-04
(PID.TID 0000.0001) %MON forcing_fv_max               =   3.1467760756879E-01
(PID.TID 0000.0001) %MON forcing_fv_min               =  -3.3538365576656E-01
(PID.TID 0000.0001) %MON forcing_fv_mean              =  -1.1807887964939E-02
(PID.TID 0000.0001) %MON forcing_fv_sd                =   6.8625612072888E-02
(PID.TID 0000.0001) %MON forcing_fv_del2              =   6.0381894005896E-04
(PID.TID 0000.0001) %MON trAdv_CFL_u_max              =   3.3220192695974E-03
(PID.TID 0000.0001) %MON trAdv_CFL_v_max              =   3.1271810089962E-03
(PID.TID 0000.0001) %MON trAdv_CFL_w_max              =   3.4395756305476E-03
(PID.TID 0000.0001) %MON advcfl_uvel_max              =   3.3047969783121E-03
(PID.TID 0000.0001) %MON advcfl_vvel_max              =   3.2736024579535E-03
(PID.TID 0000.0001) %MON advcfl_wvel_max              =   5.1156344621078E-03
(PID.TID 0000.0001) %MON advcfl_W_hf_max              =   3.4395756305476E-03
(PID.TID 0000.0001) %MON pe_b_mean                    =   5.1470886505507E-04
(PID.TID 0000.0001) %MON ke_max                       =   5.1085606386388E-01
(PID.TID 0000.0001) %MON ke_mean                      =   1.6634708547455E-04
(PID.TID 0000.0001) %MON ke_vol                       =   1.3398089824300E+18
(PID.TID 0000.0001) %MON vort_r_min                   =  -7.1556664478611E-06
(PID.TID 0000.0001) %MON vort_r_max                   =   2.9258570775149E-06
(PID.TID 0000.0001) %MON vort_a_mean                  =  -2.0549865324846E-05
(PID.TID 0000.0001) %MON vort_a_sd                    =   7.5259511941037E-05
(PID.TID 0000.0001) %MON vort_p_mean                  =  -2.4783348854777E-05
(PID.TID 0000.0001) %MON vort_p_sd                    =   1.2811915483371E-04
(PID.TID 0000.0001) %MON surfExpan_theta_mean         =  -7.2642168132394E-06
(PID.TID 0000.0001) %MON surfExpan_salt_mean          =   1.4095623567485E-06
(PID.TID 0000.0001) // =======================================================
(PID.TID 0000.0001) // End MONITOR dynamic field statistics
(PID.TID 0000.0001) // =======================================================
 Computing Diagnostic #     81  oceTAUX      Counter:       1   Parms: UU      U1      
           Vector  Mate for  oceTAUX      Diagnostic #     82  oceTAUY  exists 
 Computing Diagnostic #     82  oceTAUY      Counter:       1   Parms: VV      U1      
           Vector  Mate for  oceTAUY      Diagnostic #     81  oceTAUX  exists 
 Computing Diagnostic #     85  oceFWflx     Counter:       1   Parms: SM      U1      
 Computing Diagnostic #     86  oceSflux     Counter:       1   Parms: SM      U1      
 Computing Diagnostic #     87  oceQnet      Counter:       1   Parms: SM      U1      
 Computing Diagnostic #     88  oceQsw       Counter:       1   Parms: SM      U1      
 Computing Diagnostic #     27  SALT         Counter:       1   Parms: SMR     MR      
 Computing Diagnostic #     26  THETA        Counter:       1   Parms: SMR     MR      
 Computing Diagnostic #     45  UVELMASS     Counter:       1   Parms: UUr     MR      
           Vector  Mate for  UVELMASS     Diagnostic #     46  VVELMASS exists 
 Computing Diagnostic #     46  VVELMASS     Counter:       1   Parms: VVr     MR      
           Vector  Mate for  VVELMASS     Diagnostic #     45  UVELMASS exists 
 cg2d: Sum(rhs),rhsMax =  -1.95233478124005E+01  8.23927994567841E+01
(PID.TID 0000.0001)      cg2d_init_res =   1.86348272556901E-01
(PID.TID 0000.0001)      cg2d_iters(min,last) =      -1      10
(PID.TID 0000.0001)      cg2d_last_res =   5.73510230857375E-08
(PID.TID 0000.0001) // =======================================================
(PID.TID 0000.0001) // Begin MONITOR dynamic field statistics
(PID.TID 0000.0001) // =======================================================
(PID.TID 0000.0001) %MON time_tsnumber                =                 72024
(PID.TID 0000.0001) %MON time_secondsf                =   6.4821600000000E+07
(PID.TID 0000.0001) %MON dynstat_eta_max              =   3.7636597191043E+00
(PID.TID 0000.0001) %MON dynstat_eta_min              =  -4.3778811680094E+00
(PID.TID 0000.0001) %MON dynstat_eta_mean             =   1.8691524474618E-02
(PID.TID 0000.0001) %MON dynstat_eta_sd               =   6.2186133726300E-01
(PID.TID 0000.0001) %MON dynstat_eta_del2             =   3.7862658136860E-03
(PID.TID 0000.0001) %MON dynstat_uvel_max             =   8.1240290419806E-01
(PID.TID 0000.0001) %MON dynstat_uvel_min             =  -6.0092183791775E-01
(PID.TID 0000.0001) %MON dynstat_uvel_mean            =   1.8807579717550E-05
(PID.TID 0000.0001) %MON dynstat_uvel_sd              =   1.2998663067485E-02
(PID.TID 0000.0001) %MON dynstat_uvel_del2            =   9.1735846573957E-05
(PID.TID 0000.0001) %MON dynstat_vvel_max             =   3.2263714754014E-01
(PID.TID 0000.0001) %MON dynstat_vvel_min             =  -9.6799487247018E-01
(PID.TID 0000.0001) %MON dynstat_vvel_mean            =  -4.4173183655758E-04
(PID.TID 0000.0001) %MON dynstat_vvel_sd              =   1.3776320830423E-02
(PID.TID 0000.0001) %MON dynstat_vvel_del2            =   1.0470288911734E-04
(PID.TID 0000.0001) %MON dynstat_wvel_max             =   1.2420238200988E-04
(PID.TID 0000.0001) %MON dynstat_wvel_min             =  -4.4503159948845E-04
(PID.TID 0000.0001) %MON dynstat_wvel_mean            =  -2.6692198818977E-07
(PID.TID 0000.0001) %MON dynstat_wvel_sd              =   9.0039456207048E-06
(PID.TID 0000.0001) %MON dynstat_wvel_del2            =   8.0007688876793E-08
(PID.TID 0000.0001) %MON dynstat_theta_max            =   3.0927270605369E+01
(PID.TID 0000.0001) %MON dynstat_theta_min            =  -3.0062230200283E+00
(PID.TID 0000.0001) %MON dynstat_theta_mean           =   3.9091525525867E+00
(PID.TID 0000.0001) %MON dynstat_theta_sd             =   4.5713721304736E+00
(PID.TID 0000.0001) %MON dynstat_theta_del2           =   2.6486201370089E-03
(PID.TID 0000.0001) %MON dynstat_salt_max             =   4.1359917651439E+01
(PID.TID 0000.0001) %MON dynstat_salt_min             =   1.8518608878286E+01
(PID.TID 0000.0001) %MON dynstat_salt_mean            =   3.4772064139580E+01
(PID.TID 0000.0001) %MON dynstat_salt_sd              =   5.3131659178579E-01
(PID.TID 0000.0001) %MON dynstat_salt_del2            =   8.9392238751883E-04
(PID.TID 0000.0001) %MON dynstat_sst_max              =   3.0927270605369E+01
(PID.TID 0000.0001) %MON dynstat_sst_min              =  -1.8992049441275E+00
(PID.TID 0000.0001) %MON dynstat_sst_mean             =   1.8111154312117E+01
(PID.TID 0000.0001) %MON dynstat_sst_sd               =   9.8060710303820E+00
(PID.TID 0000.0001) %MON dynstat_sst_del2             =   1.5181073039111E-02
(PID.TID 0000.0001) %MON dynstat_sss_max              =   4.1359917651439E+01
(PID.TID 0000.0001) %MON dynstat_sss_min              =   1.8751389224535E+01
(PID.TID 0000.0001) %MON dynstat_sss_mean             =   3.4632358693292E+01
(PID.TID 0000.0001) %MON dynstat_sss_sd               =   1.4664533892885E+00
(PID.TID 0000.0001) %MON dynstat_sss_del2             =   9.4114052882342E-03
(PID.TID 0000.0001) %MON forcing_qnet_max             =   3.0904262389311E+03
(PID.TID 0000.0001) %MON forcing_qnet_min             =  -2.4442590332031E+03
(PID.TID 0000.0001) %MON forcing_qnet_mean            =  -4.7834495698034E+01
(PID.TID 0000.0001) %MON forcing_qnet_sd              =   2.8505874861491E+02
(PID.TID 0000.0001) %MON forcing_qnet_del2            =   7.3093354706206E+00
(PID.TID 0000.0001) %MON forcing_qsw_max              =   0.0000000000000E+00
(PID.TID 0000.0001) %MON forcing_qsw_min              =  -4.4558265952642E+02
(PID.TID 0000.0001) %MON forcing_qsw_mean             =  -7.1445472341961E+01
(PID.TID 0000.0001) %MON forcing_qsw_sd               =   1.0500249538774E+02
(PID.TID 0000.0001) %MON forcing_qsw_del2             =   1.0950752360390E+00
(PID.TID 0000.0001) %MON forcing_empmr_max            =   9.5744645223022E-03
(PID.TID 0000.0001) %MON forcing_empmr_min            =  -1.4365953207016E-01
(PID.TID 0000.0001) %MON forcing_empmr_mean           =  -4.1502538986597E-04
(PID.TID 0000.0001) %MON forcing_empmr_sd             =   6.2100158599544E-03
(PID.TID 0000.0001) %MON forcing_empmr_del2           =   2.5107618187500E-04
(PID.TID 0000.0001) %MON forcing_fu_max               =   5.4278668099048E-01
(PID.TID 0000.0001) %MON forcing_fu_min               =  -3.9928627081522E-01
(PID.TID 0000.0001) %MON forcing_fu_mean              =  -3.0521629031359E-03
(PID.TID 0000.0001) %MON forcing_fu_sd                =   6.9633134446929E-02
(PID.TID 0000.0001) %MON forcing_fu_del2              =   6.8821763153312E-04
(PID.TID 0000.0001) %MON forcing_fv_max               =   3.1649254802313E-01
(PID.TID 0000.0001) %MON forcing_fv_min               =  -3.2775737931166E-01
(PID.TID 0000.0001) %MON forcing_fv_mean              =  -1.1892181135312E-02
(PID.TID 0000.0001) %MON forcing_fv_sd                =   6.8091656285242E-02
(PID.TID 0000.0001) %MON forcing_fv_del2              =   5.9946804155719E-04
(PID.TID 0000.0001) %MON trAdv_CFL_u_max              =   2.7272971651013E-03
(PID.TID 0000.0001) %MON trAdv_CFL_v_max              =   3.1652677236090E-03
(PID.TID 0000.0001) %MON trAdv_CFL_w_max              =   3.1367463096617E-03
(PID.TID 0000.0001) %MON advcfl_uvel_max              =   2.7091740974485E-03
(PID.TID 0000.0001) %MON advcfl_vvel_max              =   3.3076435641062E-03
(PID.TID 0000.0001) %MON advcfl_wvel_max              =   4.9968532893969E-03
(PID.TID 0000.0001) %MON advcfl_W_hf_max              =   3.1367463096617E-03
(PID.TID 0000.0001) %MON pe_b_mean                    =   5.1563407352862E-04
(PID.TID 0000.0001) %MON ke_max                       =   4.6114122892000E-01
(PID.TID 0000.0001) %MON ke_mean                      =   1.6576390595031E-04
(PID.TID 0000.0001) %MON ke_vol                       =   1.3398091156369E+18
(PID.TID 0000.0001) %MON vort_r_min                   =  -6.5363525129483E-06
(PID.TID 0000.0001) %MON vort_r_max                   =   2.8947530529322E-06
(PID.TID 0000.0001) %MON vort_a_mean                  =  -2.0549865324846E-05
(PID.TID 0000.0001) %MON vort_a_sd                    =   7.5259510312559E-05
(PID.TID 0000.0001) %MON vort_p_mean                  =  -2.4783346272111E-05
(PID.TID 0000.0001) %MON vort_p_sd                    =   1.2811914107304E-04
(PID.TID 0000.0001) %MON surfExpan_theta_mean         =  -7.2225725254350E-06
(PID.TID 0000.0001) %MON surfExpan_salt_mean          =   1.3745189084068E-06
(PID.TID 0000.0001) // =======================================================
(PID.TID 0000.0001) // End MONITOR dynamic field statistics
(PID.TID 0000.0001) // =======================================================
 cg2d: Sum(rhs),rhsMax =  -2.09198901032996E+01  7.83572104746833E+01
(PID.TID 0000.0001)      cg2d_init_res =   1.90480509496758E-01
(PID.TID 0000.0001)      cg2d_iters(min,last) =      -1      10
(PID.TID 0000.0001)      cg2d_last_res =   6.62172647464383E-08
(PID.TID 0000.0001) // =======================================================
(PID.TID 0000.0001) // Begin MONITOR dynamic field statistics
(PID.TID 0000.0001) // =======================================================
(PID.TID 0000.0001) %MON time_tsnumber                =                 72025
(PID.TID 0000.0001) %MON time_secondsf                =   6.4822500000000E+07
(PID.TID 0000.0001) %MON dynstat_eta_max              =   3.5798670666041E+00
(PID.TID 0000.0001) %MON dynstat_eta_min              =  -4.3683752252866E+00
(PID.TID 0000.0001) %MON dynstat_eta_mean             =   1.9047568261976E-02
(PID.TID 0000.0001) %MON dynstat_eta_sd               =   6.2222683658549E-01
(PID.TID 0000.0001) %MON dynstat_eta_del2             =   3.7075815250108E-03
(PID.TID 0000.0001) %MON dynstat_uvel_max             =   6.2919573508946E-01
(PID.TID 0000.0001) %MON dynstat_uvel_min             =  -6.1578304535894E-01
(PID.TID 0000.0001) %MON dynstat_uvel_mean            =   1.0949861377034E-05
(PID.TID 0000.0001) %MON dynstat_uvel_sd              =   1.2919504186837E-02
(PID.TID 0000.0001) %MON dynstat_uvel_del2            =   8.9025313496031E-05
(PID.TID 0000.0001) %MON dynstat_vvel_max             =   3.2973380224949E-01
(PID.TID 0000.0001) %MON dynstat_vvel_min             =  -9.6294715803778E-01
(PID.TID 0000.0001) %MON dynstat_vvel_mean            =  -4.4572768796533E-04
(PID.TID 0000.0001) %MON dynstat_vvel_sd              =   1.3825403567627E-02
(PID.TID 0000.0001) %MON dynstat_vvel_del2            =   1.0761093773203E-04
(PID.TID 0000.0001) %MON dynstat_wvel_max             =   1.3842051697002E-04
(PID.TID 0000.0001) %MON dynstat_wvel_min             =  -4.4359974815416E-04
(PID.TID 0000.0001) %MON dynstat_wvel_mean            =  -2.4665830485630E-07
(PID.TID 0000.0001) %MON dynstat_wvel_sd              =   8.8693695095587E-06
(PID.TID 0000.0001) %MON dynstat_wvel_del2            =   7.8872791360044E-08
(PID.TID 0000.0001) %MON dynstat_theta_max            =   3.0927886701577E+01
(PID.TID 0000.0001) %MON dynstat_theta_min            =  -3.0060979338132E+00
(PID.TID 0000.0001) %MON dynstat_theta_mean           =   3.9091572341789E+00
(PID.TID 0000.0001) %MON dynstat_theta_sd             =   4.5713905910055E+00
(PID.TID 0000.0001) %MON dynstat_theta_del2           =   2.6484892889923E-03
(PID.TID 0000.0001) %MON dynstat_salt_max             =   4.1359448804207E+01
(PID.TID 0000.0001) %MON dynstat_salt_min             =   1.8518618822635E+01
(PID.TID 0000.0001) %MON dynstat_salt_mean            =   3.4772059798736E+01
(PID.TID 0000.0001) %MON dynstat_salt_sd              =   5.3133662133317E-01
(PID.TID 0000.0001) %MON dynstat_salt_del2            =   8.9944821336014E-04
(PID.TID 0000.0001) %MON dynstat_sst_max              =   3.0927886701577E+01
(PID.TID 0000.0001) %MON dynstat_sst_min              =  -1.8991478424406E+00
(PID.TID 0000.0001) %MON dynstat_sst_mean             =   1.8111354589555E+01
(PID.TID 0000.0001) %MON dynstat_sst_sd               =   9.8062822729467E+00
(PID.TID 0000.0001) %MON dynstat_sst_del2             =   1.5178331983204E-02
(PID.TID 0000.0001) %MON dynstat_sss_max              =   4.1359448804207E+01
(PID.TID 0000.0001) %MON dynstat_sss_min              =   1.8751389863577E+01
(PID.TID 0000.0001) %MON dynstat_sss_mean             =   3.4632043612562E+01
(PID.TID 0000.0001) %MON dynstat_sss_sd               =   1.4669587894416E+00
(PID.TID 0000.0001) %MON dynstat_sss_del2             =   9.4941904221272E-03
(PID.TID 0000.0001) %MON forcing_qnet_max             =   3.0464311947066E+03
(PID.TID 0000.0001) %MON forcing_qnet_min             =  -2.4137648925781E+03
(PID.TID 0000.0001) %MON forcing_qnet_mean            =  -4.3230730535397E+01
(PID.TID 0000.0001) %MON forcing_qnet_sd              =   2.7862654865926E+02
(PID.TID 0000.0001) %MON forcing_qnet_del2            =   7.0517595325675E+00
(PID.TID 0000.0001) %MON forcing_qsw_max              =   0.0000000000000E+00
(PID.TID 0000.0001) %MON forcing_qsw_min              =  -4.3802719523666E+02
(PID.TID 0000.0001) %MON forcing_qsw_mean             =  -6.9544441373561E+01
(PID.TID 0000.0001) %MON forcing_qsw_sd               =   1.0264150391402E+02
(PID.TID 0000.0001) %MON forcing_qsw_del2             =   1.1041128736150E+00
(PID.TID 0000.0001) %MON forcing_empmr_max            =   8.7586864829063E-03
(PID.TID 0000.0001) %MON forcing_empmr_min            =  -1.3968949019909E-01
(PID.TID 0000.0001) %MON forcing_empmr_mean           =  -4.0945035546218E-04
(PID.TID 0000.0001) %MON forcing_empmr_sd             =   6.1143814637122E-03
(PID.TID 0000.0001) %MON forcing_empmr_del2           =   2.4681916051668E-04
(PID.TID 0000.0001) %MON forcing_fu_max               =   5.2208514720932E-01
(PID.TID 0000.0001) %MON forcing_fu_min               =  -3.9486482780041E-01
(PID.TID 0000.0001) %MON forcing_fu_mean              =  -3.0577898829810E-03
(PID.TID 0000.0001) %MON forcing_fu_sd                =   6.9069117820095E-02
(PID.TID 0000.0001) %MON forcing_fu_del2              =   6.8136698353487E-04
(PID.TID 0000.0001) %MON forcing_fv_max               =   3.1634257556526E-01
(PID.TID 0000.0001) %MON forcing_fv_min               =  -3.2096033179620E-01
(PID.TID 0000.0001) %MON forcing_fv_mean              =  -1.1972149981785E-02
(PID.TID 0000.0001) %MON forcing_fv_sd                =   6.7552809772731E-02
(PID.TID 0000.0001) %MON forcing_fv_del2              =   5.9495907865477E-04
(PID.TID 0000.0001) %MON trAdv_CFL_u_max              =   2.1412175400654E-03
(PID.TID 0000.0001) %MON trAdv_CFL_v_max              =   3.2429481746423E-03
(PID.TID 0000.0001) %MON trAdv_CFL_w_max              =   2.8391395535186E-03
(PID.TID 0000.0001) %MON advcfl_uvel_max              =   2.0982209429841E-03
(PID.TID 0000.0001) %MON advcfl_vvel_max              =   3.2903954973751E-03
(PID.TID 0000.0001) %MON advcfl_wvel_max              =   4.8587648764901E-03
(PID.TID 0000.0001) %MON advcfl_W_hf_max              =   2.8391395535186E-03
(PID.TID 0000.0001) %MON pe_b_mean                    =   5.1625768233949E-04
(PID.TID 0000.0001) %MON ke_max                       =   4.1737432301607E-01
(PID.TID 0000.0001) %MON ke_mean                      =   1.6545155806313E-04
(PID.TID 0000.0001) %MON ke_vol                       =   1.3398092469606E+18
(PID.TID 0000.0001) %MON vort_r_min                   =  -5.8435336058649E-06
(PID.TID 0000.0001) %MON vort_r_max                   =   2.8450870220364E-06
(PID.TID 0000.0001) %MON vort_a_mean                  =  -2.0549865324846E-05
(PID.TID 0000.0001) %MON vort_a_sd                    =   7.5259508377089E-05
(PID.TID 0000.0001) %MON vort_p_mean                  =  -2.4783343768815E-05
(PID.TID 0000.0001) %MON vort_p_sd                    =   1.2811912523545E-04
(PID.TID 0000.0001) %MON surfExpan_theta_mean         =  -7.1862451507492E-06
(PID.TID 0000.0001) %MON surfExpan_salt_mean          =   1.3396882622676E-06
(PID.TID 0000.0001) // =======================================================
(PID.TID 0000.0001) // End MONITOR dynamic field statistics
(PID.TID 0000.0001) // =======================================================
 cg2d: Sum(rhs),rhsMax =  -2.19548903540882E+01  7.60372439331568E+01
(PID.TID 0000.0001)      cg2d_init_res =   1.92748699828900E-01
(PID.TID 0000.0001)      cg2d_iters(min,last) =      -1      10
(PID.TID 0000.0001)      cg2d_last_res =   6.84410794268395E-08
(PID.TID 0000.0001) // =======================================================
(PID.TID 0000.0001) // Begin MONITOR dynamic field statistics
(PID.TID 0000.0001) // =======================================================
(PID.TID 0000.0001) %MON time_tsnumber                =                 72026
(PID.TID 0000.0001) %MON time_secondsf                =   6.4823400000000E+07
(PID.TID 0000.0001) %MON dynstat_eta_max              =   3.3646991538809E+00
(PID.TID 0000.0001) %MON dynstat_eta_min              =  -4.2835299848389E+00
(PID.TID 0000.0001) %MON dynstat_eta_mean             =   1.9398082974192E-02
(PID.TID 0000.0001) %MON dynstat_eta_sd               =   6.2240192106899E-01
(PID.TID 0000.0001) %MON dynstat_eta_del2             =   3.6003935005368E-03
(PID.TID 0000.0001) %MON dynstat_uvel_max             =   4.5434107933443E-01
(PID.TID 0000.0001) %MON dynstat_uvel_min             =  -6.6601452123708E-01
(PID.TID 0000.0001) %MON dynstat_uvel_mean            =  -2.1742846161536E-06
(PID.TID 0000.0001) %MON dynstat_uvel_sd              =   1.2858301289244E-02
(PID.TID 0000.0001) %MON dynstat_uvel_del2            =   8.6961585556088E-05
(PID.TID 0000.0001) %MON dynstat_vvel_max             =   3.3535391053672E-01
(PID.TID 0000.0001) %MON dynstat_vvel_min             =  -9.6133150722872E-01
(PID.TID 0000.0001) %MON dynstat_vvel_mean            =  -4.4991199664059E-04
(PID.TID 0000.0001) %MON dynstat_vvel_sd              =   1.3876753244610E-02
(PID.TID 0000.0001) %MON dynstat_vvel_del2            =   1.1098166532353E-04
(PID.TID 0000.0001) %MON dynstat_wvel_max             =   1.5058680501752E-04
(PID.TID 0000.0001) %MON dynstat_wvel_min             =  -4.3265915327981E-04
(PID.TID 0000.0001) %MON dynstat_wvel_mean            =  -2.2474155967960E-07
(PID.TID 0000.0001) %MON dynstat_wvel_sd              =   8.7380728344863E-06
(PID.TID 0000.0001) %MON dynstat_wvel_del2            =   7.7776188516198E-08
(PID.TID 0000.0001) %MON dynstat_theta_max            =   3.0928525288856E+01
(PID.TID 0000.0001) %MON dynstat_theta_min            =  -3.0060172961745E+00
(PID.TID 0000.0001) %MON dynstat_theta_mean           =   3.9091617023215E+00
(PID.TID 0000.0001) %MON dynstat_theta_sd             =   4.5714082804306E+00
(PID.TID 0000.0001) %MON dynstat_theta_del2           =   2.6483575224212E-03
(PID.TID 0000.0001) %MON dynstat_salt_max             =   4.1359018034819E+01
(PID.TID 0000.0001) %MON dynstat_salt_min             =   1.8518628806367E+01
(PID.TID 0000.0001) %MON dynstat_salt_mean            =   3.4772055560380E+01
(PID.TID 0000.0001) %MON dynstat_salt_sd              =   5.3135658546929E-01
(PID.TID 0000.0001) %MON dynstat_salt_del2            =   9.0497648524611E-04
(PID.TID 0000.0001) %MON dynstat_sst_max              =   3.0928525288856E+01
(PID.TID 0000.0001) %MON dynstat_sst_min              =  -1.8990834871222E+00
(PID.TID 0000.0001) %MON dynstat_sst_mean             =   1.8111542973052E+01
(PID.TID 0000.0001) %MON dynstat_sst_sd               =   9.8064874165406E+00
(PID.TID 0000.0001) %MON dynstat_sst_del2             =   1.5175591513499E-02
(PID.TID 0000.0001) %MON dynstat_sss_max              =   4.1359018034819E+01
(PID.TID 0000.0001) %MON dynstat_sss_min              =   1.8751390462844E+01
(PID.TID 0000.0001) %MON dynstat_sss_mean             =   3.4631736159124E+01
(PID.TID 0000.0001) %MON dynstat_sss_sd               =   1.4674630038357E+00
(PID.TID 0000.0001) %MON dynstat_sss_del2             =   9.5768067652351E-03
(PID.TID 0000.0001) %MON forcing_qnet_max             =   3.0045241717774E+03
(PID.TID 0000.0001) %MON forcing_qnet_min             =  -2.4109135742188E+03
(PID.TID 0000.0001) %MON forcing_qnet_mean            =  -4.0126405901333E+01
(PID.TID 0000.0001) %MON forcing_qnet_sd              =   2.7481259629037E+02
(PID.TID 0000.0001) %MON forcing_qnet_del2            =   6.7779045444037E+00
(PID.TID 0000.0001) %MON forcing_qsw_max              =   0.0000000000000E+00
(PID.TID 0000.0001) %MON forcing_qsw_min              =  -4.3623953260476E+02
(PID.TID 0000.0001) %MON forcing_qsw_mean             =  -6.8703413943241E+01
(PID.TID 0000.0001) %MON forcing_qsw_sd               =   1.0159005428408E+02
(PID.TID 0000.0001) %MON forcing_qsw_del2             =   1.1023258686120E+00
(PID.TID 0000.0001) %MON forcing_empmr_max            =   8.5626496002078E-03
(PID.TID 0000.0001) %MON forcing_empmr_min            =  -1.3603155314922E-01
(PID.TID 0000.0001) %MON forcing_empmr_mean           =  -4.0309191904793E-04
(PID.TID 0000.0001) %MON forcing_empmr_sd             =   6.0217302841035E-03
(PID.TID 0000.0001) %MON forcing_empmr_del2           =   2.4269187632076E-04
(PID.TID 0000.0001) %MON forcing_fu_max               =   5.0775949939053E-01
(PID.TID 0000.0001) %MON forcing_fu_min               =  -3.8990640210888E-01
(PID.TID 0000.0001) %MON forcing_fu_mean              =  -3.0236300685344E-03
(PID.TID 0000.0001) %MON forcing_fu_sd                =   6.8393563824551E-02
(PID.TID 0000.0001) %MON forcing_fu_del2              =   6.7346863726268E-04
(PID.TID 0000.0001) %MON forcing_fv_max               =   3.1523800264060E-01
(PID.TID 0000.0001) %MON forcing_fv_min               =  -3.1390851425327E-01
(PID.TID 0000.0001) %MON forcing_fv_mean              =  -1.2044971469539E-02
(PID.TID 0000.0001) %MON forcing_fv_sd                =   6.7023344286326E-02
(PID.TID 0000.0001) %MON forcing_fv_del2              =   5.8979698767434E-04
(PID.TID 0000.0001) %MON trAdv_CFL_u_max              =   1.9582969086557E-03
(PID.TID 0000.0001) %MON trAdv_CFL_v_max              =   3.7167461061431E-03
(PID.TID 0000.0001) %MON trAdv_CFL_w_max              =   2.5510159217575E-03
(PID.TID 0000.0001) %MON advcfl_uvel_max              =   1.9602386133898E-03
(PID.TID 0000.0001) %MON advcfl_vvel_max              =   3.2228777533131E-03
(PID.TID 0000.0001) %MON advcfl_wvel_max              =   4.7315322834512E-03
(PID.TID 0000.0001) %MON advcfl_W_hf_max              =   2.5510159217575E-03
(PID.TID 0000.0001) %MON pe_b_mean                    =   5.1656588632763E-04
(PID.TID 0000.0001) %MON ke_max                       =   3.8067159108434E-01
(PID.TID 0000.0001) %MON ke_mean                      =   1.6538852956022E-04
(PID.TID 0000.0001) %MON ke_vol                       =   1.3398093765202E+18
(PID.TID 0000.0001) %MON vort_r_min                   =  -5.3389933853729E-06
(PID.TID 0000.0001) %MON vort_r_max                   =   2.7778264486759E-06
(PID.TID 0000.0001) %MON vort_a_mean                  =  -2.0549865324846E-05
(PID.TID 0000.0001) %MON vort_a_sd                    =   7.5259506253601E-05
(PID.TID 0000.0001) %MON vort_p_mean                  =  -2.4783341340055E-05
(PID.TID 0000.0001) %MON vort_p_sd                    =   1.2811910898571E-04
(PID.TID 0000.0001) %MON surfExpan_theta_mean         =  -7.1335755618704E-06
(PID.TID 0000.0001) %MON surfExpan_salt_mean          =   1.3046371642924E-06
(PID.TID 0000.0001) // =======================================================
(PID.TID 0000.0001) // End MONITOR dynamic field statistics
(PID.TID 0000.0001) // =======================================================
 cg2d: Sum(rhs),rhsMax =  -2.31940223449626E+01  7.32681673202677E+01
(PID.TID 0000.0001)      cg2d_init_res =   2.00021010933390E-01
(PID.TID 0000.0001)      cg2d_iters(min,last) =      -1      10
(PID.TID 0000.0001)      cg2d_last_res =   6.95330268980895E-08
(PID.TID 0000.0001) // =======================================================
(PID.TID 0000.0001) // Begin MONITOR dynamic field statistics
(PID.TID 0000.0001) // =======================================================
(PID.TID 0000.0001) %MON time_tsnumber                =                 72027
(PID.TID 0000.0001) %MON time_secondsf                =   6.4824300000000E+07
(PID.TID 0000.0001) %MON dynstat_eta_max              =   3.1222416134062E+00
(PID.TID 0000.0001) %MON dynstat_eta_min              =  -4.1268197948693E+00
(PID.TID 0000.0001) %MON dynstat_eta_mean             =   1.9746611097785E-02
(PID.TID 0000.0001) %MON dynstat_eta_sd               =   6.2238858134486E-01
(PID.TID 0000.0001) %MON dynstat_eta_del2             =   3.4678544530406E-03
(PID.TID 0000.0001) %MON dynstat_uvel_max             =   4.1778717031954E-01
(PID.TID 0000.0001) %MON dynstat_uvel_min             =  -7.1479799604630E-01
(PID.TID 0000.0001) %MON dynstat_uvel_mean            =  -2.0362150511980E-05
(PID.TID 0000.0001) %MON dynstat_uvel_sd              =   1.2816720268410E-02
(PID.TID 0000.0001) %MON dynstat_uvel_del2            =   8.5530445000855E-05
(PID.TID 0000.0001) %MON dynstat_vvel_max             =   4.6642909831433E-01
(PID.TID 0000.0001) %MON dynstat_vvel_min             =  -9.6170630730197E-01
(PID.TID 0000.0001) %MON dynstat_vvel_mean            =  -4.5371567854409E-04
(PID.TID 0000.0001) %MON dynstat_vvel_sd              =   1.3926694466328E-02
(PID.TID 0000.0001) %MON dynstat_vvel_del2            =   1.1447748717630E-04
(PID.TID 0000.0001) %MON dynstat_wvel_max             =   1.6079536023173E-04
(PID.TID 0000.0001) %MON dynstat_wvel_min             =  -4.1432284937850E-04
(PID.TID 0000.0001) %MON dynstat_wvel_mean            =  -2.0265722936779E-07
(PID.TID 0000.0001) %MON dynstat_wvel_sd              =   8.6291373424455E-06
(PID.TID 0000.0001) %MON dynstat_wvel_del2            =   7.6803854903927E-08
(PID.TID 0000.0001) %MON dynstat_theta_max            =   3.0929182513290E+01
(PID.TID 0000.0001) %MON dynstat_theta_min            =  -3.0059667837271E+00
(PID.TID 0000.0001) %MON dynstat_theta_mean           =   3.9091660216055E+00
(PID.TID 0000.0001) %MON dynstat_theta_sd             =   4.5714252802674E+00
(PID.TID 0000.0001) %MON dynstat_theta_del2           =   2.6482397488373E-03
(PID.TID 0000.0001) %MON dynstat_salt_max             =   4.1358621926794E+01
(PID.TID 0000.0001) %MON dynstat_salt_min             =   1.8518638835085E+01
(PID.TID 0000.0001) %MON dynstat_salt_mean            =   3.4772051418867E+01
(PID.TID 0000.0001) %MON dynstat_salt_sd              =   5.3137636410693E-01
(PID.TID 0000.0001) %MON dynstat_salt_del2            =   9.1050010584472E-04
(PID.TID 0000.0001) %MON dynstat_sst_max              =   3.0929182513290E+01
(PID.TID 0000.0001) %MON dynstat_sst_min              =  -1.9001465465341E+00
(PID.TID 0000.0001) %MON dynstat_sst_mean             =   1.8111714831540E+01
(PID.TID 0000.0001) %MON dynstat_sst_sd               =   9.8066998900929E+00
(PID.TID 0000.0001) %MON dynstat_sst_del2             =   1.5173245777820E-02
(PID.TID 0000.0001) %MON dynstat_sss_max              =   4.1358621926794E+01
(PID.TID 0000.0001) %MON dynstat_sss_min              =   1.8751391080092E+01
(PID.TID 0000.0001) %MON dynstat_sss_mean             =   3.4631435506877E+01
(PID.TID 0000.0001) %MON dynstat_sss_sd               =   1.4679628759504E+00
(PID.TID 0000.0001) %MON dynstat_sss_del2             =   9.6591543007258E-03
(PID.TID 0000.0001) %MON forcing_qnet_max             =   3.2080832519531E+03
(PID.TID 0000.0001) %MON forcing_qnet_min             =  -1.0588291992188E+04
(PID.TID 0000.0001) %MON forcing_qnet_mean            =  -3.7836652690014E+01
(PID.TID 0000.0001) %MON forcing_qnet_sd              =   3.0978812296288E+02
(PID.TID 0000.0001) %MON forcing_qnet_del2            =   7.4898673302046E+00
(PID.TID 0000.0001) %MON forcing_qsw_max              =   0.0000000000000E+00
(PID.TID 0000.0001) %MON forcing_qsw_min              =  -4.3263977125726E+02
(PID.TID 0000.0001) %MON forcing_qsw_mean             =  -6.7684726161806E+01
(PID.TID 0000.0001) %MON forcing_qsw_sd               =   1.0052179769524E+02
(PID.TID 0000.0001) %MON forcing_qsw_del2             =   1.0973434667702E+00
(PID.TID 0000.0001) %MON forcing_empmr_max            =   8.4743816405535E-03
(PID.TID 0000.0001) %MON forcing_empmr_min            =  -1.3110421597958E-01
(PID.TID 0000.0001) %MON forcing_empmr_mean           =  -4.0080734213182E-04
(PID.TID 0000.0001) %MON forcing_empmr_sd             =   5.9222512472224E-03
(PID.TID 0000.0001) %MON forcing_empmr_del2           =   2.3815463650461E-04
(PID.TID 0000.0001) %MON forcing_fu_max               =   4.8953316053570E-01
(PID.TID 0000.0001) %MON forcing_fu_min               =  -3.8403008663081E-01
(PID.TID 0000.0001) %MON forcing_fu_mean              =  -2.9794151000083E-03
(PID.TID 0000.0001) %MON forcing_fu_sd                =   6.7816921912732E-02
(PID.TID 0000.0001) %MON forcing_fu_del2              =   6.6556565970182E-04
(PID.TID 0000.0001) %MON forcing_fv_max               =   3.1693028016330E-01
(PID.TID 0000.0001) %MON forcing_fv_min               =  -3.0838843714726E-01
(PID.TID 0000.0001) %MON forcing_fv_mean              =  -1.2121335256677E-02
(PID.TID 0000.0001) %MON forcing_fv_sd                =   6.6611518305382E-02
(PID.TID 0000.0001) %MON forcing_fv_del2              =   5.8558451342944E-04
(PID.TID 0000.0001) %MON trAdv_CFL_u_max              =   2.1021954824080E-03
(PID.TID 0000.0001) %MON trAdv_CFL_v_max              =   4.1374910808014E-03
(PID.TID 0000.0001) %MON trAdv_CFL_w_max              =   2.2769273143323E-03
(PID.TID 0000.0001) %MON advcfl_uvel_max              =   2.1038199437769E-03
(PID.TID 0000.0001) %MON advcfl_vvel_max              =   3.1067953119673E-03
(PID.TID 0000.0001) %MON advcfl_wvel_max              =   4.5601466427679E-03
(PID.TID 0000.0001) %MON advcfl_W_hf_max              =   2.2769273143323E-03
(PID.TID 0000.0001) %MON pe_b_mean                    =   5.1656189106081E-04
(PID.TID 0000.0001) %MON ke_max                       =   3.9315254281800E-01
(PID.TID 0000.0001) %MON ke_mean                      =   1.6554417021577E-04
(PID.TID 0000.0001) %MON ke_vol                       =   1.3398095040679E+18
(PID.TID 0000.0001) %MON vort_r_min                   =  -5.5010083596458E-06
(PID.TID 0000.0001) %MON vort_r_max                   =   2.6942208610362E-06
(PID.TID 0000.0001) %MON vort_a_mean                  =  -2.0549865324846E-05
(PID.TID 0000.0001) %MON vort_a_sd                    =   7.5259504103029E-05
(PID.TID 0000.0001) %MON vort_p_mean                  =  -2.4783338989138E-05
(PID.TID 0000.0001) %MON vort_p_sd                    =   1.2811909399555E-04
(PID.TID 0000.0001) %MON surfExpan_theta_mean         =  -7.1178188056132E-06
(PID.TID 0000.0001) %MON surfExpan_salt_mean          =   1.2683336045144E-06
(PID.TID 0000.0001) // =======================================================
(PID.TID 0000.0001) // End MONITOR dynamic field statistics
(PID.TID 0000.0001) // =======================================================
 Computing Diagnostic #     81  oceTAUX      Counter:       1   Parms: UU      U1      
           Vector  Mate for  oceTAUX      Diagnostic #     82  oceTAUY  exists 
 Computing Diagnostic #     82  oceTAUY      Counter:       1   Parms: VV      U1      
           Vector  Mate for  oceTAUY      Diagnostic #     81  oceTAUX  exists 
 Computing Diagnostic #     85  oceFWflx     Counter:       1   Parms: SM      U1      
 Computing Diagnostic #     86  oceSflux     Counter:       1   Parms: SM      U1      
 Computing Diagnostic #     87  oceQnet      Counter:       1   Parms: SM      U1      
 Computing Diagnostic #     88  oceQsw       Counter:       1   Parms: SM      U1      
 Computing Diagnostic #     27  SALT         Counter:       1   Parms: SMR     MR      
 Computing Diagnostic #     26  THETA        Counter:       1   Parms: SMR     MR      
 Computing Diagnostic #     45  UVELMASS     Counter:       1   Parms: UUr     MR      
           Vector  Mate for  UVELMASS     Diagnostic #     46  VVELMASS exists 
 Computing Diagnostic #     46  VVELMASS     Counter:       1   Parms: VVr     MR      
           Vector  Mate for  VVELMASS     Diagnostic #     45  UVELMASS exists 
 cg2d: Sum(rhs),rhsMax =  -2.49441674746886E+01  6.93025110104664E+01
(PID.TID 0000.0001)      cg2d_init_res =   2.14057820031811E-01
(PID.TID 0000.0001)      cg2d_iters(min,last) =      -1      10
(PID.TID 0000.0001)      cg2d_last_res =   7.26875994025325E-08
(PID.TID 0000.0001) // =======================================================
(PID.TID 0000.0001) // Begin MONITOR dynamic field statistics
(PID.TID 0000.0001) // =======================================================
(PID.TID 0000.0001) %MON time_tsnumber                =                 72028
(PID.TID 0000.0001) %MON time_secondsf                =   6.4825200000000E+07
(PID.TID 0000.0001) %MON dynstat_eta_max              =   2.8569039314563E+00
(PID.TID 0000.0001) %MON dynstat_eta_min              =  -3.9028515328270E+00
(PID.TID 0000.0001) %MON dynstat_eta_mean             =   2.0087188611073E-02
(PID.TID 0000.0001) %MON dynstat_eta_sd               =   6.2220541992280E-01
(PID.TID 0000.0001) %MON dynstat_eta_del2             =   3.3144043776091E-03
(PID.TID 0000.0001) %MON dynstat_uvel_max             =   4.0146620862233E-01
(PID.TID 0000.0001) %MON dynstat_uvel_min             =  -7.6131715798884E-01
(PID.TID 0000.0001) %MON dynstat_uvel_mean            =  -4.3258777421338E-05
(PID.TID 0000.0001) %MON dynstat_uvel_sd              =   1.2794768361643E-02
(PID.TID 0000.0001) %MON dynstat_uvel_del2            =   8.4671897199117E-05
(PID.TID 0000.0001) %MON dynstat_vvel_max             =   6.0088415927001E-01
(PID.TID 0000.0001) %MON dynstat_vvel_min             =  -9.5283183670336E-01
(PID.TID 0000.0001) %MON dynstat_vvel_mean            =  -4.5650209458481E-04
(PID.TID 0000.0001) %MON dynstat_vvel_sd              =   1.3971588772881E-02
(PID.TID 0000.0001) %MON dynstat_vvel_del2            =   1.1783466809400E-04
(PID.TID 0000.0001) %MON dynstat_wvel_max             =   1.6922466866968E-04
(PID.TID 0000.0001) %MON dynstat_wvel_min             =  -3.9229312459533E-04
(PID.TID 0000.0001) %MON dynstat_wvel_mean            =  -1.7899533757658E-07
(PID.TID 0000.0001) %MON dynstat_wvel_sd              =   8.5522068903446E-06
(PID.TID 0000.0001) %MON dynstat_wvel_del2            =   7.6004395875176E-08
(PID.TID 0000.0001) %MON dynstat_theta_max            =   3.0929855652073E+01
(PID.TID 0000.0001) %MON dynstat_theta_min            =  -3.0059324143748E+00
(PID.TID 0000.0001) %MON dynstat_theta_mean           =   3.9091698579193E+00
(PID.TID 0000.0001) %MON dynstat_theta_sd             =   4.5714407607686E+00
(PID.TID 0000.0001) %MON dynstat_theta_del2           =   2.6481190024187E-03
(PID.TID 0000.0001) %MON dynstat_salt_max             =   4.1358255843848E+01
(PID.TID 0000.0001) %MON dynstat_salt_min             =   1.8518648912565E+01
(PID.TID 0000.0001) %MON dynstat_salt_mean            =   3.4772047291286E+01
(PID.TID 0000.0001) %MON dynstat_salt_sd              =   5.3139588736616E-01
(PID.TID 0000.0001) %MON dynstat_salt_del2            =   9.1601214834061E-04
(PID.TID 0000.0001) %MON dynstat_sst_max              =   3.0929855652073E+01
(PID.TID 0000.0001) %MON dynstat_sst_min              =  -1.9039135670021E+00
(PID.TID 0000.0001) %MON dynstat_sst_mean             =   1.8111865336170E+01
(PID.TID 0000.0001) %MON dynstat_sst_sd               =   9.8068918260675E+00
(PID.TID 0000.0001) %MON dynstat_sst_del2             =   1.5170870450598E-02
(PID.TID 0000.0001) %MON dynstat_sss_max              =   4.1358255843848E+01
(PID.TID 0000.0001) %MON dynstat_sss_min              =   1.8751391708700E+01
(PID.TID 0000.0001) %MON dynstat_sss_mean             =   3.4631137037775E+01
(PID.TID 0000.0001) %MON dynstat_sss_sd               =   1.4684559612955E+00
(PID.TID 0000.0001) %MON dynstat_sss_del2             =   9.7411331531486E-03
(PID.TID 0000.0001) %MON forcing_qnet_max             =   1.2247722018810E+04
(PID.TID 0000.0001) %MON forcing_qnet_min             =  -2.3287702636719E+03
(PID.TID 0000.0001) %MON forcing_qnet_mean            =  -3.0172809120720E+01
(PID.TID 0000.0001) %MON forcing_qnet_sd              =   3.1699923703783E+02
(PID.TID 0000.0001) %MON forcing_qnet_del2            =   9.4663067893710E+00
(PID.TID 0000.0001) %MON forcing_qsw_max              =   0.0000000000000E+00
(PID.TID 0000.0001) %MON forcing_qsw_min              =  -4.2724331967036E+02
(PID.TID 0000.0001) %MON forcing_qsw_mean             =  -6.6491057321238E+01
(PID.TID 0000.0001) %MON forcing_qsw_sd               =   9.9450138639334E+01
(PID.TID 0000.0001) %MON forcing_qsw_del2             =   1.0892242745982E+00
(PID.TID 0000.0001) %MON forcing_empmr_max            =   8.3870477974415E-03
(PID.TID 0000.0001) %MON forcing_empmr_min            =  -1.2600336968899E-01
(PID.TID 0000.0001) %MON forcing_empmr_mean           =  -3.9166414028168E-04
(PID.TID 0000.0001) %MON forcing_empmr_sd             =   5.8121484955251E-03
(PID.TID 0000.0001) %MON forcing_empmr_del2           =   2.3318680683417E-04
(PID.TID 0000.0001) %MON forcing_fu_max               =   4.6978046932902E-01
(PID.TID 0000.0001) %MON forcing_fu_min               =  -3.7992406528719E-01
(PID.TID 0000.0001) %MON forcing_fu_mean              =  -2.9923507106000E-03
(PID.TID 0000.0001) %MON forcing_fu_sd                =   6.7081558128667E-02
(PID.TID 0000.0001) %MON forcing_fu_del2              =   6.5668555824774E-04
(PID.TID 0000.0001) %MON forcing_fv_max               =   3.1830258876340E-01
(PID.TID 0000.0001) %MON forcing_fv_min               =  -3.0387353005315E-01
(PID.TID 0000.0001) %MON forcing_fv_mean              =  -1.2206667341954E-02
(PID.TID 0000.0001) %MON forcing_fv_sd                =   6.6245477859715E-02
(PID.TID 0000.0001) %MON forcing_fv_del2              =   5.8147611407728E-04
(PID.TID 0000.0001) %MON trAdv_CFL_u_max              =   2.2399250060063E-03
(PID.TID 0000.0001) %MON trAdv_CFL_v_max              =   4.5001001393827E-03
(PID.TID 0000.0001) %MON trAdv_CFL_w_max              =   2.0629224814953E-03
(PID.TID 0000.0001) %MON advcfl_uvel_max              =   2.2407368646466E-03
(PID.TID 0000.0001) %MON advcfl_vvel_max              =   2.9447224136245E-03
(PID.TID 0000.0001) %MON advcfl_wvel_max              =   4.3827259022257E-03
(PID.TID 0000.0001) %MON advcfl_W_hf_max              =   2.0371821556693E-03
(PID.TID 0000.0001) %MON pe_b_mean                    =   5.1627622978863E-04
(PID.TID 0000.0001) %MON ke_max                       =   4.0342264697831E-01
(PID.TID 0000.0001) %MON ke_mean                      =   1.6586890350884E-04
(PID.TID 0000.0001) %MON ke_vol                       =   1.3398096308926E+18
(PID.TID 0000.0001) %MON vort_r_min                   =  -5.6253124953666E-06
(PID.TID 0000.0001) %MON vort_r_max                   =   2.5957823088021E-06
(PID.TID 0000.0001) %MON vort_a_mean                  =  -2.0549865324846E-05
(PID.TID 0000.0001) %MON vort_a_sd                    =   7.5259502102675E-05
(PID.TID 0000.0001) %MON vort_p_mean                  =  -2.4783336696962E-05
(PID.TID 0000.0001) %MON vort_p_sd                    =   1.2811908093970E-04
(PID.TID 0000.0001) %MON surfExpan_theta_mean         =  -7.0793109479242E-06
(PID.TID 0000.0001) %MON surfExpan_salt_mean          =   1.2312895639093E-06
(PID.TID 0000.0001) // =======================================================
(PID.TID 0000.0001) // End MONITOR dynamic field statistics
(PID.TID 0000.0001) // =======================================================
 cg2d: Sum(rhs),rhsMax =  -2.73569659069665E+01  6.42402779610390E+01
(PID.TID 0000.0001)      cg2d_init_res =   2.36837734865023E-01
(PID.TID 0000.0001)      cg2d_iters(min,last) =      -1      10
(PID.TID 0000.0001)      cg2d_last_res =   7.85618160254318E-08
(PID.TID 0000.0001) // =======================================================
(PID.TID 0000.0001) // Begin MONITOR dynamic field statistics
(PID.TID 0000.0001) // =======================================================
(PID.TID 0000.0001) %MON time_tsnumber                =                 72029
(PID.TID 0000.0001) %MON time_secondsf                =   6.4826100000000E+07
(PID.TID 0000.0001) %MON dynstat_eta_max              =   2.5733191148009E+00
(PID.TID 0000.0001) %MON dynstat_eta_min              =  -3.6173003554784E+00
(PID.TID 0000.0001) %MON dynstat_eta_mean             =   2.0420976890436E-02
(PID.TID 0000.0001) %MON dynstat_eta_sd               =   6.2188186319810E-01
(PID.TID 0000.0001) %MON dynstat_eta_del2             =   3.1457602353176E-03
(PID.TID 0000.0001) %MON dynstat_uvel_max             =   3.9250155898967E-01
(PID.TID 0000.0001) %MON dynstat_uvel_min             =  -8.0475599782304E-01
(PID.TID 0000.0001) %MON dynstat_uvel_mean            =  -7.0310179978514E-05
(PID.TID 0000.0001) %MON dynstat_uvel_sd              =   1.2790993519193E-02
(PID.TID 0000.0001) %MON dynstat_uvel_del2            =   8.4290196634720E-05
(PID.TID 0000.0001) %MON dynstat_vvel_max             =   7.2166380491547E-01
(PID.TID 0000.0001) %MON dynstat_vvel_min             =  -9.6197214292372E-01
(PID.TID 0000.0001) %MON dynstat_vvel_mean            =  -4.5760909129704E-04
(PID.TID 0000.0001) %MON dynstat_vvel_sd              =   1.4008059629108E-02
(PID.TID 0000.0001) %MON dynstat_vvel_del2            =   1.2085998549585E-04
(PID.TID 0000.0001) %MON dynstat_wvel_max             =   1.7608895749207E-04
(PID.TID 0000.0001) %MON dynstat_wvel_min             =  -3.6688639085105E-04
(PID.TID 0000.0001) %MON dynstat_wvel_mean            =  -1.5459193486866E-07
(PID.TID 0000.0001) %MON dynstat_wvel_sd              =   8.5062020042349E-06
(PID.TID 0000.0001) %MON dynstat_wvel_del2            =   7.5371379209609E-08
(PID.TID 0000.0001) %MON dynstat_theta_max            =   3.0930549179132E+01
(PID.TID 0000.0001) %MON dynstat_theta_min            =  -3.0059019312383E+00
(PID.TID 0000.0001) %MON dynstat_theta_mean           =   3.9091734902260E+00
(PID.TID 0000.0001) %MON dynstat_theta_sd             =   4.5714554465603E+00
(PID.TID 0000.0001) %MON dynstat_theta_del2           =   2.6480001655837E-03
(PID.TID 0000.0001) %MON dynstat_salt_max             =   4.1357914397789E+01
(PID.TID 0000.0001) %MON dynstat_salt_min             =   1.8518659041859E+01
(PID.TID 0000.0001) %MON dynstat_salt_mean            =   3.4772043299564E+01
(PID.TID 0000.0001) %MON dynstat_salt_sd              =   5.3141564653807E-01
(PID.TID 0000.0001) %MON dynstat_salt_del2            =   9.2150604294719E-04
(PID.TID 0000.0001) %MON dynstat_sst_max              =   3.0930549179132E+01
(PID.TID 0000.0001) %MON dynstat_sst_min              =  -1.8988392715257E+00
(PID.TID 0000.0001) %MON dynstat_sst_mean             =   1.8112003878731E+01
(PID.TID 0000.0001) %MON dynstat_sst_sd               =   9.8070752599497E+00
(PID.TID 0000.0001) %MON dynstat_sst_del2             =   1.5168593755553E-02
(PID.TID 0000.0001) %MON dynstat_sss_max              =   4.1357914397789E+01
(PID.TID 0000.0001) %MON dynstat_sss_min              =   1.8751392272128E+01
(PID.TID 0000.0001) %MON dynstat_sss_mean             =   3.4630848417530E+01
(PID.TID 0000.0001) %MON dynstat_sss_sd               =   1.4689558254478E+00
(PID.TID 0000.0001) %MON dynstat_sss_del2             =   9.8226483709726E-03
(PID.TID 0000.0001) %MON forcing_qnet_max             =   2.8794347038923E+03
(PID.TID 0000.0001) %MON forcing_qnet_min             =  -2.1824057617188E+03
(PID.TID 0000.0001) %MON forcing_qnet_mean            =  -2.6880751910098E+01
(PID.TID 0000.0001) %MON forcing_qnet_sd              =   2.5980321643018E+02
(PID.TID 0000.0001) %MON forcing_qnet_del2            =   6.0663201197852E+00
(PID.TID 0000.0001) %MON forcing_qsw_max              =   0.0000000000000E+00
(PID.TID 0000.0001) %MON forcing_qsw_min              =  -4.0928762467489E+02
(PID.TID 0000.0001) %MON forcing_qsw_mean             =  -6.4482397139465E+01
(PID.TID 0000.0001) %MON forcing_qsw_sd               =   9.8070454160115E+01
(PID.TID 0000.0001) %MON forcing_qsw_del2             =   1.0720061007273E+00
(PID.TID 0000.0001) %MON forcing_empmr_max            =   8.3005512133241E-03
(PID.TID 0000.0001) %MON forcing_empmr_min            =  -1.2153679132462E-01
(PID.TID 0000.0001) %MON forcing_empmr_mean           =  -3.8385652126776E-04
(PID.TID 0000.0001) %MON forcing_empmr_sd             =   5.6978945098148E-03
(PID.TID 0000.0001) %MON forcing_empmr_del2           =   2.2767602131966E-04
(PID.TID 0000.0001) %MON forcing_fu_max               =   4.5607305870485E-01
(PID.TID 0000.0001) %MON forcing_fu_min               =  -3.7595764724153E-01
(PID.TID 0000.0001) %MON forcing_fu_mean              =  -3.0033060429141E-03
(PID.TID 0000.0001) %MON forcing_fu_sd                =   6.6401539006534E-02
(PID.TID 0000.0001) %MON forcing_fu_del2              =   6.4950714605800E-04
(PID.TID 0000.0001) %MON forcing_fv_max               =   3.1794544297479E-01
(PID.TID 0000.0001) %MON forcing_fv_min               =  -3.0047377731448E-01
(PID.TID 0000.0001) %MON forcing_fv_mean              =  -1.2312101251130E-02
(PID.TID 0000.0001) %MON forcing_fv_sd                =   6.5860014299632E-02
(PID.TID 0000.0001) %MON forcing_fv_del2              =   5.7734572829342E-04
(PID.TID 0000.0001) %MON trAdv_CFL_u_max              =   2.3691690750936E-03
(PID.TID 0000.0001) %MON trAdv_CFL_v_max              =   4.8004835254502E-03
(PID.TID 0000.0001) %MON trAdv_CFL_w_max              =   2.0113400286303E-03
(PID.TID 0000.0001) %MON advcfl_uvel_max              =   2.3685876673674E-03
(PID.TID 0000.0001) %MON advcfl_vvel_max              =   3.1392660011740E-03
(PID.TID 0000.0001) %MON advcfl_wvel_max              =   4.2273666547692E-03
(PID.TID 0000.0001) %MON advcfl_W_hf_max              =   1.9923251650880E-03
(PID.TID 0000.0001) %MON pe_b_mean                    =   5.1575794944742E-04
(PID.TID 0000.0001) %MON ke_max                       =   4.0926034508663E-01
(PID.TID 0000.0001) %MON ke_mean                      =   1.6629991942548E-04
(PID.TID 0000.0001) %MON ke_vol                       =   1.3398097548243E+18
(PID.TID 0000.0001) %MON vort_r_min                   =  -5.7092561024809E-06
(PID.TID 0000.0001) %MON vort_r_max                   =   2.4842592296653E-06
(PID.TID 0000.0001) %MON vort_a_mean                  =  -2.0549865324846E-05
(PID.TID 0000.0001) %MON vort_a_sd                    =   7.5259500443612E-05
(PID.TID 0000.0001) %MON vort_p_mean                  =  -2.4783334487822E-05
(PID.TID 0000.0001) %MON vort_p_sd                    =   1.2811907264611E-04
(PID.TID 0000.0001) %MON surfExpan_theta_mean         =  -7.0368395488630E-06
(PID.TID 0000.0001) %MON surfExpan_salt_mean          =   1.1940370087896E-06
(PID.TID 0000.0001) // =======================================================
(PID.TID 0000.0001) // End MONITOR dynamic field statistics
(PID.TID 0000.0001) // =======================================================
 cg2d: Sum(rhs),rhsMax =  -3.06791190339096E+01  5.81990139533449E+01
(PID.TID 0000.0001)      cg2d_init_res =   2.69013596967764E-01
(PID.TID 0000.0001)      cg2d_iters(min,last) =      -1      10
(PID.TID 0000.0001)      cg2d_last_res =   8.66263005818492E-08
(PID.TID 0000.0001) // =======================================================
(PID.TID 0000.0001) // Begin MONITOR dynamic field statistics
(PID.TID 0000.0001) // =======================================================
(PID.TID 0000.0001) %MON time_tsnumber                =                 72030
(PID.TID 0000.0001) %MON time_secondsf                =   6.4827000000000E+07
(PID.TID 0000.0001) %MON dynstat_eta_max              =   2.2762459907786E+00
(PID.TID 0000.0001) %MON dynstat_eta_min              =  -3.2768069228453E+00
(PID.TID 0000.0001) %MON dynstat_eta_mean             =   2.0747209115399E-02
(PID.TID 0000.0001) %MON dynstat_eta_sd               =   6.2145753280898E-01
(PID.TID 0000.0001) %MON dynstat_eta_del2             =   2.9685460835346E-03
(PID.TID 0000.0001) %MON dynstat_uvel_max             =   3.7968257582146E-01
(PID.TID 0000.0001) %MON dynstat_uvel_min             =  -8.4431578905835E-01
(PID.TID 0000.0001) %MON dynstat_uvel_mean            =  -1.0084179264787E-04
(PID.TID 0000.0001) %MON dynstat_uvel_sd              =   1.2802487910237E-02
(PID.TID 0000.0001) %MON dynstat_uvel_del2            =   8.4268110356085E-05
(PID.TID 0000.0001) %MON dynstat_vvel_max             =   8.2760658250474E-01
(PID.TID 0000.0001) %MON dynstat_vvel_min             =  -1.0391666906708E+00
(PID.TID 0000.0001) %MON dynstat_vvel_mean            =  -4.5635281420805E-04
(PID.TID 0000.0001) %MON dynstat_vvel_sd              =   1.4033386842379E-02
(PID.TID 0000.0001) %MON dynstat_vvel_del2            =   1.2342176233580E-04
(PID.TID 0000.0001) %MON dynstat_wvel_max             =   1.8159958791273E-04
(PID.TID 0000.0001) %MON dynstat_wvel_min             =  -3.4009597315479E-04
(PID.TID 0000.0001) %MON dynstat_wvel_mean            =  -1.3015865287148E-07
(PID.TID 0000.0001) %MON dynstat_wvel_sd              =   8.4818996412638E-06
(PID.TID 0000.0001) %MON dynstat_wvel_del2            =   7.4871386208602E-08
(PID.TID 0000.0001) %MON dynstat_theta_max            =   3.0931250828427E+01
(PID.TID 0000.0001) %MON dynstat_theta_min            =  -3.0058656401586E+00
(PID.TID 0000.0001) %MON dynstat_theta_mean           =   3.9091769079734E+00
(PID.TID 0000.0001) %MON dynstat_theta_sd             =   4.5714695055881E+00
(PID.TID 0000.0001) %MON dynstat_theta_del2           =   2.6478803083820E-03
(PID.TID 0000.0001) %MON dynstat_salt_max             =   4.1357568307305E+01
(PID.TID 0000.0001) %MON dynstat_salt_min             =   1.8518669223211E+01
(PID.TID 0000.0001) %MON dynstat_salt_mean            =   3.4772039389213E+01
(PID.TID 0000.0001) %MON dynstat_salt_sd              =   5.3143529840015E-01
(PID.TID 0000.0001) %MON dynstat_salt_del2            =   9.2698896370850E-04
(PID.TID 0000.0001) %MON dynstat_sst_max              =   3.0931250828427E+01
(PID.TID 0000.0001) %MON dynstat_sst_min              =  -1.9005812745252E+00
(PID.TID 0000.0001) %MON dynstat_sst_mean             =   1.8112127772956E+01
(PID.TID 0000.0001) %MON dynstat_sst_sd               =   9.8072617505698E+00
(PID.TID 0000.0001) %MON dynstat_sst_del2             =   1.5166309220112E-02
(PID.TID 0000.0001) %MON dynstat_sss_max              =   4.1357568307305E+01
(PID.TID 0000.0001) %MON dynstat_sss_min              =   1.8751393763013E+01
(PID.TID 0000.0001) %MON dynstat_sss_mean             =   3.4630565571158E+01
(PID.TID 0000.0001) %MON dynstat_sss_sd               =   1.4694530796160E+00
(PID.TID 0000.0001) %MON dynstat_sss_del2             =   9.9038120915373E-03
(PID.TID 0000.0001) %MON forcing_qnet_max             =   5.2310854492188E+03
(PID.TID 0000.0001) %MON forcing_qnet_min             =  -4.7090776367188E+03
(PID.TID 0000.0001) %MON forcing_qnet_mean            =  -2.3920324679056E+01
(PID.TID 0000.0001) %MON forcing_qnet_sd              =   2.8136311282550E+02
(PID.TID 0000.0001) %MON forcing_qnet_del2            =   7.9269372449941E+00
(PID.TID 0000.0001) %MON forcing_qsw_max              =   0.0000000000000E+00
(PID.TID 0000.0001) %MON forcing_qsw_min              =  -4.0060385680676E+02
(PID.TID 0000.0001) %MON forcing_qsw_mean             =  -6.3683504940067E+01
(PID.TID 0000.0001) %MON forcing_qsw_sd               =   9.7754169810871E+01
(PID.TID 0000.0001) %MON forcing_qsw_del2             =   1.0621519265870E+00
(PID.TID 0000.0001) %MON forcing_empmr_max            =   8.2149896770716E-03
(PID.TID 0000.0001) %MON forcing_empmr_min            =  -1.1807961016893E-01
(PID.TID 0000.0001) %MON forcing_empmr_mean           =  -3.7516705870690E-04
(PID.TID 0000.0001) %MON forcing_empmr_sd             =   5.5733599027649E-03
(PID.TID 0000.0001) %MON forcing_empmr_del2           =   2.2152497230787E-04
(PID.TID 0000.0001) %MON forcing_fu_max               =   4.4128007155018E-01
(PID.TID 0000.0001) %MON forcing_fu_min               =  -3.7279294565084E-01
(PID.TID 0000.0001) %MON forcing_fu_mean              =  -2.9979390400707E-03
(PID.TID 0000.0001) %MON forcing_fu_sd                =   6.5725723034448E-02
(PID.TID 0000.0001) %MON forcing_fu_del2              =   6.4221472339535E-04
(PID.TID 0000.0001) %MON forcing_fv_max               =   3.1897952854508E-01
(PID.TID 0000.0001) %MON forcing_fv_min               =  -2.9720073294770E-01
(PID.TID 0000.0001) %MON forcing_fv_mean              =  -1.2383133380644E-02
(PID.TID 0000.0001) %MON forcing_fv_sd                =   6.5597228374729E-02
(PID.TID 0000.0001) %MON forcing_fv_del2              =   5.7398296688083E-04
(PID.TID 0000.0001) %MON trAdv_CFL_u_max              =   2.4876408194753E-03
(PID.TID 0000.0001) %MON trAdv_CFL_v_max              =   5.0355675323505E-03
(PID.TID 0000.0001) %MON trAdv_CFL_w_max              =   1.9554743525080E-03
(PID.TID 0000.0001) %MON advcfl_uvel_max              =   2.4850215105410E-03
(PID.TID 0000.0001) %MON advcfl_vvel_max              =   3.3911799687467E-03
(PID.TID 0000.0001) %MON advcfl_wvel_max              =   4.1071168754412E-03
(PID.TID 0000.0001) %MON advcfl_W_hf_max              =   2.1369438988497E-03
(PID.TID 0000.0001) %MON pe_b_mean                    =   5.1507295528330E-04
(PID.TID 0000.0001) %MON ke_max                       =   4.1058492103711E-01
(PID.TID 0000.0001) %MON ke_mean                      =   1.6676649116343E-04
(PID.TID 0000.0001) %MON ke_vol                       =   1.3398098762854E+18
(PID.TID 0000.0001) %MON vort_r_min                   =  -5.7507494538935E-06
(PID.TID 0000.0001) %MON vort_r_max                   =   2.7316567748883E-06
(PID.TID 0000.0001) %MON vort_a_mean                  =  -2.0549865324846E-05
(PID.TID 0000.0001) %MON vort_a_sd                    =   7.5259499322100E-05
(PID.TID 0000.0001) %MON vort_p_mean                  =  -2.4783332358706E-05
(PID.TID 0000.0001) %MON vort_p_sd                    =   1.2811906914890E-04
(PID.TID 0000.0001) %MON surfExpan_theta_mean         =  -6.9909548290056E-06
(PID.TID 0000.0001) %MON surfExpan_salt_mean          =   1.1560927346176E-06
(PID.TID 0000.0001) // =======================================================
(PID.TID 0000.0001) // End MONITOR dynamic field statistics
(PID.TID 0000.0001) // =======================================================
 cg2d: Sum(rhs),rhsMax =  -3.53292555895382E+01  5.13113489054835E+01
(PID.TID 0000.0001)      cg2d_init_res =   3.12845571551933E-01
(PID.TID 0000.0001)      cg2d_iters(min,last) =      -1      10
(PID.TID 0000.0001)      cg2d_last_res =   9.85136542239826E-08
(PID.TID 0000.0001) // =======================================================
(PID.TID 0000.0001) // Begin MONITOR dynamic field statistics
(PID.TID 0000.0001) // =======================================================
(PID.TID 0000.0001) %MON time_tsnumber                =                 72031
(PID.TID 0000.0001) %MON time_secondsf                =   6.4827900000000E+07
(PID.TID 0000.0001) %MON dynstat_eta_max              =   1.9704754561325E+00
(PID.TID 0000.0001) %MON dynstat_eta_min              =  -2.8888410305196E+00
(PID.TID 0000.0001) %MON dynstat_eta_mean             =   2.1064399929629E-02
(PID.TID 0000.0001) %MON dynstat_eta_sd               =   6.2097692371900E-01
(PID.TID 0000.0001) %MON dynstat_eta_del2             =   2.7898777819092E-03
(PID.TID 0000.0001) %MON dynstat_uvel_max             =   3.6316993646082E-01
(PID.TID 0000.0001) %MON dynstat_uvel_min             =  -8.7923174562672E-01
(PID.TID 0000.0001) %MON dynstat_uvel_mean            =  -1.3409385636123E-04
(PID.TID 0000.0001) %MON dynstat_uvel_sd              =   1.2825573003026E-02
(PID.TID 0000.0001) %MON dynstat_uvel_del2            =   8.4488239413022E-05
(PID.TID 0000.0001) %MON dynstat_vvel_max             =   9.1786454792111E-01
(PID.TID 0000.0001) %MON dynstat_vvel_min             =  -1.0985088686328E+00
(PID.TID 0000.0001) %MON dynstat_vvel_mean            =  -4.5214680940308E-04
(PID.TID 0000.0001) %MON dynstat_vvel_sd              =   1.4045791287862E-02
(PID.TID 0000.0001) %MON dynstat_vvel_del2            =   1.2543756285706E-04
(PID.TID 0000.0001) %MON dynstat_wvel_max             =   1.8593959734612E-04
(PID.TID 0000.0001) %MON dynstat_wvel_min             =  -3.1357243431085E-04
(PID.TID 0000.0001) %MON dynstat_wvel_mean            =  -1.0590670894723E-07
(PID.TID 0000.0001) %MON dynstat_wvel_sd              =   8.4688242089760E-06
(PID.TID 0000.0001) %MON dynstat_wvel_del2            =   7.4514684135771E-08
(PID.TID 0000.0001) %MON dynstat_theta_max            =   3.0931955471485E+01
(PID.TID 0000.0001) %MON dynstat_theta_min            =  -3.0058166960205E+00
(PID.TID 0000.0001) %MON dynstat_theta_mean           =   3.9091801351660E+00
(PID.TID 0000.0001) %MON dynstat_theta_sd             =   4.5714828750760E+00
(PID.TID 0000.0001) %MON dynstat_theta_del2           =   2.6477649036704E-03
(PID.TID 0000.0001) %MON dynstat_salt_max             =   4.1357234278126E+01
(PID.TID 0000.0001) %MON dynstat_salt_min             =   1.8518679455310E+01
(PID.TID 0000.0001) %MON dynstat_salt_mean            =   3.4772035563367E+01
(PID.TID 0000.0001) %MON dynstat_salt_sd              =   5.3145488693264E-01
(PID.TID 0000.0001) %MON dynstat_salt_del2            =   9.3242652841197E-04
(PID.TID 0000.0001) %MON dynstat_sst_max              =   3.0931955471485E+01
(PID.TID 0000.0001) %MON dynstat_sst_min              =  -1.8999146305703E+00
(PID.TID 0000.0001) %MON dynstat_sst_mean             =   1.8112241351105E+01
(PID.TID 0000.0001) %MON dynstat_sst_sd               =   9.8074421915083E+00
(PID.TID 0000.0001) %MON dynstat_sst_del2             =   1.5164180790880E-02
(PID.TID 0000.0001) %MON dynstat_sss_max              =   4.1357234278126E+01
(PID.TID 0000.0001) %MON dynstat_sss_min              =   1.8751397097946E+01
(PID.TID 0000.0001) %MON dynstat_sss_mean             =   3.4630289243553E+01
(PID.TID 0000.0001) %MON dynstat_sss_sd               =   1.4699487694704E+00
(PID.TID 0000.0001) %MON dynstat_sss_del2             =   9.9841197650780E-03
(PID.TID 0000.0001) %MON forcing_qnet_max             =   2.8019768645107E+03
(PID.TID 0000.0001) %MON forcing_qnet_min             =  -2.0642324218750E+03
(PID.TID 0000.0001) %MON forcing_qnet_mean            =  -2.1074043101039E+01
(PID.TID 0000.0001) %MON forcing_qnet_sd              =   2.5578278140620E+02
(PID.TID 0000.0001) %MON forcing_qnet_del2            =   5.6682999420948E+00
(PID.TID 0000.0001) %MON forcing_qsw_max              =   0.0000000000000E+00
(PID.TID 0000.0001) %MON forcing_qsw_min              =  -3.9025933473690E+02
(PID.TID 0000.0001) %MON forcing_qsw_mean             =  -6.2712923969099E+01
(PID.TID 0000.0001) %MON forcing_qsw_sd               =   9.7437509867852E+01
(PID.TID 0000.0001) %MON forcing_qsw_del2             =   1.0497698828353E+00
(PID.TID 0000.0001) %MON forcing_empmr_max            =   8.1302635371685E-03
(PID.TID 0000.0001) %MON forcing_empmr_min            =  -1.1686293035746E-01
(PID.TID 0000.0001) %MON forcing_empmr_mean           =  -3.6476943636464E-04
(PID.TID 0000.0001) %MON forcing_empmr_sd             =   5.4569317597040E-03
(PID.TID 0000.0001) %MON forcing_empmr_del2           =   2.1556849799452E-04
(PID.TID 0000.0001) %MON forcing_fu_max               =   4.2921032457993E-01
(PID.TID 0000.0001) %MON forcing_fu_min               =  -3.7216111813832E-01
(PID.TID 0000.0001) %MON forcing_fu_mean              =  -2.9953121666635E-03
(PID.TID 0000.0001) %MON forcing_fu_sd                =   6.5098107144880E-02
(PID.TID 0000.0001) %MON forcing_fu_del2              =   6.3586498052695E-04
(PID.TID 0000.0001) %MON forcing_fv_max               =   3.1965520503542E-01
(PID.TID 0000.0001) %MON forcing_fv_min               =  -2.9439208714062E-01
(PID.TID 0000.0001) %MON forcing_fv_mean              =  -1.2487358511622E-02
(PID.TID 0000.0001) %MON forcing_fv_sd                =   6.5325350285449E-02
(PID.TID 0000.0001) %MON forcing_fv_del2              =   5.7052609052304E-04
(PID.TID 0000.0001) %MON trAdv_CFL_u_max              =   2.5931245712575E-03
(PID.TID 0000.0001) %MON trAdv_CFL_v_max              =   5.2033123143156E-03
(PID.TID 0000.0001) %MON trAdv_CFL_w_max              =   1.9001180187737E-03
(PID.TID 0000.0001) %MON advcfl_uvel_max              =   2.5877874474783E-03
(PID.TID 0000.0001) %MON advcfl_vvel_max              =   3.5848351416976E-03
(PID.TID 0000.0001) %MON advcfl_wvel_max              =   4.0647975776506E-03
(PID.TID 0000.0001) %MON advcfl_W_hf_max              =   2.2801187134382E-03
(PID.TID 0000.0001) %MON pe_b_mean                    =   5.1429510057052E-04
(PID.TID 0000.0001) %MON ke_max                       =   4.0743629196005E-01
(PID.TID 0000.0001) %MON ke_mean                      =   1.6720173424874E-04
(PID.TID 0000.0001) %MON ke_vol                       =   1.3398099949970E+18
(PID.TID 0000.0001) %MON vort_r_min                   =  -5.7482967026238E-06
(PID.TID 0000.0001) %MON vort_r_max                   =   3.0295685942591E-06
(PID.TID 0000.0001) %MON vort_a_mean                  =  -2.0549865324846E-05
(PID.TID 0000.0001) %MON vort_a_sd                    =   7.5259498915248E-05
(PID.TID 0000.0001) %MON vort_p_mean                  =  -2.4783330313148E-05
(PID.TID 0000.0001) %MON vort_p_sd                    =   1.2811907072107E-04
(PID.TID 0000.0001) %MON surfExpan_theta_mean         =  -6.9424735434680E-06
(PID.TID 0000.0001) %MON surfExpan_salt_mean          =   1.1182379391871E-06
(PID.TID 0000.0001) // =======================================================
(PID.TID 0000.0001) // End MONITOR dynamic field statistics
(PID.TID 0000.0001) // =======================================================
 Computing Diagnostic #     81  oceTAUX      Counter:       1   Parms: UU      U1      
           Vector  Mate for  oceTAUX      Diagnostic #     82  oceTAUY  exists 
 Computing Diagnostic #     82  oceTAUY      Counter:       1   Parms: VV      U1      
           Vector  Mate for  oceTAUY      Diagnostic #     81  oceTAUX  exists 
 Computing Diagnostic #     85  oceFWflx     Counter:       1   Parms: SM      U1      
 Computing Diagnostic #     86  oceSflux     Counter:       1   Parms: SM      U1      
 Computing Diagnostic #     87  oceQnet      Counter:       1   Parms: SM      U1      
 Computing Diagnostic #     88  oceQsw       Counter:       1   Parms: SM      U1      
 Computing Diagnostic #     27  SALT         Counter:       1   Parms: SMR     MR      
 Computing Diagnostic #     26  THETA        Counter:       1   Parms: SMR     MR      
 Computing Diagnostic #     45  UVELMASS     Counter:       1   Parms: UUr     MR      
           Vector  Mate for  UVELMASS     Diagnostic #     46  VVELMASS exists 
 Computing Diagnostic #     46  VVELMASS     Counter:       1   Parms: VVr     MR      
           Vector  Mate for  VVELMASS     Diagnostic #     45  UVELMASS exists 
 cg2d: Sum(rhs),rhsMax =  -4.20700604498116E+01  4.37220786308207E+01
(PID.TID 0000.0001)      cg2d_init_res =   3.73476823344518E-01
(PID.TID 0000.0001)      cg2d_iters(min,last) =      -1      11
(PID.TID 0000.0001)      cg2d_last_res =   3.16319714020931E-08
(PID.TID 0000.0001) // =======================================================
(PID.TID 0000.0001) // Begin MONITOR dynamic field statistics
(PID.TID 0000.0001) // =======================================================
(PID.TID 0000.0001) %MON time_tsnumber                =                 72032
(PID.TID 0000.0001) %MON time_secondsf                =   6.4828800000000E+07
(PID.TID 0000.0001) %MON dynstat_eta_max              =   1.8654614457992E+00
(PID.TID 0000.0001) %MON dynstat_eta_min              =  -2.4615412948602E+00
(PID.TID 0000.0001) %MON dynstat_eta_mean             =   2.1373473656060E-02
(PID.TID 0000.0001) %MON dynstat_eta_sd               =   6.2047629732807E-01
(PID.TID 0000.0001) %MON dynstat_eta_del2             =   2.6166639835274E-03
(PID.TID 0000.0001) %MON dynstat_uvel_max             =   3.4318682250972E-01
(PID.TID 0000.0001) %MON dynstat_uvel_min             =  -9.0878904221426E-01
(PID.TID 0000.0001) %MON dynstat_uvel_mean            =  -1.6924746244170E-04
(PID.TID 0000.0001) %MON dynstat_uvel_sd              =   1.2856246134312E-02
(PID.TID 0000.0001) %MON dynstat_uvel_del2            =   8.4848024760699E-05
(PID.TID 0000.0001) %MON dynstat_vvel_max             =   9.9189680206489E-01
(PID.TID 0000.0001) %MON dynstat_vvel_min             =  -1.1394030050048E+00
(PID.TID 0000.0001) %MON dynstat_vvel_mean            =  -4.4444651580307E-04
(PID.TID 0000.0001) %MON dynstat_vvel_sd              =   1.4044610344547E-02
(PID.TID 0000.0001) %MON dynstat_vvel_del2            =   1.2686261788267E-04
(PID.TID 0000.0001) %MON dynstat_wvel_max             =   1.8924879361786E-04
(PID.TID 0000.0001) %MON dynstat_wvel_min             =  -2.8856458479735E-04
(PID.TID 0000.0001) %MON dynstat_wvel_mean            =  -8.2769080067483E-08
(PID.TID 0000.0001) %MON dynstat_wvel_sd              =   8.4558639091218E-06
(PID.TID 0000.0001) %MON dynstat_wvel_del2            =   7.4330964957924E-08
(PID.TID 0000.0001) %MON dynstat_theta_max            =   3.0932659173009E+01
(PID.TID 0000.0001) %MON dynstat_theta_min            =  -3.0057510140026E+00
(PID.TID 0000.0001) %MON dynstat_theta_mean           =   3.9091831145993E+00
(PID.TID 0000.0001) %MON dynstat_theta_sd             =   4.5714954822126E+00
(PID.TID 0000.0001) %MON dynstat_theta_del2           =   2.6476497077368E-03
(PID.TID 0000.0001) %MON dynstat_salt_max             =   4.1356911019997E+01
(PID.TID 0000.0001) %MON dynstat_salt_min             =   1.8518689736812E+01
(PID.TID 0000.0001) %MON dynstat_salt_mean            =   3.4772031803008E+01
(PID.TID 0000.0001) %MON dynstat_salt_sd              =   5.3147435321064E-01
(PID.TID 0000.0001) %MON dynstat_salt_del2            =   9.3782792233449E-04
(PID.TID 0000.0001) %MON dynstat_sst_max              =   3.0932659173009E+01
(PID.TID 0000.0001) %MON dynstat_sst_min              =  -1.8990975759054E+00
(PID.TID 0000.0001) %MON dynstat_sst_mean             =   1.8112339914803E+01
(PID.TID 0000.0001) %MON dynstat_sst_sd               =   9.8076212151554E+00
(PID.TID 0000.0001) %MON dynstat_sst_del2             =   1.5162042795962E-02
(PID.TID 0000.0001) %MON dynstat_sss_max              =   4.1356911019997E+01
(PID.TID 0000.0001) %MON dynstat_sss_min              =   1.8751402064108E+01
(PID.TID 0000.0001) %MON dynstat_sss_mean             =   3.4630018048284E+01
(PID.TID 0000.0001) %MON dynstat_sss_sd               =   1.4704412591224E+00
(PID.TID 0000.0001) %MON dynstat_sss_del2             =   1.0063710337251E-02
(PID.TID 0000.0001) %MON forcing_qnet_max             =   2.7633426395728E+03
(PID.TID 0000.0001) %MON forcing_qnet_min             =  -1.7422823342848E+03
(PID.TID 0000.0001) %MON forcing_qnet_mean            =  -1.7274321281314E+01
(PID.TID 0000.0001) %MON forcing_qnet_sd              =   2.5261144028728E+02
(PID.TID 0000.0001) %MON forcing_qnet_del2            =   5.3403831447044E+00
(PID.TID 0000.0001) %MON forcing_qsw_max              =   0.0000000000000E+00
(PID.TID 0000.0001) %MON forcing_qsw_min              =  -3.7829860885161E+02
(PID.TID 0000.0001) %MON forcing_qsw_mean             =  -6.1584123049589E+01
(PID.TID 0000.0001) %MON forcing_qsw_sd               =   9.7111372531653E+01
(PID.TID 0000.0001) %MON forcing_qsw_del2             =   1.0349210100202E+00
(PID.TID 0000.0001) %MON forcing_empmr_max            =   8.0465711653233E-03
(PID.TID 0000.0001) %MON forcing_empmr_min            =  -1.1565884202719E-01
(PID.TID 0000.0001) %MON forcing_empmr_mean           =  -3.5543478539572E-04
(PID.TID 0000.0001) %MON forcing_empmr_sd             =   5.3596259688737E-03
(PID.TID 0000.0001) %MON forcing_empmr_del2           =   2.1127709619437E-04
(PID.TID 0000.0001) %MON forcing_fu_max               =   4.2124198809996E-01
(PID.TID 0000.0001) %MON forcing_fu_min               =  -3.7104525999375E-01
(PID.TID 0000.0001) %MON forcing_fu_mean              =  -2.9751479455085E-03
(PID.TID 0000.0001) %MON forcing_fu_sd                =   6.4595732628005E-02
(PID.TID 0000.0001) %MON forcing_fu_del2              =   6.3087866913433E-04
(PID.TID 0000.0001) %MON forcing_fv_max               =   3.2107667854199E-01
(PID.TID 0000.0001) %MON forcing_fv_min               =  -2.9203435941727E-01
(PID.TID 0000.0001) %MON forcing_fv_mean              =  -1.2583368168595E-02
(PID.TID 0000.0001) %MON forcing_fv_sd                =   6.5104713336968E-02
(PID.TID 0000.0001) %MON forcing_fv_del2              =   5.6788112246543E-04
(PID.TID 0000.0001) %MON trAdv_CFL_u_max              =   2.6835169027280E-03
(PID.TID 0000.0001) %MON trAdv_CFL_v_max              =   5.3027234995058E-03
(PID.TID 0000.0001) %MON trAdv_CFL_w_max              =   1.8527418354203E-03
(PID.TID 0000.0001) %MON advcfl_uvel_max              =   2.6747815778325E-03
(PID.TID 0000.0001) %MON advcfl_vvel_max              =   3.7182876256436E-03
(PID.TID 0000.0001) %MON advcfl_wvel_max              =   4.0229162444239E-03
(PID.TID 0000.0001) %MON advcfl_W_hf_max              =   2.4059054538929E-03
(PID.TID 0000.0001) %MON pe_b_mean                    =   5.1348457590627E-04
(PID.TID 0000.0001) %MON ke_max                       =   4.3660638678089E-01
(PID.TID 0000.0001) %MON ke_mean                      =   1.6754994827657E-04
(PID.TID 0000.0001) %MON ke_vol                       =   1.3398101104185E+18
(PID.TID 0000.0001) %MON vort_r_min                   =  -5.7010210089841E-06
(PID.TID 0000.0001) %MON vort_r_max                   =   3.2739246842990E-06
(PID.TID 0000.0001) %MON vort_a_mean                  =  -2.0549865324846E-05
(PID.TID 0000.0001) %MON vort_a_sd                    =   7.5259499388319E-05
(PID.TID 0000.0001) %MON vort_p_mean                  =  -2.4783328358262E-05
(PID.TID 0000.0001) %MON vort_p_sd                    =   1.2811907729079E-04
(PID.TID 0000.0001) %MON surfExpan_theta_mean         =  -6.8951252496232E-06
(PID.TID 0000.0001) %MON surfExpan_salt_mean          =   1.0814208828361E-06
(PID.TID 0000.0001) // =======================================================
(PID.TID 0000.0001) // End MONITOR dynamic field statistics
(PID.TID 0000.0001) // =======================================================
 cg2d: Sum(rhs),rhsMax =  -4.57036099341883E+01  4.08195238545062E+01
(PID.TID 0000.0001)      cg2d_init_res =   4.02941895068217E-01
(PID.TID 0000.0001)      cg2d_iters(min,last) =      -1      11
(PID.TID 0000.0001)      cg2d_last_res =   3.58889373257655E-08
(PID.TID 0000.0001) // =======================================================
(PID.TID 0000.0001) // Begin MONITOR dynamic field statistics
(PID.TID 0000.0001) // =======================================================
(PID.TID 0000.0001) %MON time_tsnumber                =                 72033
(PID.TID 0000.0001) %MON time_secondsf                =   6.4829700000000E+07
(PID.TID 0000.0001) %MON dynstat_eta_max              =   1.8429941000136E+00
(PID.TID 0000.0001) %MON dynstat_eta_min              =  -2.0035389979829E+00
(PID.TID 0000.0001) %MON dynstat_eta_mean             =   2.1678019981085E-02
(PID.TID 0000.0001) %MON dynstat_eta_sd               =   6.1998124631506E-01
(PID.TID 0000.0001) %MON dynstat_eta_del2             =   2.4553552032703E-03
(PID.TID 0000.0001) %MON dynstat_uvel_max             =   3.2001281236686E-01
(PID.TID 0000.0001) %MON dynstat_uvel_min             =  -9.3233787887111E-01
(PID.TID 0000.0001) %MON dynstat_uvel_mean            =  -2.0548587698420E-04
(PID.TID 0000.0001) %MON dynstat_uvel_sd              =   1.2890485567228E-02
(PID.TID 0000.0001) %MON dynstat_uvel_del2            =   8.5264372588142E-05
(PID.TID 0000.0001) %MON dynstat_vvel_max             =   1.0494575172163E+00
(PID.TID 0000.0001) %MON dynstat_vvel_min             =  -1.1616181360741E+00
(PID.TID 0000.0001) %MON dynstat_vvel_mean            =  -4.3282566511625E-04
(PID.TID 0000.0001) %MON dynstat_vvel_sd              =   1.4030315659568E-02
(PID.TID 0000.0001) %MON dynstat_vvel_del2            =   1.2767715782855E-04
(PID.TID 0000.0001) %MON dynstat_wvel_max             =   1.9643280672042E-04
(PID.TID 0000.0001) %MON dynstat_wvel_min             =  -2.6590990725118E-04
(PID.TID 0000.0001) %MON dynstat_wvel_mean            =  -6.1669437497096E-08
(PID.TID 0000.0001) %MON dynstat_wvel_sd              =   8.4364081709660E-06
(PID.TID 0000.0001) %MON dynstat_wvel_del2            =   7.4237512292016E-08
(PID.TID 0000.0001) %MON dynstat_theta_max            =   3.0933331689786E+01
(PID.TID 0000.0001) %MON dynstat_theta_min            =  -3.0056669597517E+00
(PID.TID 0000.0001) %MON dynstat_theta_mean           =   3.9091857546140E+00
(PID.TID 0000.0001) %MON dynstat_theta_sd             =   4.5715067940760E+00
(PID.TID 0000.0001) %MON dynstat_theta_del2           =   2.6475323218136E-03
(PID.TID 0000.0001) %MON dynstat_salt_max             =   4.1356594584747E+01
(PID.TID 0000.0001) %MON dynstat_salt_min             =   1.8518700066988E+01
(PID.TID 0000.0001) %MON dynstat_salt_mean            =   3.4772028106210E+01
(PID.TID 0000.0001) %MON dynstat_salt_sd              =   5.3149369189214E-01
(PID.TID 0000.0001) %MON dynstat_salt_del2            =   9.4318898721734E-04
(PID.TID 0000.0001) %MON dynstat_sst_max              =   3.0933331689786E+01
(PID.TID 0000.0001) %MON dynstat_sst_min              =  -1.8984016735786E+00
(PID.TID 0000.0001) %MON dynstat_sst_mean             =   1.8112416718966E+01
(PID.TID 0000.0001) %MON dynstat_sst_sd               =   9.8077909840348E+00
(PID.TID 0000.0001) %MON dynstat_sst_del2             =   1.5159899655527E-02
(PID.TID 0000.0001) %MON dynstat_sss_max              =   4.1356594584747E+01
(PID.TID 0000.0001) %MON dynstat_sss_min              =   1.8751409096498E+01
(PID.TID 0000.0001) %MON dynstat_sss_mean             =   3.4629751970875E+01
(PID.TID 0000.0001) %MON dynstat_sss_sd               =   1.4709303201518E+00
(PID.TID 0000.0001) %MON dynstat_sss_del2             =   1.0142535647783E-02
(PID.TID 0000.0001) %MON forcing_qnet_max             =   2.7254353175362E+03
(PID.TID 0000.0001) %MON forcing_qnet_min             =  -1.7190240978283E+03
(PID.TID 0000.0001) %MON forcing_qnet_mean            =  -1.1894181647497E+01
(PID.TID 0000.0001) %MON forcing_qnet_sd              =   2.5040566795762E+02
(PID.TID 0000.0001) %MON forcing_qnet_del2            =   5.2384916314147E+00
(PID.TID 0000.0001) %MON forcing_qsw_max              =   0.0000000000000E+00
(PID.TID 0000.0001) %MON forcing_qsw_min              =  -3.9014606086100E+02
(PID.TID 0000.0001) %MON forcing_qsw_mean             =  -5.9327344683697E+01
(PID.TID 0000.0001) %MON forcing_qsw_sd               =   9.7012199759710E+01
(PID.TID 0000.0001) %MON forcing_qsw_del2             =   9.9804826271784E-01
(PID.TID 0000.0001) %MON forcing_empmr_max            =   7.9636173322797E-03
(PID.TID 0000.0001) %MON forcing_empmr_min            =  -1.1446733772755E-01
(PID.TID 0000.0001) %MON forcing_empmr_mean           =  -3.5022827377899E-04
(PID.TID 0000.0001) %MON forcing_empmr_sd             =   5.2882981751406E-03
(PID.TID 0000.0001) %MON forcing_empmr_del2           =   2.0845756549486E-04
(PID.TID 0000.0001) %MON forcing_fu_max               =   4.1115663398816E-01
(PID.TID 0000.0001) %MON forcing_fu_min               =  -3.7066894806311E-01
(PID.TID 0000.0001) %MON forcing_fu_mean              =  -2.9601006605331E-03
(PID.TID 0000.0001) %MON forcing_fu_sd                =   6.4005762589164E-02
(PID.TID 0000.0001) %MON forcing_fu_del2              =   6.2484967462624E-04
(PID.TID 0000.0001) %MON forcing_fv_max               =   3.2005090592596E-01
(PID.TID 0000.0001) %MON forcing_fv_min               =  -2.8984996424850E-01
(PID.TID 0000.0001) %MON forcing_fv_mean              =  -1.2708202645352E-02
(PID.TID 0000.0001) %MON forcing_fv_sd                =   6.4869346468094E-02
(PID.TID 0000.0001) %MON forcing_fv_del2              =   5.6479934562613E-04
(PID.TID 0000.0001) %MON trAdv_CFL_u_max              =   2.7568665882443E-03
(PID.TID 0000.0001) %MON trAdv_CFL_v_max              =   5.3338525049975E-03
(PID.TID 0000.0001) %MON trAdv_CFL_w_max              =   1.8042989998756E-03
(PID.TID 0000.0001) %MON advcfl_uvel_max              =   2.7440913863175E-03
(PID.TID 0000.0001) %MON advcfl_vvel_max              =   3.7907837017415E-03
(PID.TID 0000.0001) %MON advcfl_wvel_max              =   3.9814726166103E-03
(PID.TID 0000.0001) %MON advcfl_W_hf_max              =   2.5131122689964E-03
(PID.TID 0000.0001) %MON pe_b_mean                    =   5.1268392291072E-04
(PID.TID 0000.0001) %MON ke_max                       =   4.8122607414061E-01
(PID.TID 0000.0001) %MON ke_mean                      =   1.6777025299986E-04
(PID.TID 0000.0001) %MON ke_vol                       =   1.3398102228864E+18
(PID.TID 0000.0001) %MON vort_r_min                   =  -5.6086791493197E-06
(PID.TID 0000.0001) %MON vort_r_max                   =   3.4639136486628E-06
(PID.TID 0000.0001) %MON vort_a_mean                  =  -2.0549865324846E-05
(PID.TID 0000.0001) %MON vort_a_sd                    =   7.5259500875570E-05
(PID.TID 0000.0001) %MON vort_p_mean                  =  -2.4783326484921E-05
(PID.TID 0000.0001) %MON vort_p_sd                    =   1.2811908844558E-04
(PID.TID 0000.0001) %MON surfExpan_theta_mean         =  -6.8478472787708E-06
(PID.TID 0000.0001) %MON surfExpan_salt_mean          =   1.0481685402930E-06
(PID.TID 0000.0001) // =======================================================
(PID.TID 0000.0001) // End MONITOR dynamic field statistics
(PID.TID 0000.0001) // =======================================================
 cg2d: Sum(rhs),rhsMax =  -4.51675656855926E+01  4.18758887354319E+01
(PID.TID 0000.0001)      cg2d_init_res =   3.92438525268764E-01
(PID.TID 0000.0001)      cg2d_iters(min,last) =      -1      11
(PID.TID 0000.0001)      cg2d_last_res =   3.58834096738187E-08
(PID.TID 0000.0001) // =======================================================
(PID.TID 0000.0001) // Begin MONITOR dynamic field statistics
(PID.TID 0000.0001) // =======================================================
(PID.TID 0000.0001) %MON time_tsnumber                =                 72034
(PID.TID 0000.0001) %MON time_secondsf                =   6.4830600000000E+07
(PID.TID 0000.0001) %MON dynstat_eta_max              =   1.8712953796401E+00
(PID.TID 0000.0001) %MON dynstat_eta_min              =  -1.6078517243996E+00
(PID.TID 0000.0001) %MON dynstat_eta_mean             =   2.1978188569848E-02
(PID.TID 0000.0001) %MON dynstat_eta_sd               =   6.1951301719997E-01
(PID.TID 0000.0001) %MON dynstat_eta_del2             =   2.3119595074416E-03
(PID.TID 0000.0001) %MON dynstat_uvel_max             =   2.9397665485866E-01
(PID.TID 0000.0001) %MON dynstat_uvel_min             =  -9.4930795584569E-01
(PID.TID 0000.0001) %MON dynstat_uvel_mean            =  -2.4201022159853E-04
(PID.TID 0000.0001) %MON dynstat_uvel_sd              =   1.2924728455302E-02
(PID.TID 0000.0001) %MON dynstat_uvel_del2            =   8.5673862916989E-05
(PID.TID 0000.0001) %MON dynstat_vvel_max             =   1.0905800536215E+00
(PID.TID 0000.0001) %MON dynstat_vvel_min             =  -1.1652850381365E+00
(PID.TID 0000.0001) %MON dynstat_vvel_mean            =  -4.1696411546258E-04
(PID.TID 0000.0001) %MON dynstat_vvel_sd              =   1.4004389291827E-02
(PID.TID 0000.0001) %MON dynstat_vvel_del2            =   1.2787497752605E-04
(PID.TID 0000.0001) %MON dynstat_wvel_max             =   2.0420407013877E-04
(PID.TID 0000.0001) %MON dynstat_wvel_min             =  -2.4606513552526E-04
(PID.TID 0000.0001) %MON dynstat_wvel_mean            =  -4.2791598799979E-08
(PID.TID 0000.0001) %MON dynstat_wvel_sd              =   8.4059415971789E-06
(PID.TID 0000.0001) %MON dynstat_wvel_del2            =   7.4159749707727E-08
(PID.TID 0000.0001) %MON dynstat_theta_max            =   3.0933995961713E+01
(PID.TID 0000.0001) %MON dynstat_theta_min            =  -3.0055648458360E+00
(PID.TID 0000.0001) %MON dynstat_theta_mean           =   3.9091882090439E+00
(PID.TID 0000.0001) %MON dynstat_theta_sd             =   4.5715174265093E+00
(PID.TID 0000.0001) %MON dynstat_theta_del2           =   2.6474147166397E-03
(PID.TID 0000.0001) %MON dynstat_salt_max             =   4.1356281815640E+01
(PID.TID 0000.0001) %MON dynstat_salt_min             =   1.8518710439615E+01
(PID.TID 0000.0001) %MON dynstat_salt_mean            =   3.4772024480016E+01
(PID.TID 0000.0001) %MON dynstat_salt_sd              =   5.3151291329723E-01
(PID.TID 0000.0001) %MON dynstat_salt_del2            =   9.4850586246562E-04
(PID.TID 0000.0001) %MON dynstat_sst_max              =   3.0933995961713E+01
(PID.TID 0000.0001) %MON dynstat_sst_min              =  -1.8982761531188E+00
(PID.TID 0000.0001) %MON dynstat_sst_mean             =   1.8112483085598E+01
(PID.TID 0000.0001) %MON dynstat_sst_sd               =   9.8079561284275E+00
(PID.TID 0000.0001) %MON dynstat_sst_del2             =   1.5157772328599E-02
(PID.TID 0000.0001) %MON dynstat_sss_max              =   4.1356281815640E+01
(PID.TID 0000.0001) %MON dynstat_sss_min              =   1.8751418411903E+01
(PID.TID 0000.0001) %MON dynstat_sss_mean             =   3.4629491567885E+01
(PID.TID 0000.0001) %MON dynstat_sss_sd               =   1.4714162681072E+00
(PID.TID 0000.0001) %MON dynstat_sss_del2             =   1.0220543777118E-02
(PID.TID 0000.0001) %MON forcing_qnet_max             =   2.6878308804235E+03
(PID.TID 0000.0001) %MON forcing_qnet_min             =  -1.6965904448468E+03
(PID.TID 0000.0001) %MON forcing_qnet_mean            =  -9.2089576077361E+00
(PID.TID 0000.0001) %MON forcing_qnet_sd              =   2.4925560675701E+02
(PID.TID 0000.0001) %MON forcing_qnet_del2            =   5.1245561107751E+00
(PID.TID 0000.0001) %MON forcing_qsw_max              =   0.0000000000000E+00
(PID.TID 0000.0001) %MON forcing_qsw_min              =  -3.9429324090077E+02
(PID.TID 0000.0001) %MON forcing_qsw_mean             =  -5.8573757405391E+01
(PID.TID 0000.0001) %MON forcing_qsw_sd               =   9.7391063105713E+01
(PID.TID 0000.0001) %MON forcing_qsw_del2             =   9.8522719739206E-01
(PID.TID 0000.0001) %MON forcing_empmr_max            =   7.8814504668117E-03
(PID.TID 0000.0001) %MON forcing_empmr_min            =  -1.1328842490911E-01
(PID.TID 0000.0001) %MON forcing_empmr_mean           =  -3.4519387707681E-04
(PID.TID 0000.0001) %MON forcing_empmr_sd             =   5.2095660970890E-03
(PID.TID 0000.0001) %MON forcing_empmr_del2           =   2.0538791421011E-04
(PID.TID 0000.0001) %MON forcing_fu_max               =   4.0238573071636E-01
(PID.TID 0000.0001) %MON forcing_fu_min               =  -3.6946426775920E-01
(PID.TID 0000.0001) %MON forcing_fu_mean              =  -2.9409077279783E-03
(PID.TID 0000.0001) %MON forcing_fu_sd                =   6.3365778352364E-02
(PID.TID 0000.0001) %MON forcing_fu_del2              =   6.1906932715426E-04
(PID.TID 0000.0001) %MON forcing_fv_max               =   3.2073342281549E-01
(PID.TID 0000.0001) %MON forcing_fv_min               =  -2.8681031832906E-01
(PID.TID 0000.0001) %MON forcing_fv_mean              =  -1.2862229207194E-02
(PID.TID 0000.0001) %MON forcing_fv_sd                =   6.4591310297897E-02
(PID.TID 0000.0001) %MON forcing_fv_del2              =   5.6117864893500E-04
(PID.TID 0000.0001) %MON trAdv_CFL_u_max              =   2.8114150842882E-03
(PID.TID 0000.0001) %MON trAdv_CFL_v_max              =   5.2977820441393E-03
(PID.TID 0000.0001) %MON trAdv_CFL_w_max              =   1.8202235203133E-03
(PID.TID 0000.0001) %MON advcfl_uvel_max              =   2.7940383455760E-03
(PID.TID 0000.0001) %MON advcfl_vvel_max              =   3.8027501407477E-03
(PID.TID 0000.0001) %MON advcfl_wvel_max              =   3.9404669533605E-03
(PID.TID 0000.0001) %MON advcfl_W_hf_max              =   2.6003193147333E-03
(PID.TID 0000.0001) %MON pe_b_mean                    =   5.1192818570405E-04
(PID.TID 0000.0001) %MON ke_max                       =   5.1156231757465E-01
(PID.TID 0000.0001) %MON ke_mean                      =   1.6784038258157E-04
(PID.TID 0000.0001) %MON ke_vol                       =   1.3398103337067E+18
(PID.TID 0000.0001) %MON vort_r_min                   =  -5.4716631704586E-06
(PID.TID 0000.0001) %MON vort_r_max                   =   3.5996455985367E-06
(PID.TID 0000.0001) %MON vort_a_mean                  =  -2.0549865324846E-05
(PID.TID 0000.0001) %MON vort_a_sd                    =   7.5259503480259E-05
(PID.TID 0000.0001) %MON vort_p_mean                  =  -2.4783324663490E-05
(PID.TID 0000.0001) %MON vort_p_sd                    =   1.2811910317158E-04
(PID.TID 0000.0001) %MON surfExpan_theta_mean         =  -6.7845455027591E-06
(PID.TID 0000.0001) %MON surfExpan_salt_mean          =   1.0183616227060E-06
(PID.TID 0000.0001) // =======================================================
(PID.TID 0000.0001) // End MONITOR dynamic field statistics
(PID.TID 0000.0001) // =======================================================
 cg2d: Sum(rhs),rhsMax =  -4.26364123833524E+01  4.49607164305876E+01
(PID.TID 0000.0001)      cg2d_init_res =   3.62605677925790E-01
(PID.TID 0000.0001)      cg2d_iters(min,last) =      -1      11
(PID.TID 0000.0001)      cg2d_last_res =   3.29848706678224E-08
(PID.TID 0000.0001) // =======================================================
(PID.TID 0000.0001) // Begin MONITOR dynamic field statistics
(PID.TID 0000.0001) // =======================================================
(PID.TID 0000.0001) %MON time_tsnumber                =                 72035
(PID.TID 0000.0001) %MON time_secondsf                =   6.4831500000000E+07
(PID.TID 0000.0001) %MON dynstat_eta_max              =   2.0081736960095E+00
(PID.TID 0000.0001) %MON dynstat_eta_min              =  -1.6078109918600E+00
(PID.TID 0000.0001) %MON dynstat_eta_mean             =   2.2274863442478E-02
(PID.TID 0000.0001) %MON dynstat_eta_sd               =   6.1908813328059E-01
(PID.TID 0000.0001) %MON dynstat_eta_del2             =   2.1921470565009E-03
(PID.TID 0000.0001) %MON dynstat_uvel_max             =   2.8534428101615E-01
(PID.TID 0000.0001) %MON dynstat_uvel_min             =  -9.5921990667118E-01
(PID.TID 0000.0001) %MON dynstat_uvel_mean            =  -2.7807655202494E-04
(PID.TID 0000.0001) %MON dynstat_uvel_sd              =   1.2955960638653E-02
(PID.TID 0000.0001) %MON dynstat_uvel_del2            =   8.6031554630082E-05
(PID.TID 0000.0001) %MON dynstat_vvel_max             =   1.1155573194404E+00
(PID.TID 0000.0001) %MON dynstat_vvel_min             =  -1.1508795240470E+00
(PID.TID 0000.0001) %MON dynstat_vvel_mean            =  -3.9665965191246E-04
(PID.TID 0000.0001) %MON dynstat_vvel_sd              =   1.3969014285000E-02
(PID.TID 0000.0001) %MON dynstat_vvel_del2            =   1.2745772532437E-04
(PID.TID 0000.0001) %MON dynstat_wvel_max             =   2.0901515363889E-04
(PID.TID 0000.0001) %MON dynstat_wvel_min             =  -2.2916467930921E-04
(PID.TID 0000.0001) %MON dynstat_wvel_mean            =  -2.7758372924022E-08
(PID.TID 0000.0001) %MON dynstat_wvel_sd              =   8.3648432967021E-06
(PID.TID 0000.0001) %MON dynstat_wvel_del2            =   7.4106222617354E-08
(PID.TID 0000.0001) %MON dynstat_theta_max            =   3.0934647117616E+01
(PID.TID 0000.0001) %MON dynstat_theta_min            =  -3.0054464346800E+00
(PID.TID 0000.0001) %MON dynstat_theta_mean           =   3.9091904599369E+00
(PID.TID 0000.0001) %MON dynstat_theta_sd             =   4.5715272860692E+00
(PID.TID 0000.0001) %MON dynstat_theta_del2           =   2.6472983851235E-03
(PID.TID 0000.0001) %MON dynstat_salt_max             =   4.1355970554635E+01
(PID.TID 0000.0001) %MON dynstat_salt_min             =   1.8518720845530E+01
(PID.TID 0000.0001) %MON dynstat_salt_mean            =   3.4772020911235E+01
(PID.TID 0000.0001) %MON dynstat_salt_sd              =   5.3153198245435E-01
(PID.TID 0000.0001) %MON dynstat_salt_del2            =   9.5377475855080E-04
(PID.TID 0000.0001) %MON dynstat_sst_max              =   3.0934647117616E+01
(PID.TID 0000.0001) %MON dynstat_sst_min              =  -1.8982324560302E+00
(PID.TID 0000.0001) %MON dynstat_sst_mean             =   1.8112537096967E+01
(PID.TID 0000.0001) %MON dynstat_sst_sd               =   9.8081155520123E+00
(PID.TID 0000.0001) %MON dynstat_sst_del2             =   1.5155687738064E-02
(PID.TID 0000.0001) %MON dynstat_sss_max              =   4.1355970554635E+01
(PID.TID 0000.0001) %MON dynstat_sss_min              =   1.8751430402320E+01
(PID.TID 0000.0001) %MON dynstat_sss_mean             =   3.4629235887143E+01
(PID.TID 0000.0001) %MON dynstat_sss_sd               =   1.4718980272854E+00
(PID.TID 0000.0001) %MON dynstat_sss_del2             =   1.0297685732792E-02
(PID.TID 0000.0001) %MON forcing_qnet_max             =   2.6507339204671E+03
(PID.TID 0000.0001) %MON forcing_qnet_min             =  -1.6729762836607E+03
(PID.TID 0000.0001) %MON forcing_qnet_mean            =  -6.1169351365714E+00
(PID.TID 0000.0001) %MON forcing_qnet_sd              =   2.4883811143266E+02
(PID.TID 0000.0001) %MON forcing_qnet_del2            =   5.0513493446368E+00
(PID.TID 0000.0001) %MON forcing_qsw_max              =   0.0000000000000E+00
(PID.TID 0000.0001) %MON forcing_qsw_min              =  -3.9860798383831E+02
(PID.TID 0000.0001) %MON forcing_qsw_mean             =  -5.7687679191189E+01
(PID.TID 0000.0001) %MON forcing_qsw_sd               =   9.7665518610058E+01
(PID.TID 0000.0001) %MON forcing_qsw_del2             =   9.7084816562701E-01
(PID.TID 0000.0001) %MON forcing_empmr_max            =   7.8002670779824E-03
(PID.TID 0000.0001) %MON forcing_empmr_min            =  -1.1212125420570E-01
(PID.TID 0000.0001) %MON forcing_empmr_mean           =  -3.4117610352402E-04
(PID.TID 0000.0001) %MON forcing_empmr_sd             =   5.1315380709459E-03
(PID.TID 0000.0001) %MON forcing_empmr_del2           =   2.0234530222392E-04
(PID.TID 0000.0001) %MON forcing_fu_max               =   3.9673739559945E-01
(PID.TID 0000.0001) %MON forcing_fu_min               =  -3.6825237594500E-01
(PID.TID 0000.0001) %MON forcing_fu_mean              =  -2.9131169816853E-03
(PID.TID 0000.0001) %MON forcing_fu_sd                =   6.2870037404367E-02
(PID.TID 0000.0001) %MON forcing_fu_del2              =   6.1513013738039E-04
(PID.TID 0000.0001) %MON forcing_fv_max               =   3.2018878315212E-01
(PID.TID 0000.0001) %MON forcing_fv_min               =  -2.8242609601729E-01
(PID.TID 0000.0001) %MON forcing_fv_mean              =  -1.3026332478242E-02
(PID.TID 0000.0001) %MON forcing_fv_sd                =   6.4368136072760E-02
(PID.TID 0000.0001) %MON forcing_fv_del2              =   5.5840891236760E-04
(PID.TID 0000.0001) %MON trAdv_CFL_u_max              =   2.9788470900626E-03
(PID.TID 0000.0001) %MON trAdv_CFL_v_max              =   5.1966048896370E-03
(PID.TID 0000.0001) %MON trAdv_CFL_w_max              =   1.8663595954357E-03
(PID.TID 0000.0001) %MON advcfl_uvel_max              =   2.9654263345903E-03
(PID.TID 0000.0001) %MON advcfl_vvel_max              =   3.7557396935709E-03
(PID.TID 0000.0001) %MON advcfl_wvel_max              =   3.8998697115027E-03
(PID.TID 0000.0001) %MON advcfl_W_hf_max              =   2.6662279934796E-03
(PID.TID 0000.0001) %MON pe_b_mean                    =   5.1124456014507E-04
(PID.TID 0000.0001) %MON ke_max                       =   5.2548328214372E-01
(PID.TID 0000.0001) %MON ke_mean                      =   1.6775353828215E-04
(PID.TID 0000.0001) %MON ke_vol                       =   1.3398104429341E+18
(PID.TID 0000.0001) %MON vort_r_min                   =  -5.2909946674927E-06
(PID.TID 0000.0001) %MON vort_r_max                   =   3.6820873272939E-06
(PID.TID 0000.0001) %MON vort_a_mean                  =  -2.0549865324846E-05
(PID.TID 0000.0001) %MON vort_a_sd                    =   7.5259507273852E-05
(PID.TID 0000.0001) %MON vort_p_mean                  =  -2.4783322888492E-05
(PID.TID 0000.0001) %MON vort_p_sd                    =   1.2811912036344E-04
(PID.TID 0000.0001) %MON surfExpan_theta_mean         =  -6.7290332061810E-06
(PID.TID 0000.0001) %MON surfExpan_salt_mean          =   9.9166355048574E-07
(PID.TID 0000.0001) // =======================================================
(PID.TID 0000.0001) // End MONITOR dynamic field statistics
(PID.TID 0000.0001) // =======================================================
 Computing Diagnostic #     81  oceTAUX      Counter:       1   Parms: UU      U1      
           Vector  Mate for  oceTAUX      Diagnostic #     82  oceTAUY  exists 
 Computing Diagnostic #     82  oceTAUY      Counter:       1   Parms: VV      U1      
           Vector  Mate for  oceTAUY      Diagnostic #     81  oceTAUX  exists 
 Computing Diagnostic #     85  oceFWflx     Counter:       1   Parms: SM      U1      
 Computing Diagnostic #     86  oceSflux     Counter:       1   Parms: SM      U1      
 Computing Diagnostic #     87  oceQnet      Counter:       1   Parms: SM      U1      
 Computing Diagnostic #     88  oceQsw       Counter:       1   Parms: SM      U1      
 Computing Diagnostic #     27  SALT         Counter:       1   Parms: SMR     MR      
 Computing Diagnostic #     26  THETA        Counter:       1   Parms: SMR     MR      
 Computing Diagnostic #     45  UVELMASS     Counter:       1   Parms: UUr     MR      
           Vector  Mate for  UVELMASS     Diagnostic #     46  VVELMASS exists 
 Computing Diagnostic #     46  VVELMASS     Counter:       1   Parms: VVr     MR      
           Vector  Mate for  VVELMASS     Diagnostic #     45  UVELMASS exists 
 cg2d: Sum(rhs),rhsMax =  -4.04689585945852E+01  4.79902770394515E+01
(PID.TID 0000.0001)      cg2d_init_res =   3.35137809245602E-01
(PID.TID 0000.0001)      cg2d_iters(min,last) =      -1      11
(PID.TID 0000.0001)      cg2d_last_res =   2.94121890847302E-08
(PID.TID 0000.0001) // =======================================================
(PID.TID 0000.0001) // Begin MONITOR dynamic field statistics
(PID.TID 0000.0001) // =======================================================
(PID.TID 0000.0001) %MON time_tsnumber                =                 72036
(PID.TID 0000.0001) %MON time_secondsf                =   6.4832400000000E+07
(PID.TID 0000.0001) %MON dynstat_eta_max              =   2.1425692626427E+00
(PID.TID 0000.0001) %MON dynstat_eta_min              =  -1.6079001827961E+00
(PID.TID 0000.0001) %MON dynstat_eta_mean             =   2.2567136662630E-02
(PID.TID 0000.0001) %MON dynstat_eta_sd               =   6.1871697193202E-01
(PID.TID 0000.0001) %MON dynstat_eta_del2             =   2.1007280799767E-03
(PID.TID 0000.0001) %MON dynstat_uvel_max             =   2.9685424409719E-01
(PID.TID 0000.0001) %MON dynstat_uvel_min             =  -9.6169558760149E-01
(PID.TID 0000.0001) %MON dynstat_uvel_mean            =  -3.1300010936181E-04
(PID.TID 0000.0001) %MON dynstat_uvel_sd              =   1.2981677946930E-02
(PID.TID 0000.0001) %MON dynstat_uvel_del2            =   8.6309218898150E-05
(PID.TID 0000.0001) %MON dynstat_vvel_max             =   1.1249192720514E+00
(PID.TID 0000.0001) %MON dynstat_vvel_min             =  -1.1191948418341E+00
(PID.TID 0000.0001) %MON dynstat_vvel_mean            =  -3.7182390687827E-04
(PID.TID 0000.0001) %MON dynstat_vvel_sd              =   1.3926855683639E-02
(PID.TID 0000.0001) %MON dynstat_vvel_del2            =   1.2643224613441E-04
(PID.TID 0000.0001) %MON dynstat_wvel_max             =   2.1128987387634E-04
(PID.TID 0000.0001) %MON dynstat_wvel_min             =  -2.1509681888833E-04
(PID.TID 0000.0001) %MON dynstat_wvel_mean            =  -1.6331775981259E-08
(PID.TID 0000.0001) %MON dynstat_wvel_sd              =   8.3147932999812E-06
(PID.TID 0000.0001) %MON dynstat_wvel_del2            =   7.4066188722073E-08
(PID.TID 0000.0001) %MON dynstat_theta_max            =   3.0935282691485E+01
(PID.TID 0000.0001) %MON dynstat_theta_min            =  -3.0053144504999E+00
(PID.TID 0000.0001) %MON dynstat_theta_mean           =   3.9091925429660E+00
(PID.TID 0000.0001) %MON dynstat_theta_sd             =   4.5715365111836E+00
(PID.TID 0000.0001) %MON dynstat_theta_del2           =   2.6471785939007E-03
(PID.TID 0000.0001) %MON dynstat_salt_max             =   4.1355658518496E+01
(PID.TID 0000.0001) %MON dynstat_salt_min             =   1.8518731286245E+01
(PID.TID 0000.0001) %MON dynstat_salt_mean            =   3.4772017424479E+01
(PID.TID 0000.0001) %MON dynstat_salt_sd              =   5.3155096358789E-01
(PID.TID 0000.0001) %MON dynstat_salt_del2            =   9.5899129231379E-04
(PID.TID 0000.0001) %MON dynstat_sst_max              =   3.0935282691485E+01
(PID.TID 0000.0001) %MON dynstat_sst_min              =  -1.8981955866400E+00
(PID.TID 0000.0001) %MON dynstat_sst_mean             =   1.8112585600884E+01
(PID.TID 0000.0001) %MON dynstat_sst_sd               =   9.8082706403925E+00
(PID.TID 0000.0001) %MON dynstat_sst_del2             =   1.5153503809518E-02
(PID.TID 0000.0001) %MON dynstat_sss_max              =   4.1355658518496E+01
(PID.TID 0000.0001) %MON dynstat_sss_min              =   1.8751445217361E+01
(PID.TID 0000.0001) %MON dynstat_sss_mean             =   3.4628988002912E+01
(PID.TID 0000.0001) %MON dynstat_sss_sd               =   1.4723792955876E+00
(PID.TID 0000.0001) %MON dynstat_sss_del2             =   1.0373897943295E-02
(PID.TID 0000.0001) %MON forcing_qnet_max             =   2.6167641517035E+03
(PID.TID 0000.0001) %MON forcing_qnet_min             =  -1.6496276900762E+03
(PID.TID 0000.0001) %MON forcing_qnet_mean            =  -3.7472943079726E+00
(PID.TID 0000.0001) %MON forcing_qnet_sd              =   2.4592876386716E+02
(PID.TID 0000.0001) %MON forcing_qnet_del2            =   5.0905355872874E+00
(PID.TID 0000.0001) %MON forcing_qsw_max              =   0.0000000000000E+00
(PID.TID 0000.0001) %MON forcing_qsw_min              =  -4.0299080462613E+02
(PID.TID 0000.0001) %MON forcing_qsw_mean             =  -5.6677151434322E+01
(PID.TID 0000.0001) %MON forcing_qsw_sd               =   9.7825583879516E+01
(PID.TID 0000.0001) %MON forcing_qsw_del2             =   9.5510256389339E-01
(PID.TID 0000.0001) %MON forcing_empmr_max            =   7.7197728678584E-03
(PID.TID 0000.0001) %MON forcing_empmr_min            =  -1.1096583306789E-01
(PID.TID 0000.0001) %MON forcing_empmr_mean           =  -3.3611420317520E-04
(PID.TID 0000.0001) %MON forcing_empmr_sd             =   5.0429425139027E-03
(PID.TID 0000.0001) %MON forcing_empmr_del2           =   1.9890568659300E-04
(PID.TID 0000.0001) %MON forcing_fu_max               =   3.9444736048768E-01
(PID.TID 0000.0001) %MON forcing_fu_min               =  -3.6748506688334E-01
(PID.TID 0000.0001) %MON forcing_fu_mean              =  -2.8357923402290E-03
(PID.TID 0000.0001) %MON forcing_fu_sd                =   6.2577645437647E-02
(PID.TID 0000.0001) %MON forcing_fu_del2              =   6.1382240207869E-04
(PID.TID 0000.0001) %MON forcing_fv_max               =   3.2056653631505E-01
(PID.TID 0000.0001) %MON forcing_fv_min               =  -2.8107353247523E-01
(PID.TID 0000.0001) %MON forcing_fv_mean              =  -1.3181370981243E-02
(PID.TID 0000.0001) %MON forcing_fv_sd                =   6.4261146442129E-02
(PID.TID 0000.0001) %MON forcing_fv_del2              =   5.5635367894771E-04
(PID.TID 0000.0001) %MON trAdv_CFL_u_max              =   3.1239623249733E-03
(PID.TID 0000.0001) %MON trAdv_CFL_v_max              =   5.0333836503824E-03
(PID.TID 0000.0001) %MON trAdv_CFL_w_max              =   1.8969685795460E-03
(PID.TID 0000.0001) %MON advcfl_uvel_max              =   3.0990589940632E-03
(PID.TID 0000.0001) %MON advcfl_vvel_max              =   3.6523410178808E-03
(PID.TID 0000.0001) %MON advcfl_wvel_max              =   3.8596811501876E-03
(PID.TID 0000.0001) %MON advcfl_W_hf_max              =   2.7099551136372E-03
(PID.TID 0000.0001) %MON pe_b_mean                    =   5.1064994276749E-04
(PID.TID 0000.0001) %MON ke_max                       =   5.2226960098338E-01
(PID.TID 0000.0001) %MON ke_mean                      =   1.6751493595066E-04
(PID.TID 0000.0001) %MON ke_vol                       =   1.3398105508901E+18
(PID.TID 0000.0001) %MON vort_r_min                   =  -5.0683067299462E-06
(PID.TID 0000.0001) %MON vort_r_max                   =   3.7129880497103E-06
(PID.TID 0000.0001) %MON vort_a_mean                  =  -2.0549865324846E-05
(PID.TID 0000.0001) %MON vort_a_sd                    =   7.5259512292056E-05
(PID.TID 0000.0001) %MON vort_p_mean                  =  -2.4783321149892E-05
(PID.TID 0000.0001) %MON vort_p_sd                    =   1.2811913859261E-04
(PID.TID 0000.0001) %MON surfExpan_theta_mean         =  -6.6527453517631E-06
(PID.TID 0000.0001) %MON surfExpan_salt_mean          =   9.6908696524852E-07
(PID.TID 0000.0001) // =======================================================
(PID.TID 0000.0001) // End MONITOR dynamic field statistics
(PID.TID 0000.0001) // =======================================================
 cg2d: Sum(rhs),rhsMax =  -3.86172030332887E+01  5.09300053912906E+01
(PID.TID 0000.0001)      cg2d_init_res =   3.10212849181762E-01
(PID.TID 0000.0001)      cg2d_iters(min,last) =      -1      11
(PID.TID 0000.0001)      cg2d_last_res =   2.57563953084488E-08
(PID.TID 0000.0001) // =======================================================
(PID.TID 0000.0001) // Begin MONITOR dynamic field statistics
(PID.TID 0000.0001) // =======================================================
(PID.TID 0000.0001) %MON time_tsnumber                =                 72037
(PID.TID 0000.0001) %MON time_secondsf                =   6.4833300000000E+07
(PID.TID 0000.0001) %MON dynstat_eta_max              =   2.2729519275276E+00
(PID.TID 0000.0001) %MON dynstat_eta_min              =  -1.6080790887407E+00
(PID.TID 0000.0001) %MON dynstat_eta_mean             =   2.2853657311274E-02
(PID.TID 0000.0001) %MON dynstat_eta_sd               =   6.1840615723775E-01
(PID.TID 0000.0001) %MON dynstat_eta_del2             =   2.0411965296050E-03
(PID.TID 0000.0001) %MON dynstat_uvel_max             =   3.0721541684510E-01
(PID.TID 0000.0001) %MON dynstat_uvel_min             =  -9.5646621146049E-01
(PID.TID 0000.0001) %MON dynstat_uvel_mean            =  -3.4620326142473E-04
(PID.TID 0000.0001) %MON dynstat_uvel_sd              =   1.2999772179727E-02
(PID.TID 0000.0001) %MON dynstat_uvel_del2            =   8.6491181794349E-05
(PID.TID 0000.0001) %MON dynstat_vvel_max             =   1.1194078464130E+00
(PID.TID 0000.0001) %MON dynstat_vvel_min             =  -1.0713067372008E+00
(PID.TID 0000.0001) %MON dynstat_vvel_mean            =  -3.4249806866387E-04
(PID.TID 0000.0001) %MON dynstat_vvel_sd              =   1.3880618573871E-02
(PID.TID 0000.0001) %MON dynstat_vvel_del2            =   1.2481028187501E-04
(PID.TID 0000.0001) %MON dynstat_wvel_max             =   2.1241594840018E-04
(PID.TID 0000.0001) %MON dynstat_wvel_min             =  -2.0358387141628E-04
(PID.TID 0000.0001) %MON dynstat_wvel_mean            =  -9.0173585319608E-09
(PID.TID 0000.0001) %MON dynstat_wvel_sd              =   8.2585825073519E-06
(PID.TID 0000.0001) %MON dynstat_wvel_del2            =   7.4033671783167E-08
(PID.TID 0000.0001) %MON dynstat_theta_max            =   3.0935855898057E+01
(PID.TID 0000.0001) %MON dynstat_theta_min            =  -3.0051723155035E+00
(PID.TID 0000.0001) %MON dynstat_theta_mean           =   3.9091943946929E+00
(PID.TID 0000.0001) %MON dynstat_theta_sd             =   4.5715448295049E+00
(PID.TID 0000.0001) %MON dynstat_theta_del2           =   2.6470563913249E-03
(PID.TID 0000.0001) %MON dynstat_salt_max             =   4.1355343403583E+01
(PID.TID 0000.0001) %MON dynstat_salt_min             =   1.8518741753762E+01
(PID.TID 0000.0001) %MON dynstat_salt_mean            =   3.4772014015703E+01
(PID.TID 0000.0001) %MON dynstat_salt_sd              =   5.3156982089588E-01
(PID.TID 0000.0001) %MON dynstat_salt_del2            =   9.6415294092691E-04
(PID.TID 0000.0001) %MON dynstat_sst_max              =   3.0935855898057E+01
(PID.TID 0000.0001) %MON dynstat_sst_min              =  -1.8981550267279E+00
(PID.TID 0000.0001) %MON dynstat_sst_mean             =   1.8112617449047E+01
(PID.TID 0000.0001) %MON dynstat_sst_sd               =   9.8084164652543E+00
(PID.TID 0000.0001) %MON dynstat_sst_del2             =   1.5151236739246E-02
(PID.TID 0000.0001) %MON dynstat_sss_max              =   4.1355343403583E+01
(PID.TID 0000.0001) %MON dynstat_sss_min              =   1.8751463267543E+01
(PID.TID 0000.0001) %MON dynstat_sss_mean             =   3.4628745291558E+01
(PID.TID 0000.0001) %MON dynstat_sss_sd               =   1.4728557583718E+00
(PID.TID 0000.0001) %MON dynstat_sss_del2             =   1.0449164780817E-02
(PID.TID 0000.0001) %MON forcing_qnet_max             =   2.5823185328589E+03
(PID.TID 0000.0001) %MON forcing_qnet_min             =  -1.6272725109400E+03
(PID.TID 0000.0001) %MON forcing_qnet_mean            =  -3.1351373230358E-01
(PID.TID 0000.0001) %MON forcing_qnet_sd              =   2.4489144138546E+02
(PID.TID 0000.0001) %MON forcing_qnet_del2            =   4.9272817816151E+00
(PID.TID 0000.0001) %MON forcing_qsw_max              =   0.0000000000000E+00
(PID.TID 0000.0001) %MON forcing_qsw_min              =  -4.1278247382925E+02
(PID.TID 0000.0001) %MON forcing_qsw_mean             =  -5.5060863690158E+01
(PID.TID 0000.0001) %MON forcing_qsw_sd               =   9.9065404029276E+01
(PID.TID 0000.0001) %MON forcing_qsw_del2             =   9.2320905753991E-01
(PID.TID 0000.0001) %MON forcing_empmr_max            =   7.6402621343732E-03
(PID.TID 0000.0001) %MON forcing_empmr_min            =  -1.0982298851013E-01
(PID.TID 0000.0001) %MON forcing_empmr_mean           =  -3.2949874594131E-04
(PID.TID 0000.0001) %MON forcing_empmr_sd             =   4.9392256364925E-03
(PID.TID 0000.0001) %MON forcing_empmr_del2           =   1.9489133847744E-04
(PID.TID 0000.0001) %MON forcing_fu_max               =   3.9290505624310E-01
(PID.TID 0000.0001) %MON forcing_fu_min               =  -3.6622752013715E-01
(PID.TID 0000.0001) %MON forcing_fu_mean              =  -2.7290556674401E-03
(PID.TID 0000.0001) %MON forcing_fu_sd                =   6.2377155504304E-02
(PID.TID 0000.0001) %MON forcing_fu_del2              =   6.1281580130157E-04
(PID.TID 0000.0001) %MON forcing_fv_max               =   3.2230460017522E-01
(PID.TID 0000.0001) %MON forcing_fv_min               =  -2.8355083209986E-01
(PID.TID 0000.0001) %MON forcing_fv_mean              =  -1.3347028612560E-02
(PID.TID 0000.0001) %MON forcing_fv_sd                =   6.4123878705777E-02
(PID.TID 0000.0001) %MON forcing_fv_del2              =   5.5386581260534E-04
(PID.TID 0000.0001) %MON trAdv_CFL_u_max              =   3.2042483217887E-03
(PID.TID 0000.0001) %MON trAdv_CFL_v_max              =   4.8120933513198E-03
(PID.TID 0000.0001) %MON trAdv_CFL_w_max              =   1.9119010400485E-03
(PID.TID 0000.0001) %MON advcfl_uvel_max              =   3.1675435383837E-03
(PID.TID 0000.0001) %MON advcfl_vvel_max              =   3.4960646643070E-03
(PID.TID 0000.0001) %MON advcfl_wvel_max              =   3.8199300351350E-03
(PID.TID 0000.0001) %MON advcfl_W_hf_max              =   2.7312872000692E-03
(PID.TID 0000.0001) %MON pe_b_mean                    =   5.1015499588025E-04
(PID.TID 0000.0001) %MON ke_max                       =   5.0253594018811E-01
(PID.TID 0000.0001) %MON ke_mean                      =   1.6713467115262E-04
(PID.TID 0000.0001) %MON ke_vol                       =   1.3398106572445E+18
(PID.TID 0000.0001) %MON vort_r_min                   =  -4.8058158589118E-06
(PID.TID 0000.0001) %MON vort_r_max                   =   3.6947966487444E-06
(PID.TID 0000.0001) %MON vort_a_mean                  =  -2.0549865324846E-05
(PID.TID 0000.0001) %MON vort_a_sd                    =   7.5259518524696E-05
(PID.TID 0000.0001) %MON vort_p_mean                  =  -2.4783319449828E-05
(PID.TID 0000.0001) %MON vort_p_sd                    =   1.2811915645368E-04
(PID.TID 0000.0001) %MON surfExpan_theta_mean         =  -6.5639602370088E-06
(PID.TID 0000.0001) %MON surfExpan_salt_mean          =   9.5035353036011E-07
(PID.TID 0000.0001) // =======================================================
(PID.TID 0000.0001) // End MONITOR dynamic field statistics
(PID.TID 0000.0001) // =======================================================
 cg2d: Sum(rhs),rhsMax =  -3.70394127188045E+01  5.37452633757110E+01
(PID.TID 0000.0001)      cg2d_init_res =   2.87858975847677E-01
(PID.TID 0000.0001)      cg2d_iters(min,last) =      -1      10
(PID.TID 0000.0001)      cg2d_last_res =   9.97755354824046E-08
(PID.TID 0000.0001) // =======================================================
(PID.TID 0000.0001) // Begin MONITOR dynamic field statistics
(PID.TID 0000.0001) // =======================================================
(PID.TID 0000.0001) %MON time_tsnumber                =                 72038
(PID.TID 0000.0001) %MON time_secondsf                =   6.4834200000000E+07
(PID.TID 0000.0001) %MON dynstat_eta_max              =   2.3977883720399E+00
(PID.TID 0000.0001) %MON dynstat_eta_min              =  -1.6083033866178E+00
(PID.TID 0000.0001) %MON dynstat_eta_mean             =   2.3131588657822E-02
(PID.TID 0000.0001) %MON dynstat_eta_sd               =   6.1816015360158E-01
(PID.TID 0000.0001) %MON dynstat_eta_del2             =   2.0151692358057E-03
(PID.TID 0000.0001) %MON dynstat_uvel_max             =   3.1631630737894E-01
(PID.TID 0000.0001) %MON dynstat_uvel_min             =  -9.5147123349092E-01
(PID.TID 0000.0001) %MON dynstat_uvel_mean            =  -3.7722613585580E-04
(PID.TID 0000.0001) %MON dynstat_uvel_sd              =   1.3008604935572E-02
(PID.TID 0000.0001) %MON dynstat_uvel_del2            =   8.6572712276351E-05
(PID.TID 0000.0001) %MON dynstat_vvel_max             =   1.0999503640386E+00
(PID.TID 0000.0001) %MON dynstat_vvel_min             =  -1.0085347874148E+00
(PID.TID 0000.0001) %MON dynstat_vvel_mean            =  -3.0882383075329E-04
(PID.TID 0000.0001) %MON dynstat_vvel_sd              =   1.3832898477984E-02
(PID.TID 0000.0001) %MON dynstat_vvel_del2            =   1.2261162307874E-04
(PID.TID 0000.0001) %MON dynstat_wvel_max             =   2.1238165247091E-04
(PID.TID 0000.0001) %MON dynstat_wvel_min             =  -1.9425412744566E-04
(PID.TID 0000.0001) %MON dynstat_wvel_mean            =  -5.9542538438254E-09
(PID.TID 0000.0001) %MON dynstat_wvel_sd              =   8.1977498763711E-06
(PID.TID 0000.0001) %MON dynstat_wvel_del2            =   7.4001858908364E-08
(PID.TID 0000.0001) %MON dynstat_theta_max            =   3.0936404513728E+01
(PID.TID 0000.0001) %MON dynstat_theta_min            =  -3.0050238917571E+00
(PID.TID 0000.0001) %MON dynstat_theta_mean           =   3.9091960988079E+00
(PID.TID 0000.0001) %MON dynstat_theta_sd             =   4.5715526420673E+00
(PID.TID 0000.0001) %MON dynstat_theta_del2           =   2.6469303857036E-03
(PID.TID 0000.0001) %MON dynstat_salt_max             =   4.1355023601048E+01
(PID.TID 0000.0001) %MON dynstat_salt_min             =   1.8518752239137E+01
(PID.TID 0000.0001) %MON dynstat_salt_mean            =   3.4772010682968E+01
(PID.TID 0000.0001) %MON dynstat_salt_sd              =   5.3158854498840E-01
(PID.TID 0000.0001) %MON dynstat_salt_del2            =   9.6925662126730E-04
(PID.TID 0000.0001) %MON dynstat_sst_max              =   3.0936404513728E+01
(PID.TID 0000.0001) %MON dynstat_sst_min              =  -1.8981090903237E+00
(PID.TID 0000.0001) %MON dynstat_sst_mean             =   1.8112640867668E+01
(PID.TID 0000.0001) %MON dynstat_sst_sd               =   9.8085588454142E+00
(PID.TID 0000.0001) %MON dynstat_sst_del2             =   1.5148851930877E-02
(PID.TID 0000.0001) %MON dynstat_sss_max              =   4.1355023601048E+01
(PID.TID 0000.0001) %MON dynstat_sss_min              =   1.8751485572705E+01
(PID.TID 0000.0001) %MON dynstat_sss_mean             =   3.4628508357726E+01
(PID.TID 0000.0001) %MON dynstat_sss_sd               =   1.4733284661682E+00
(PID.TID 0000.0001) %MON dynstat_sss_del2             =   1.0523444980312E-02
(PID.TID 0000.0001) %MON forcing_qnet_max             =   2.5479418168339E+03
(PID.TID 0000.0001) %MON forcing_qnet_min             =  -1.6030587100935E+03
(PID.TID 0000.0001) %MON forcing_qnet_mean            =   1.6394423959139E+00
(PID.TID 0000.0001) %MON forcing_qnet_sd              =   2.4341659175164E+02
(PID.TID 0000.0001) %MON forcing_qnet_del2            =   4.8037740184026E+00
(PID.TID 0000.0001) %MON forcing_qsw_max              =   0.0000000000000E+00
(PID.TID 0000.0001) %MON forcing_qsw_min              =  -4.1376187123293E+02
(PID.TID 0000.0001) %MON forcing_qsw_mean             =  -5.4438889452869E+01
(PID.TID 0000.0001) %MON forcing_qsw_sd               =   9.9359618450414E+01
(PID.TID 0000.0001) %MON forcing_qsw_del2             =   9.1244185950383E-01
(PID.TID 0000.0001) %MON forcing_empmr_max            =   7.5614410452545E-03
(PID.TID 0000.0001) %MON forcing_empmr_min            =  -1.0869106650352E-01
(PID.TID 0000.0001) %MON forcing_empmr_mean           =  -3.1962104852957E-04
(PID.TID 0000.0001) %MON forcing_empmr_sd             =   4.8171471905568E-03
(PID.TID 0000.0001) %MON forcing_empmr_del2           =   1.9018405729637E-04
(PID.TID 0000.0001) %MON forcing_fu_max               =   3.8829391900361E-01
(PID.TID 0000.0001) %MON forcing_fu_min               =  -3.6532058684513E-01
(PID.TID 0000.0001) %MON forcing_fu_mean              =  -2.6640764559917E-03
(PID.TID 0000.0001) %MON forcing_fu_sd                =   6.2087884720547E-02
(PID.TID 0000.0001) %MON forcing_fu_del2              =   6.0958503538453E-04
(PID.TID 0000.0001) %MON forcing_fv_max               =   3.2278723781148E-01
(PID.TID 0000.0001) %MON forcing_fv_min               =  -2.8398983367727E-01
(PID.TID 0000.0001) %MON forcing_fv_mean              =  -1.3534598480481E-02
(PID.TID 0000.0001) %MON forcing_fv_sd                =   6.3965047586533E-02
(PID.TID 0000.0001) %MON forcing_fv_del2              =   5.5153988992162E-04
(PID.TID 0000.0001) %MON trAdv_CFL_u_max              =   3.2209248143565E-03
(PID.TID 0000.0001) %MON trAdv_CFL_v_max              =   4.5375486618682E-03
(PID.TID 0000.0001) %MON trAdv_CFL_w_max              =   1.9115728809725E-03
(PID.TID 0000.0001) %MON advcfl_uvel_max              =   3.1729345216774E-03
(PID.TID 0000.0001) %MON advcfl_vvel_max              =   3.2962976032733E-03
(PID.TID 0000.0001) %MON advcfl_wvel_max              =   3.7805588349052E-03
(PID.TID 0000.0001) %MON advcfl_W_hf_max              =   2.7308184013893E-03
(PID.TID 0000.0001) %MON pe_b_mean                    =   5.0976673453981E-04
(PID.TID 0000.0001) %MON ke_max                       =   4.6805467458221E-01
(PID.TID 0000.0001) %MON ke_mean                      =   1.6662671084403E-04
(PID.TID 0000.0001) %MON ke_vol                       =   1.3398107615056E+18
(PID.TID 0000.0001) %MON vort_r_min                   =  -4.5062855706950E-06
(PID.TID 0000.0001) %MON vort_r_max                   =   3.6342959852534E-06
(PID.TID 0000.0001) %MON vort_a_mean                  =  -2.0549865324846E-05
(PID.TID 0000.0001) %MON vort_a_sd                    =   7.5259525924500E-05
(PID.TID 0000.0001) %MON vort_p_mean                  =  -2.4783317792138E-05
(PID.TID 0000.0001) %MON vort_p_sd                    =   1.2811917267785E-04
(PID.TID 0000.0001) %MON surfExpan_theta_mean         =  -6.4590564893198E-06
(PID.TID 0000.0001) %MON surfExpan_salt_mean          =   9.3348936772613E-07
(PID.TID 0000.0001) // =======================================================
(PID.TID 0000.0001) // End MONITOR dynamic field statistics
(PID.TID 0000.0001) // =======================================================
 cg2d: Sum(rhs),rhsMax =  -3.57058336495374E+01  5.64018824241740E+01
(PID.TID 0000.0001)      cg2d_init_res =   2.67183838830807E-01
(PID.TID 0000.0001)      cg2d_iters(min,last) =      -1      10
(PID.TID 0000.0001)      cg2d_last_res =   8.71496304650203E-08
(PID.TID 0000.0001) // =======================================================
(PID.TID 0000.0001) // Begin MONITOR dynamic field statistics
(PID.TID 0000.0001) // =======================================================
(PID.TID 0000.0001) %MON time_tsnumber                =                 72039
(PID.TID 0000.0001) %MON time_secondsf                =   6.4835100000000E+07
(PID.TID 0000.0001) %MON dynstat_eta_max              =   2.5155660573494E+00
(PID.TID 0000.0001) %MON dynstat_eta_min              =  -1.6085297335945E+00
(PID.TID 0000.0001) %MON dynstat_eta_mean             =   2.3400974827446E-02
(PID.TID 0000.0001) %MON dynstat_eta_sd               =   6.1798014997419E-01
(PID.TID 0000.0001) %MON dynstat_eta_del2             =   2.0217686991801E-03
(PID.TID 0000.0001) %MON dynstat_uvel_max             =   3.2405557096871E-01
(PID.TID 0000.0001) %MON dynstat_uvel_min             =  -9.3507719952103E-01
(PID.TID 0000.0001) %MON dynstat_uvel_mean            =  -4.0569790709412E-04
(PID.TID 0000.0001) %MON dynstat_uvel_sd              =   1.3007212460529E-02
(PID.TID 0000.0001) %MON dynstat_uvel_del2            =   8.6566016946203E-05
(PID.TID 0000.0001) %MON dynstat_vvel_max             =   1.0676323405632E+00
(PID.TID 0000.0001) %MON dynstat_vvel_min             =  -9.3240294561826E-01
(PID.TID 0000.0001) %MON dynstat_vvel_mean            =  -2.7104676602692E-04
(PID.TID 0000.0001) %MON dynstat_vvel_sd              =   1.3786258602218E-02
(PID.TID 0000.0001) %MON dynstat_vvel_del2            =   1.1986964903053E-04
(PID.TID 0000.0001) %MON dynstat_wvel_max             =   2.1076445968862E-04
(PID.TID 0000.0001) %MON dynstat_wvel_min             =  -1.9088321023427E-04
(PID.TID 0000.0001) %MON dynstat_wvel_mean            =  -7.6818563485633E-09
(PID.TID 0000.0001) %MON dynstat_wvel_sd              =   8.1354207461327E-06
(PID.TID 0000.0001) %MON dynstat_wvel_del2            =   7.4007264959093E-08
(PID.TID 0000.0001) %MON dynstat_theta_max            =   3.0936926497783E+01
(PID.TID 0000.0001) %MON dynstat_theta_min            =  -3.0048734139359E+00
(PID.TID 0000.0001) %MON dynstat_theta_mean           =   3.9091976324379E+00
(PID.TID 0000.0001) %MON dynstat_theta_sd             =   4.5715598227680E+00
(PID.TID 0000.0001) %MON dynstat_theta_del2           =   2.6466799698692E-03
(PID.TID 0000.0001) %MON dynstat_salt_max             =   4.1354698013130E+01
(PID.TID 0000.0001) %MON dynstat_salt_min             =   1.8518762736941E+01
(PID.TID 0000.0001) %MON dynstat_salt_mean            =   3.4772007405133E+01
(PID.TID 0000.0001) %MON dynstat_salt_sd              =   5.3160710769308E-01
(PID.TID 0000.0001) %MON dynstat_salt_del2            =   9.7430024034105E-04
(PID.TID 0000.0001) %MON dynstat_sst_max              =   3.0936926497783E+01
(PID.TID 0000.0001) %MON dynstat_sst_min              =  -1.8980580576727E+00
(PID.TID 0000.0001) %MON dynstat_sst_mean             =   1.8112676110238E+01
(PID.TID 0000.0001) %MON dynstat_sst_sd               =   9.8086515563303E+00
(PID.TID 0000.0001) %MON dynstat_sst_del2             =   1.5142625963025E-02
(PID.TID 0000.0001) %MON dynstat_sss_max              =   4.1354698013130E+01
(PID.TID 0000.0001) %MON dynstat_sss_min              =   1.8751512288531E+01
(PID.TID 0000.0001) %MON dynstat_sss_mean             =   3.4628276483255E+01
(PID.TID 0000.0001) %MON dynstat_sss_sd               =   1.4737964114662E+00
(PID.TID 0000.0001) %MON dynstat_sss_del2             =   1.0596709219539E-02
(PID.TID 0000.0001) %MON forcing_qnet_max             =   2.5140214618986E+03
(PID.TID 0000.0001) %MON forcing_qnet_min             =  -1.5818745194327E+03
(PID.TID 0000.0001) %MON forcing_qnet_mean            =   4.0901724116056E+00
(PID.TID 0000.0001) %MON forcing_qnet_sd              =   2.4278933012709E+02
(PID.TID 0000.0001) %MON forcing_qnet_del2            =   4.7635687406435E+00
(PID.TID 0000.0001) %MON forcing_qsw_max              =   0.0000000000000E+00
(PID.TID 0000.0001) %MON forcing_qsw_min              =  -4.1299116426791E+02
(PID.TID 0000.0001) %MON forcing_qsw_mean             =  -5.3721254792372E+01
(PID.TID 0000.0001) %MON forcing_qsw_sd               =   9.9449432186999E+01
(PID.TID 0000.0001) %MON forcing_qsw_del2             =   9.0086390766636E-01
(PID.TID 0000.0001) %MON forcing_empmr_max            =   7.4835051782429E-03
(PID.TID 0000.0001) %MON forcing_empmr_min            =  -1.0757088661194E-01
(PID.TID 0000.0001) %MON forcing_empmr_mean           =  -3.0979409506855E-04
(PID.TID 0000.0001) %MON forcing_empmr_sd             =   4.7369817595785E-03
(PID.TID 0000.0001) %MON forcing_empmr_del2           =   1.8705758128863E-04
(PID.TID 0000.0001) %MON forcing_fu_max               =   3.8479561056467E-01
(PID.TID 0000.0001) %MON forcing_fu_min               =  -3.6408681493696E-01
(PID.TID 0000.0001) %MON forcing_fu_mean              =  -2.6245959186845E-03
(PID.TID 0000.0001) %MON forcing_fu_sd                =   6.1713955720963E-02
(PID.TID 0000.0001) %MON forcing_fu_del2              =   6.0658634925117E-04
(PID.TID 0000.0001) %MON forcing_fv_max               =   3.2214277653916E-01
(PID.TID 0000.0001) %MON forcing_fv_min               =  -2.8315938881882E-01
(PID.TID 0000.0001) %MON forcing_fv_mean              =  -1.3721401704160E-02
(PID.TID 0000.0001) %MON forcing_fv_sd                =   6.3819944289553E-02
(PID.TID 0000.0001) %MON forcing_fv_del2              =   5.4930200792852E-04
(PID.TID 0000.0001) %MON trAdv_CFL_u_max              =   3.1762282569828E-03
(PID.TID 0000.0001) %MON trAdv_CFL_v_max              =   4.2153128414951E-03
(PID.TID 0000.0001) %MON trAdv_CFL_w_max              =   1.9232210878763E-03
(PID.TID 0000.0001) %MON advcfl_uvel_max              =   3.1182642442148E-03
(PID.TID 0000.0001) %MON advcfl_vvel_max              =   3.1994479391363E-03
(PID.TID 0000.0001) %MON advcfl_wvel_max              =   3.7415960560674E-03
(PID.TID 0000.0001) %MON advcfl_W_hf_max              =   2.7099986721332E-03
(PID.TID 0000.0001) %MON pe_b_mean                    =   5.0948697296825E-04
(PID.TID 0000.0001) %MON ke_max                       =   4.2151712261478E-01
(PID.TID 0000.0001) %MON ke_mean                      =   1.6601244445495E-04
(PID.TID 0000.0001) %MON ke_vol                       =   1.3398108626411E+18
(PID.TID 0000.0001) %MON vort_r_min                   =  -4.1729790258490E-06
(PID.TID 0000.0001) %MON vort_r_max                   =   3.8697322123940E-06
(PID.TID 0000.0001) %MON vort_a_mean                  =  -2.0549865324846E-05
(PID.TID 0000.0001) %MON vort_a_sd                    =   7.5259534412748E-05
(PID.TID 0000.0001) %MON vort_p_mean                  =  -2.4783316188150E-05
(PID.TID 0000.0001) %MON vort_p_sd                    =   1.2811918651274E-04
(PID.TID 0000.0001) %MON surfExpan_theta_mean         =  -6.3694913767037E-06
(PID.TID 0000.0001) %MON surfExpan_salt_mean          =   9.2205623269795E-07
(PID.TID 0000.0001) // =======================================================
(PID.TID 0000.0001) // End MONITOR dynamic field statistics
(PID.TID 0000.0001) // =======================================================
 Computing Diagnostic #     81  oceTAUX      Counter:       1   Parms: UU      U1      
           Vector  Mate for  oceTAUX      Diagnostic #     82  oceTAUY  exists 
 Computing Diagnostic #     82  oceTAUY      Counter:       1   Parms: VV      U1      
           Vector  Mate for  oceTAUY      Diagnostic #     81  oceTAUX  exists 
 Computing Diagnostic #     85  oceFWflx     Counter:       1   Parms: SM      U1      
 Computing Diagnostic #     86  oceSflux     Counter:       1   Parms: SM      U1      
 Computing Diagnostic #     87  oceQnet      Counter:       1   Parms: SM      U1      
 Computing Diagnostic #     88  oceQsw       Counter:       1   Parms: SM      U1      
 Computing Diagnostic #     27  SALT         Counter:       1   Parms: SMR     MR      
 Computing Diagnostic #     26  THETA        Counter:       1   Parms: SMR     MR      
 Computing Diagnostic #     45  UVELMASS     Counter:       1   Parms: UUr     MR      
           Vector  Mate for  UVELMASS     Diagnostic #     46  VVELMASS exists 
 Computing Diagnostic #     46  VVELMASS     Counter:       1   Parms: VVr     MR      
           Vector  Mate for  VVELMASS     Diagnostic #     45  UVELMASS exists 
 cg2d: Sum(rhs),rhsMax =  -3.46003882594621E+01  5.88667087415070E+01
(PID.TID 0000.0001)      cg2d_init_res =   2.46803371421283E-01
(PID.TID 0000.0001)      cg2d_iters(min,last) =      -1      10
(PID.TID 0000.0001)      cg2d_last_res =   6.97394074218518E-08
(PID.TID 0000.0001) // =======================================================
(PID.TID 0000.0001) // Begin MONITOR dynamic field statistics
(PID.TID 0000.0001) // =======================================================
(PID.TID 0000.0001) %MON time_tsnumber                =                 72040
(PID.TID 0000.0001) %MON time_secondsf                =   6.4836000000000E+07
(PID.TID 0000.0001) %MON dynstat_eta_max              =   2.6248172963154E+00
(PID.TID 0000.0001) %MON dynstat_eta_min              =  -1.6087151867890E+00
(PID.TID 0000.0001) %MON dynstat_eta_mean             =   2.3667473543097E-02
(PID.TID 0000.0001) %MON dynstat_eta_sd               =   6.1785811077256E-01
(PID.TID 0000.0001) %MON dynstat_eta_del2             =   2.0560936588055E-03
(PID.TID 0000.0001) %MON dynstat_uvel_max             =   3.3034356052119E-01
(PID.TID 0000.0001) %MON dynstat_uvel_min             =  -9.0182781571797E-01
(PID.TID 0000.0001) %MON dynstat_uvel_mean            =  -4.3136356919341E-04
(PID.TID 0000.0001) %MON dynstat_uvel_sd              =   1.2995467945632E-02
(PID.TID 0000.0001) %MON dynstat_uvel_del2            =   8.6502673239194E-05
(PID.TID 0000.0001) %MON dynstat_vvel_max             =   1.0236695300225E+00
(PID.TID 0000.0001) %MON dynstat_vvel_min             =  -8.4460131638837E-01
(PID.TID 0000.0001) %MON dynstat_vvel_mean            =  -2.2956394149153E-04
(PID.TID 0000.0001) %MON dynstat_vvel_sd              =   1.3743056041179E-02
(PID.TID 0000.0001) %MON dynstat_vvel_del2            =   1.1663886332514E-04
(PID.TID 0000.0001) %MON dynstat_wvel_max             =   2.0774005527858E-04
(PID.TID 0000.0001) %MON dynstat_wvel_min             =  -1.9759040084902E-04
(PID.TID 0000.0001) %MON dynstat_wvel_mean            =  -1.4012908637024E-08
(PID.TID 0000.0001) %MON dynstat_wvel_sd              =   8.0735411149122E-06
(PID.TID 0000.0001) %MON dynstat_wvel_del2            =   7.3992996186876E-08
(PID.TID 0000.0001) %MON dynstat_theta_max            =   3.0937418760931E+01
(PID.TID 0000.0001) %MON dynstat_theta_min            =  -3.0047254677572E+00
(PID.TID 0000.0001) %MON dynstat_theta_mean           =   3.9091989858616E+00
(PID.TID 0000.0001) %MON dynstat_theta_sd             =   4.5715663585986E+00
(PID.TID 0000.0001) %MON dynstat_theta_del2           =   2.6465469262254E-03
(PID.TID 0000.0001) %MON dynstat_salt_max             =   4.1354366136385E+01
(PID.TID 0000.0001) %MON dynstat_salt_min             =   1.8518773239524E+01
(PID.TID 0000.0001) %MON dynstat_salt_mean            =   3.4772004181999E+01
(PID.TID 0000.0001) %MON dynstat_salt_sd              =   5.3162551562976E-01
(PID.TID 0000.0001) %MON dynstat_salt_del2            =   9.7928377281624E-04
(PID.TID 0000.0001) %MON dynstat_sst_max              =   3.0937418760931E+01
(PID.TID 0000.0001) %MON dynstat_sst_min              =  -1.8980005493691E+00
(PID.TID 0000.0001) %MON dynstat_sst_mean             =   1.8112683191541E+01
(PID.TID 0000.0001) %MON dynstat_sst_sd               =   9.8087801939210E+00
(PID.TID 0000.0001) %MON dynstat_sst_del2             =   1.5139858085272E-02
(PID.TID 0000.0001) %MON dynstat_sss_max              =   4.1354366136385E+01
(PID.TID 0000.0001) %MON dynstat_sss_min              =   1.8751543750365E+01
(PID.TID 0000.0001) %MON dynstat_sss_mean             =   3.4628049288465E+01
(PID.TID 0000.0001) %MON dynstat_sss_sd               =   1.4742608159739E+00
(PID.TID 0000.0001) %MON dynstat_sss_del2             =   1.0668958901167E-02
(PID.TID 0000.0001) %MON forcing_qnet_max             =   2.4818199405510E+03
(PID.TID 0000.0001) %MON forcing_qnet_min             =  -1.5609169179147E+03
(PID.TID 0000.0001) %MON forcing_qnet_mean            =   6.7704702577574E+00
(PID.TID 0000.0001) %MON forcing_qnet_sd              =   2.4090369346218E+02
(PID.TID 0000.0001) %MON forcing_qnet_del2            =   4.6987503893832E+00
(PID.TID 0000.0001) %MON forcing_qsw_max              =   0.0000000000000E+00
(PID.TID 0000.0001) %MON forcing_qsw_min              =  -4.1649840442792E+02
(PID.TID 0000.0001) %MON forcing_qsw_mean             =  -5.2909632405257E+01
(PID.TID 0000.0001) %MON forcing_qsw_sd               =   9.9331513669475E+01
(PID.TID 0000.0001) %MON forcing_qsw_del2             =   8.8863451489636E-01
(PID.TID 0000.0001) %MON forcing_empmr_max            =   7.4063567444682E-03
(PID.TID 0000.0001) %MON forcing_empmr_min            =  -1.0646329820156E-01
(PID.TID 0000.0001) %MON forcing_empmr_mean           =  -3.0647352299791E-04
(PID.TID 0000.0001) %MON forcing_empmr_sd             =   4.6880100317485E-03
(PID.TID 0000.0001) %MON forcing_empmr_del2           =   1.8512149238018E-04
(PID.TID 0000.0001) %MON forcing_fu_max               =   3.8243067523158E-01
(PID.TID 0000.0001) %MON forcing_fu_min               =  -3.6275959083980E-01
(PID.TID 0000.0001) %MON forcing_fu_mean              =  -2.5924266627431E-03
(PID.TID 0000.0001) %MON forcing_fu_sd                =   6.1404843649440E-02
(PID.TID 0000.0001) %MON forcing_fu_del2              =   6.0438148800327E-04
(PID.TID 0000.0001) %MON forcing_fv_max               =   3.2326634872954E-01
(PID.TID 0000.0001) %MON forcing_fv_min               =  -2.8308320053018E-01
(PID.TID 0000.0001) %MON forcing_fv_mean              =  -1.3901245134355E-02
(PID.TID 0000.0001) %MON forcing_fv_sd                =   6.3708968560645E-02
(PID.TID 0000.0001) %MON forcing_fv_del2              =   5.4758233531179E-04
(PID.TID 0000.0001) %MON trAdv_CFL_u_max              =   3.0733072960083E-03
(PID.TID 0000.0001) %MON trAdv_CFL_v_max              =   3.8515829007355E-03
(PID.TID 0000.0001) %MON trAdv_CFL_w_max              =   1.9929129088060E-03
(PID.TID 0000.0001) %MON advcfl_uvel_max              =   3.0073853085416E-03
(PID.TID 0000.0001) %MON advcfl_vvel_max              =   3.0677015333382E-03
(PID.TID 0000.0001) %MON advcfl_wvel_max              =   3.7030712417934E-03
(PID.TID 0000.0001) %MON advcfl_W_hf_max              =   2.6710876066869E-03
(PID.TID 0000.0001) %MON pe_b_mean                    =   5.0930272630099E-04
(PID.TID 0000.0001) %MON ke_max                       =   3.6625641392148E-01
(PID.TID 0000.0001) %MON ke_mean                      =   1.6532053246708E-04
(PID.TID 0000.0001) %MON ke_vol                       =   1.3398109606671E+18
(PID.TID 0000.0001) %MON vort_r_min                   =  -3.8095960242139E-06
(PID.TID 0000.0001) %MON vort_r_max                   =   4.0087046792670E-06
(PID.TID 0000.0001) %MON vort_a_mean                  =  -2.0549865324846E-05
(PID.TID 0000.0001) %MON vort_a_sd                    =   7.5259543874364E-05
(PID.TID 0000.0001) %MON vort_p_mean                  =  -2.4783314632020E-05
(PID.TID 0000.0001) %MON vort_p_sd                    =   1.2811919713367E-04
(PID.TID 0000.0001) %MON surfExpan_theta_mean         =  -6.2953359643191E-06
(PID.TID 0000.0001) %MON surfExpan_salt_mean          =   9.2327062579833E-07
(PID.TID 0000.0001) // =======================================================
(PID.TID 0000.0001) // End MONITOR dynamic field statistics
(PID.TID 0000.0001) // =======================================================
 cg2d: Sum(rhs),rhsMax =  -3.37028637767030E+01  6.11081323681540E+01
(PID.TID 0000.0001)      cg2d_init_res =   2.27924015170942E-01
(PID.TID 0000.0001)      cg2d_iters(min,last) =      -1      10
(PID.TID 0000.0001)      cg2d_last_res =   5.19030418503413E-08
(PID.TID 0000.0001) // =======================================================
(PID.TID 0000.0001) // Begin MONITOR dynamic field statistics
(PID.TID 0000.0001) // =======================================================
(PID.TID 0000.0001) %MON time_tsnumber                =                 72041
(PID.TID 0000.0001) %MON time_secondsf                =   6.4836900000000E+07
(PID.TID 0000.0001) %MON dynstat_eta_max              =   2.7241426163989E+00
(PID.TID 0000.0001) %MON dynstat_eta_min              =  -1.6088090680834E+00
(PID.TID 0000.0001) %MON dynstat_eta_mean             =   2.3931338455270E-02
(PID.TID 0000.0001) %MON dynstat_eta_sd               =   6.1778327820601E-01
(PID.TID 0000.0001) %MON dynstat_eta_del2             =   2.1109680146590E-03
(PID.TID 0000.0001) %MON dynstat_uvel_max             =   3.3510348071522E-01
(PID.TID 0000.0001) %MON dynstat_uvel_min             =  -8.5720876404290E-01
(PID.TID 0000.0001) %MON dynstat_uvel_mean            =  -4.5404525214090E-04
(PID.TID 0000.0001) %MON dynstat_uvel_sd              =   1.2973942799160E-02
(PID.TID 0000.0001) %MON dynstat_uvel_del2            =   8.6423009393242E-05
(PID.TID 0000.0001) %MON dynstat_vvel_max             =   9.6939511132319E-01
(PID.TID 0000.0001) %MON dynstat_vvel_min             =  -7.4695024011675E-01
(PID.TID 0000.0001) %MON dynstat_vvel_mean            =  -1.8487551228889E-04
(PID.TID 0000.0001) %MON dynstat_vvel_sd              =   1.3705225791630E-02
(PID.TID 0000.0001) %MON dynstat_vvel_del2            =   1.1299634039643E-04
(PID.TID 0000.0001) %MON dynstat_wvel_max             =   2.0353533005664E-04
(PID.TID 0000.0001) %MON dynstat_wvel_min             =  -2.0320619430099E-04
(PID.TID 0000.0001) %MON dynstat_wvel_mean            =  -2.4490220760702E-08
(PID.TID 0000.0001) %MON dynstat_wvel_sd              =   8.0151879650319E-06
(PID.TID 0000.0001) %MON dynstat_wvel_del2            =   7.4000098877358E-08
(PID.TID 0000.0001) %MON dynstat_theta_max            =   3.0937823782768E+01
(PID.TID 0000.0001) %MON dynstat_theta_min            =  -3.0045849775517E+00
(PID.TID 0000.0001) %MON dynstat_theta_mean           =   3.9092001720732E+00
(PID.TID 0000.0001) %MON dynstat_theta_sd             =   4.5715719730470E+00
(PID.TID 0000.0001) %MON dynstat_theta_del2           =   2.6464275741897E-03
(PID.TID 0000.0001) %MON dynstat_salt_max             =   4.1354027942407E+01
(PID.TID 0000.0001) %MON dynstat_salt_min             =   1.8518783739939E+01
(PID.TID 0000.0001) %MON dynstat_salt_mean            =   3.4772001021952E+01
(PID.TID 0000.0001) %MON dynstat_salt_sd              =   5.3164375356585E-01
(PID.TID 0000.0001) %MON dynstat_salt_del2            =   9.8420412819490E-04
(PID.TID 0000.0001) %MON dynstat_sst_max              =   3.0937823782768E+01
(PID.TID 0000.0001) %MON dynstat_sst_min              =  -1.8979371746084E+00
(PID.TID 0000.0001) %MON dynstat_sst_mean             =   1.8112672270703E+01
(PID.TID 0000.0001) %MON dynstat_sst_sd               =   9.8089020825704E+00
(PID.TID 0000.0001) %MON dynstat_sst_del2             =   1.5137582931542E-02
(PID.TID 0000.0001) %MON dynstat_sss_max              =   4.1354027942407E+01
(PID.TID 0000.0001) %MON dynstat_sss_min              =   1.8751580282019E+01
(PID.TID 0000.0001) %MON dynstat_sss_mean             =   3.4627825919665E+01
(PID.TID 0000.0001) %MON dynstat_sss_sd               =   1.4747201646034E+00
(PID.TID 0000.0001) %MON dynstat_sss_del2             =   1.0740174051258E-02
(PID.TID 0000.0001) %MON forcing_qnet_max             =   2.4492124928673E+03
(PID.TID 0000.0001) %MON forcing_qnet_min             =  -1.5381339251085E+03
(PID.TID 0000.0001) %MON forcing_qnet_mean            =   9.3298819572525E+00
(PID.TID 0000.0001) %MON forcing_qnet_sd              =   2.3790949804856E+02
(PID.TID 0000.0001) %MON forcing_qnet_del2            =   4.5888475529812E+00
(PID.TID 0000.0001) %MON forcing_qsw_max              =   0.0000000000000E+00
(PID.TID 0000.0001) %MON forcing_qsw_min              =  -4.2539683460448E+02
(PID.TID 0000.0001) %MON forcing_qsw_mean             =  -5.1525448061405E+01
(PID.TID 0000.0001) %MON forcing_qsw_sd               =   9.8476848338711E+01
(PID.TID 0000.0001) %MON forcing_qsw_del2             =   8.6542278906118E-01
(PID.TID 0000.0001) %MON forcing_empmr_max            =   7.3299957439303E-03
(PID.TID 0000.0001) %MON forcing_empmr_min            =  -1.0536576062441E-01
(PID.TID 0000.0001) %MON forcing_empmr_mean           =  -3.0344464899846E-04
(PID.TID 0000.0001) %MON forcing_empmr_sd             =   4.6396780757883E-03
(PID.TID 0000.0001) %MON forcing_empmr_del2           =   1.8320786091365E-04
(PID.TID 0000.0001) %MON forcing_fu_max               =   3.8107922096011E-01
(PID.TID 0000.0001) %MON forcing_fu_min               =  -3.6209845701794E-01
(PID.TID 0000.0001) %MON forcing_fu_mean              =  -2.5636962149858E-03
(PID.TID 0000.0001) %MON forcing_fu_sd                =   6.1226944760588E-02
(PID.TID 0000.0001) %MON forcing_fu_del2              =   6.0357157781827E-04
(PID.TID 0000.0001) %MON forcing_fv_max               =   3.2032389286074E-01
(PID.TID 0000.0001) %MON forcing_fv_min               =  -2.8469097707003E-01
(PID.TID 0000.0001) %MON forcing_fv_mean              =  -1.4071166803936E-02
(PID.TID 0000.0001) %MON forcing_fv_sd                =   6.3553716928650E-02
(PID.TID 0000.0001) %MON forcing_fv_del2              =   5.4543097569213E-04
(PID.TID 0000.0001) %MON trAdv_CFL_u_max              =   2.9161554362211E-03
(PID.TID 0000.0001) %MON trAdv_CFL_v_max              =   3.4531320332350E-03
(PID.TID 0000.0001) %MON trAdv_CFL_w_max              =   2.0465087771945E-03
(PID.TID 0000.0001) %MON advcfl_uvel_max              =   2.8448569188698E-03
(PID.TID 0000.0001) %MON advcfl_vvel_max              =   2.9050536156442E-03
(PID.TID 0000.0001) %MON advcfl_wvel_max              =   3.6648960217186E-03
(PID.TID 0000.0001) %MON advcfl_W_hf_max              =   2.6170029375048E-03
(PID.TID 0000.0001) %MON pe_b_mean                    =   5.0919623981747E-04
(PID.TID 0000.0001) %MON ke_max                       =   3.1355614239329E-01
(PID.TID 0000.0001) %MON ke_mean                      =   1.6458255894566E-04
(PID.TID 0000.0001) %MON ke_vol                       =   1.3398110576425E+18
(PID.TID 0000.0001) %MON vort_r_min                   =  -3.4202311722348E-06
(PID.TID 0000.0001) %MON vort_r_max                   =   4.0522070579396E-06
(PID.TID 0000.0001) %MON vort_a_mean                  =  -2.0549865324846E-05
(PID.TID 0000.0001) %MON vort_a_sd                    =   7.5259554169762E-05
(PID.TID 0000.0001) %MON vort_p_mean                  =  -2.4783313088527E-05
(PID.TID 0000.0001) %MON vort_p_sd                    =   1.2811920281398E-04
(PID.TID 0000.0001) %MON surfExpan_theta_mean         =  -6.2277847075128E-06
(PID.TID 0000.0001) %MON surfExpan_salt_mean          =   9.2994000974672E-07
(PID.TID 0000.0001) // =======================================================
(PID.TID 0000.0001) // End MONITOR dynamic field statistics
(PID.TID 0000.0001) // =======================================================
 cg2d: Sum(rhs),rhsMax =  -3.29976673361160E+01  6.30965846129437E+01
(PID.TID 0000.0001)      cg2d_init_res =   2.10427825650306E-01
(PID.TID 0000.0001)      cg2d_iters(min,last) =      -1      10
(PID.TID 0000.0001)      cg2d_last_res =   4.66168292382026E-08
(PID.TID 0000.0001) // =======================================================
(PID.TID 0000.0001) // Begin MONITOR dynamic field statistics
(PID.TID 0000.0001) // =======================================================
(PID.TID 0000.0001) %MON time_tsnumber                =                 72042
(PID.TID 0000.0001) %MON time_secondsf                =   6.4837800000000E+07
(PID.TID 0000.0001) %MON dynstat_eta_max              =   2.8122327259184E+00
(PID.TID 0000.0001) %MON dynstat_eta_min              =  -1.6087597080624E+00
(PID.TID 0000.0001) %MON dynstat_eta_mean             =   2.4193030050308E-02
(PID.TID 0000.0001) %MON dynstat_eta_sd               =   6.1774178544227E-01
(PID.TID 0000.0001) %MON dynstat_eta_del2             =   2.1784481860597E-03
(PID.TID 0000.0001) %MON dynstat_uvel_max             =   3.3827216745068E-01
(PID.TID 0000.0001) %MON dynstat_uvel_min             =  -8.1352390398358E-01
(PID.TID 0000.0001) %MON dynstat_uvel_mean            =  -4.7361382051036E-04
(PID.TID 0000.0001) %MON dynstat_uvel_sd              =   1.2943903869854E-02
(PID.TID 0000.0001) %MON dynstat_uvel_del2            =   8.6371699467025E-05
(PID.TID 0000.0001) %MON dynstat_vvel_max             =   9.0619593348063E-01
(PID.TID 0000.0001) %MON dynstat_vvel_min             =  -6.4136669613254E-01
(PID.TID 0000.0001) %MON dynstat_vvel_mean            =  -1.3757737804250E-04
(PID.TID 0000.0001) %MON dynstat_vvel_sd              =   1.3674372975295E-02
(PID.TID 0000.0001) %MON dynstat_vvel_del2            =   1.0904458494800E-04
(PID.TID 0000.0001) %MON dynstat_wvel_max             =   1.9841509457894E-04
(PID.TID 0000.0001) %MON dynstat_wvel_min             =  -2.0768253075292E-04
(PID.TID 0000.0001) %MON dynstat_wvel_mean            =  -3.9049627752955E-08
(PID.TID 0000.0001) %MON dynstat_wvel_sd              =   7.9617646205339E-06
(PID.TID 0000.0001) %MON dynstat_wvel_del2            =   7.4043614600089E-08
(PID.TID 0000.0001) %MON dynstat_theta_max            =   3.0938194375491E+01
(PID.TID 0000.0001) %MON dynstat_theta_min            =  -3.0044570834474E+00
(PID.TID 0000.0001) %MON dynstat_theta_mean           =   3.9092013925966E+00
(PID.TID 0000.0001) %MON dynstat_theta_sd             =   4.5715773755492E+00
(PID.TID 0000.0001) %MON dynstat_theta_del2           =   2.6463013954762E-03
(PID.TID 0000.0001) %MON dynstat_salt_max             =   4.1353683875178E+01
(PID.TID 0000.0001) %MON dynstat_salt_min             =   1.8518794231851E+01
(PID.TID 0000.0001) %MON dynstat_salt_mean            =   3.4771997944373E+01
(PID.TID 0000.0001) %MON dynstat_salt_sd              =   5.3166177651541E-01
(PID.TID 0000.0001) %MON dynstat_salt_del2            =   9.8906534904521E-04
(PID.TID 0000.0001) %MON dynstat_sst_max              =   3.0938194375491E+01
(PID.TID 0000.0001) %MON dynstat_sst_min              =  -1.8978668600718E+00
(PID.TID 0000.0001) %MON dynstat_sst_mean             =   1.8112665838777E+01
(PID.TID 0000.0001) %MON dynstat_sst_sd               =   9.8090149380495E+00
(PID.TID 0000.0001) %MON dynstat_sst_del2             =   1.5134774725829E-02
(PID.TID 0000.0001) %MON dynstat_sss_max              =   4.1353683875178E+01
(PID.TID 0000.0001) %MON dynstat_sss_min              =   1.8751622711753E+01
(PID.TID 0000.0001) %MON dynstat_sss_mean             =   3.4627609619761E+01
(PID.TID 0000.0001) %MON dynstat_sss_sd               =   1.4751747694173E+00
(PID.TID 0000.0001) %MON dynstat_sss_del2             =   1.0810379979256E-02
(PID.TID 0000.0001) %MON forcing_qnet_max             =   2.4190689310605E+03
(PID.TID 0000.0001) %MON forcing_qnet_min             =  -1.0723515625000E+04
(PID.TID 0000.0001) %MON forcing_qnet_mean            =   8.5700481022184E+00
(PID.TID 0000.0001) %MON forcing_qnet_sd              =   2.7718595512100E+02
(PID.TID 0000.0001) %MON forcing_qnet_del2            =   8.8290500691596E+00
(PID.TID 0000.0001) %MON forcing_qsw_max              =   0.0000000000000E+00
(PID.TID 0000.0001) %MON forcing_qsw_min              =  -4.2708641678126E+02
(PID.TID 0000.0001) %MON forcing_qsw_mean             =  -5.1250893452282E+01
(PID.TID 0000.0001) %MON forcing_qsw_sd               =   9.8249998100294E+01
(PID.TID 0000.0001) %MON forcing_qsw_del2             =   8.6018347964156E-01
(PID.TID 0000.0001) %MON forcing_empmr_max            =   7.2544217109680E-03
(PID.TID 0000.0001) %MON forcing_empmr_min            =  -1.0428082942963E-01
(PID.TID 0000.0001) %MON forcing_empmr_mean           =  -3.0094533429452E-04
(PID.TID 0000.0001) %MON forcing_empmr_sd             =   4.5918634100050E-03
(PID.TID 0000.0001) %MON forcing_empmr_del2           =   1.8131581509949E-04
(PID.TID 0000.0001) %MON forcing_fu_max               =   3.8006276585154E-01
(PID.TID 0000.0001) %MON forcing_fu_min               =  -3.6160801668371E-01
(PID.TID 0000.0001) %MON forcing_fu_mean              =  -2.5028563139933E-03
(PID.TID 0000.0001) %MON forcing_fu_sd                =   6.1111759468290E-02
(PID.TID 0000.0001) %MON forcing_fu_del2              =   6.0377692014522E-04
(PID.TID 0000.0001) %MON forcing_fv_max               =   3.2160070721968E-01
(PID.TID 0000.0001) %MON forcing_fv_min               =  -2.8650248273779E-01
(PID.TID 0000.0001) %MON forcing_fv_mean              =  -1.4255530275071E-02
(PID.TID 0000.0001) %MON forcing_fv_sd                =   6.3427104216189E-02
(PID.TID 0000.0001) %MON forcing_fv_del2              =   5.4443727889175E-04
(PID.TID 0000.0001) %MON trAdv_CFL_u_max              =   2.7095170934036E-03
(PID.TID 0000.0001) %MON trAdv_CFL_v_max              =   3.0270582383457E-03
(PID.TID 0000.0001) %MON trAdv_CFL_w_max              =   2.0835264698816E-03
(PID.TID 0000.0001) %MON advcfl_uvel_max              =   2.6358156126095E-03
(PID.TID 0000.0001) %MON advcfl_vvel_max              =   2.7156602527598E-03
(PID.TID 0000.0001) %MON advcfl_wvel_max              =   3.6271592845087E-03
(PID.TID 0000.0001) %MON advcfl_W_hf_max              =   2.5511497324932E-03
(PID.TID 0000.0001) %MON pe_b_mean                    =   5.0914468593438E-04
(PID.TID 0000.0001) %MON ke_max                       =   2.7021273469594E-01
(PID.TID 0000.0001) %MON ke_mean                      =   1.6383420451794E-04
(PID.TID 0000.0001) %MON ke_vol                       =   1.3398111536594E+18
(PID.TID 0000.0001) %MON vort_r_min                   =  -3.0092968400085E-06
(PID.TID 0000.0001) %MON vort_r_max                   =   4.0030775144586E-06
(PID.TID 0000.0001) %MON vort_a_mean                  =  -2.0549865324846E-05
(PID.TID 0000.0001) %MON vort_a_sd                    =   7.5259565145815E-05
(PID.TID 0000.0001) %MON vort_p_mean                  =  -2.4783311550020E-05
(PID.TID 0000.0001) %MON vort_p_sd                    =   1.2811920338183E-04
(PID.TID 0000.0001) %MON surfExpan_theta_mean         =  -6.1797505718205E-06
(PID.TID 0000.0001) %MON surfExpan_salt_mean          =   9.4252528572839E-07
(PID.TID 0000.0001) // =======================================================
(PID.TID 0000.0001) // End MONITOR dynamic field statistics
(PID.TID 0000.0001) // =======================================================
 cg2d: Sum(rhs),rhsMax =  -3.24723075086340E+01  6.48050088081151E+01
(PID.TID 0000.0001)      cg2d_init_res =   1.94207589261515E-01
(PID.TID 0000.0001)      cg2d_iters(min,last) =      -1      10
(PID.TID 0000.0001)      cg2d_last_res =   3.51612002543547E-08
(PID.TID 0000.0001) // =======================================================
(PID.TID 0000.0001) // Begin MONITOR dynamic field statistics
(PID.TID 0000.0001) // =======================================================
(PID.TID 0000.0001) %MON time_tsnumber                =                 72043
(PID.TID 0000.0001) %MON time_secondsf                =   6.4838700000000E+07
(PID.TID 0000.0001) %MON dynstat_eta_max              =   2.8878893202008E+00
(PID.TID 0000.0001) %MON dynstat_eta_min              =  -1.6085184491577E+00
(PID.TID 0000.0001) %MON dynstat_eta_mean             =   2.4452479205722E-02
(PID.TID 0000.0001) %MON dynstat_eta_sd               =   6.1771732302827E-01
(PID.TID 0000.0001) %MON dynstat_eta_del2             =   2.2507231895705E-03
(PID.TID 0000.0001) %MON dynstat_uvel_max             =   3.3980050278426E-01
(PID.TID 0000.0001) %MON dynstat_uvel_min             =  -7.6297801321703E-01
(PID.TID 0000.0001) %MON dynstat_uvel_mean            =  -4.9001898603370E-04
(PID.TID 0000.0001) %MON dynstat_uvel_sd              =   1.2907041293366E-02
(PID.TID 0000.0001) %MON dynstat_uvel_del2            =   8.6389763743902E-05
(PID.TID 0000.0001) %MON dynstat_vvel_max             =   8.3551244079480E-01
(PID.TID 0000.0001) %MON dynstat_vvel_min             =  -5.2983273130348E-01
(PID.TID 0000.0001) %MON dynstat_vvel_mean            =  -8.8319404570863E-05
(PID.TID 0000.0001) %MON dynstat_vvel_sd              =   1.3651621946134E-02
(PID.TID 0000.0001) %MON dynstat_vvel_del2            =   1.0491146865427E-04
(PID.TID 0000.0001) %MON dynstat_wvel_max             =   1.9266175214926E-04
(PID.TID 0000.0001) %MON dynstat_wvel_min             =  -2.1094002849381E-04
(PID.TID 0000.0001) %MON dynstat_wvel_mean            =  -5.7312426851132E-08
(PID.TID 0000.0001) %MON dynstat_wvel_sd              =   7.9147460930023E-06
(PID.TID 0000.0001) %MON dynstat_wvel_del2            =   7.4133175093592E-08
(PID.TID 0000.0001) %MON dynstat_theta_max            =   3.0938528109392E+01
(PID.TID 0000.0001) %MON dynstat_theta_min            =  -3.0043471359312E+00
(PID.TID 0000.0001) %MON dynstat_theta_mean           =   3.9092024072693E+00
(PID.TID 0000.0001) %MON dynstat_theta_sd             =   4.5715821146073E+00
(PID.TID 0000.0001) %MON dynstat_theta_del2           =   2.6461917882926E-03
(PID.TID 0000.0001) %MON dynstat_salt_max             =   4.1353334802105E+01
(PID.TID 0000.0001) %MON dynstat_salt_min             =   1.8518804709787E+01
(PID.TID 0000.0001) %MON dynstat_salt_mean            =   3.4771994887439E+01
(PID.TID 0000.0001) %MON dynstat_salt_sd              =   5.3167966558499E-01
(PID.TID 0000.0001) %MON dynstat_salt_del2            =   9.9385471622675E-04
(PID.TID 0000.0001) %MON dynstat_sst_max              =   3.0938528109392E+01
(PID.TID 0000.0001) %MON dynstat_sst_min              =  -1.8977906322735E+00
(PID.TID 0000.0001) %MON dynstat_sst_mean             =   1.8112642050481E+01
(PID.TID 0000.0001) %MON dynstat_sst_sd               =   9.8091283645730E+00
(PID.TID 0000.0001) %MON dynstat_sst_del2             =   1.5132737350111E-02
(PID.TID 0000.0001) %MON dynstat_sss_max              =   4.1353334802105E+01
(PID.TID 0000.0001) %MON dynstat_sss_min              =   1.8751671287515E+01
(PID.TID 0000.0001) %MON dynstat_sss_mean             =   3.4627394417440E+01
(PID.TID 0000.0001) %MON dynstat_sss_sd               =   1.4756248134776E+00
(PID.TID 0000.0001) %MON dynstat_sss_del2             =   1.0879470110084E-02
(PID.TID 0000.0001) %MON forcing_qnet_max             =   2.3880775520875E+03
(PID.TID 0000.0001) %MON forcing_qnet_min             =  -1.6597733154297E+03
(PID.TID 0000.0001) %MON forcing_qnet_mean            =   1.1942473313876E+01
(PID.TID 0000.0001) %MON forcing_qnet_sd              =   2.3250207538627E+02
(PID.TID 0000.0001) %MON forcing_qnet_del2            =   4.3722877440431E+00
(PID.TID 0000.0001) %MON forcing_qsw_max              =   0.0000000000000E+00
(PID.TID 0000.0001) %MON forcing_qsw_min              =  -4.2764389941357E+02
(PID.TID 0000.0001) %MON forcing_qsw_mean             =  -5.0912829371846E+01
(PID.TID 0000.0001) %MON forcing_qsw_sd               =   9.7788782481827E+01
(PID.TID 0000.0001) %MON forcing_qsw_del2             =   8.5451486743328E-01
(PID.TID 0000.0001) %MON forcing_empmr_max            =   7.1796346455812E-03
(PID.TID 0000.0001) %MON forcing_empmr_min            =  -1.0320595651865E-01
(PID.TID 0000.0001) %MON forcing_empmr_mean           =  -2.9836652872620E-04
(PID.TID 0000.0001) %MON forcing_empmr_sd             =   4.5445042652652E-03
(PID.TID 0000.0001) %MON forcing_empmr_del2           =   1.7943643668809E-04
(PID.TID 0000.0001) %MON forcing_fu_max               =   3.7428340831884E-01
(PID.TID 0000.0001) %MON forcing_fu_min               =  -3.6157744912209E-01
(PID.TID 0000.0001) %MON forcing_fu_mean              =  -2.4928147500875E-03
(PID.TID 0000.0001) %MON forcing_fu_sd                =   6.0796974505891E-02
(PID.TID 0000.0001) %MON forcing_fu_del2              =   6.0134981810485E-04
(PID.TID 0000.0001) %MON forcing_fv_max               =   3.2007108922744E-01
(PID.TID 0000.0001) %MON forcing_fv_min               =  -2.8799903572877E-01
(PID.TID 0000.0001) %MON forcing_fv_mean              =  -1.4431806761882E-02
(PID.TID 0000.0001) %MON forcing_fv_sd                =   6.3225146111310E-02
(PID.TID 0000.0001) %MON forcing_fv_del2              =   5.4208922987673E-04
(PID.TID 0000.0001) %MON trAdv_CFL_u_max              =   2.4588120857508E-03
(PID.TID 0000.0001) %MON trAdv_CFL_v_max              =   2.5807277121033E-03
(PID.TID 0000.0001) %MON trAdv_CFL_w_max              =   2.1033070615956E-03
(PID.TID 0000.0001) %MON advcfl_uvel_max              =   2.3858771930818E-03
(PID.TID 0000.0001) %MON advcfl_vvel_max              =   2.5038381240995E-03
(PID.TID 0000.0001) %MON advcfl_wvel_max              =   3.5897724006487E-03
(PID.TID 0000.0001) %MON advcfl_W_hf_max              =   2.4771590746034E-03
(PID.TID 0000.0001) %MON pe_b_mean                    =   5.0912120174922E-04
(PID.TID 0000.0001) %MON ke_max                       =   2.2576198926668E-01
(PID.TID 0000.0001) %MON ke_mean                      =   1.6311006640660E-04
(PID.TID 0000.0001) %MON ke_vol                       =   1.3398112488855E+18
(PID.TID 0000.0001) %MON vort_r_min                   =  -2.5814589676742E-06
(PID.TID 0000.0001) %MON vort_r_max                   =   3.8659224528355E-06
(PID.TID 0000.0001) %MON vort_a_mean                  =  -2.0549865324846E-05
(PID.TID 0000.0001) %MON vort_a_sd                    =   7.5259576632126E-05
(PID.TID 0000.0001) %MON vort_p_mean                  =  -2.4783310005309E-05
(PID.TID 0000.0001) %MON vort_p_sd                    =   1.2811919908877E-04
(PID.TID 0000.0001) %MON surfExpan_theta_mean         =  -6.1582218773502E-06
(PID.TID 0000.0001) %MON surfExpan_salt_mean          =   9.5918905338757E-07
(PID.TID 0000.0001) // =======================================================
(PID.TID 0000.0001) // End MONITOR dynamic field statistics
(PID.TID 0000.0001) // =======================================================
 Computing Diagnostic #     81  oceTAUX      Counter:       1   Parms: UU      U1      
           Vector  Mate for  oceTAUX      Diagnostic #     82  oceTAUY  exists 
 Computing Diagnostic #     82  oceTAUY      Counter:       1   Parms: VV      U1      
           Vector  Mate for  oceTAUY      Diagnostic #     81  oceTAUX  exists 
 Computing Diagnostic #     85  oceFWflx     Counter:       1   Parms: SM      U1      
 Computing Diagnostic #     86  oceSflux     Counter:       1   Parms: SM      U1      
 Computing Diagnostic #     87  oceQnet      Counter:       1   Parms: SM      U1      
 Computing Diagnostic #     88  oceQsw       Counter:       1   Parms: SM      U1      
 Computing Diagnostic #     27  SALT         Counter:       1   Parms: SMR     MR      
 Computing Diagnostic #     26  THETA        Counter:       1   Parms: SMR     MR      
 Computing Diagnostic #     45  UVELMASS     Counter:       1   Parms: UUr     MR      
           Vector  Mate for  UVELMASS     Diagnostic #     46  VVELMASS exists 
 Computing Diagnostic #     46  VVELMASS     Counter:       1   Parms: VVr     MR      
           Vector  Mate for  VVELMASS     Diagnostic #     45  UVELMASS exists 
 cg2d: Sum(rhs),rhsMax =  -3.21179631674312E+01  6.62092834101575E+01
(PID.TID 0000.0001)      cg2d_init_res =   1.79288141516212E-01
(PID.TID 0000.0001)      cg2d_iters(min,last) =      -1      10
(PID.TID 0000.0001)      cg2d_last_res =   5.80062867243313E-08
(PID.TID 0000.0001) // =======================================================
(PID.TID 0000.0001) // Begin MONITOR dynamic field statistics
(PID.TID 0000.0001) // =======================================================
(PID.TID 0000.0001) %MON time_tsnumber                =                 72044
(PID.TID 0000.0001) %MON time_secondsf                =   6.4839600000000E+07
(PID.TID 0000.0001) %MON dynstat_eta_max              =   2.9500437838856E+00
(PID.TID 0000.0001) %MON dynstat_eta_min              =  -1.6080415235556E+00
(PID.TID 0000.0001) %MON dynstat_eta_mean             =   2.4709733214550E-02
(PID.TID 0000.0001) %MON dynstat_eta_sd               =   6.1769080892278E-01
(PID.TID 0000.0001) %MON dynstat_eta_del2             =   2.3207379352087E-03
(PID.TID 0000.0001) %MON dynstat_uvel_max             =   3.3965356533472E-01
(PID.TID 0000.0001) %MON dynstat_uvel_min             =  -7.0609988015489E-01
(PID.TID 0000.0001) %MON dynstat_uvel_mean            =  -5.0321448504331E-04
(PID.TID 0000.0001) %MON dynstat_uvel_sd              =   1.2865758708245E-02
(PID.TID 0000.0001) %MON dynstat_uvel_del2            =   8.6516879031795E-05
(PID.TID 0000.0001) %MON dynstat_vvel_max             =   7.5881417569095E-01
(PID.TID 0000.0001) %MON dynstat_vvel_min             =  -4.1436427153917E-01
(PID.TID 0000.0001) %MON dynstat_vvel_mean            =  -3.7807931217467E-05
(PID.TID 0000.0001) %MON dynstat_vvel_sd              =   1.3637711808134E-02
(PID.TID 0000.0001) %MON dynstat_vvel_del2            =   1.0075174710108E-04
(PID.TID 0000.0001) %MON dynstat_wvel_max             =   1.8655593344711E-04
(PID.TID 0000.0001) %MON dynstat_wvel_min             =  -2.1287677589097E-04
(PID.TID 0000.0001) %MON dynstat_wvel_mean            =  -7.8422730381465E-08
(PID.TID 0000.0001) %MON dynstat_wvel_sd              =   7.8752465173713E-06
(PID.TID 0000.0001) %MON dynstat_wvel_del2            =   7.4275631458878E-08
(PID.TID 0000.0001) %MON dynstat_theta_max            =   3.0938820395651E+01
(PID.TID 0000.0001) %MON dynstat_theta_min            =  -3.0042604202343E+00
(PID.TID 0000.0001) %MON dynstat_theta_mean           =   3.9092033370106E+00
(PID.TID 0000.0001) %MON dynstat_theta_sd             =   4.5715864355844E+00
(PID.TID 0000.0001) %MON dynstat_theta_del2           =   2.6460753524109E-03
(PID.TID 0000.0001) %MON dynstat_salt_max             =   4.1352981959093E+01
(PID.TID 0000.0001) %MON dynstat_salt_min             =   1.8518815168811E+01
(PID.TID 0000.0001) %MON dynstat_salt_mean            =   3.4771991883838E+01
(PID.TID 0000.0001) %MON dynstat_salt_sd              =   5.3169738235007E-01
(PID.TID 0000.0001) %MON dynstat_salt_del2            =   9.9857559774768E-04
(PID.TID 0000.0001) %MON dynstat_sst_max              =   3.0938820395651E+01
(PID.TID 0000.0001) %MON dynstat_sst_min              =  -1.8977079240136E+00
(PID.TID 0000.0001) %MON dynstat_sst_mean             =   1.8112611489421E+01
(PID.TID 0000.0001) %MON dynstat_sst_sd               =   9.8092375968503E+00
(PID.TID 0000.0001) %MON dynstat_sst_del2             =   1.5130662846254E-02
(PID.TID 0000.0001) %MON dynstat_sss_max              =   4.1352981959093E+01
(PID.TID 0000.0001) %MON dynstat_sss_min              =   1.8751708112106E+01
(PID.TID 0000.0001) %MON dynstat_sss_mean             =   3.4627183122793E+01
(PID.TID 0000.0001) %MON dynstat_sss_sd               =   1.4760701458103E+00
(PID.TID 0000.0001) %MON dynstat_sss_del2             =   1.0947479383273E-02
(PID.TID 0000.0001) %MON forcing_qnet_max             =   2.3599362003375E+03
(PID.TID 0000.0001) %MON forcing_qnet_min             =  -1.5823843994141E+03
(PID.TID 0000.0001) %MON forcing_qnet_mean            =   1.3223784529270E+01
(PID.TID 0000.0001) %MON forcing_qnet_sd              =   2.3014068613423E+02
(PID.TID 0000.0001) %MON forcing_qnet_del2            =   4.2840773446007E+00
(PID.TID 0000.0001) %MON forcing_qsw_max              =   0.0000000000000E+00
(PID.TID 0000.0001) %MON forcing_qsw_min              =  -4.2956522686370E+02
(PID.TID 0000.0001) %MON forcing_qsw_mean             =  -5.0514241754857E+01
(PID.TID 0000.0001) %MON forcing_qsw_sd               =   9.7099103798131E+01
(PID.TID 0000.0001) %MON forcing_qsw_del2             =   8.4843977145966E-01
(PID.TID 0000.0001) %MON forcing_empmr_max            =   7.1056350134313E-03
(PID.TID 0000.0001) %MON forcing_empmr_min            =  -1.0214283317327E-01
(PID.TID 0000.0001) %MON forcing_empmr_mean           =  -2.9584211015208E-04
(PID.TID 0000.0001) %MON forcing_empmr_sd             =   4.4976087190608E-03
(PID.TID 0000.0001) %MON forcing_empmr_del2           =   1.7757774837121E-04
(PID.TID 0000.0001) %MON forcing_fu_max               =   3.7417341498645E-01
(PID.TID 0000.0001) %MON forcing_fu_min               =  -3.6204327209260E-01
(PID.TID 0000.0001) %MON forcing_fu_mean              =  -2.4836059568973E-03
(PID.TID 0000.0001) %MON forcing_fu_sd                =   6.0620539283695E-02
(PID.TID 0000.0001) %MON forcing_fu_del2              =   6.0105320279888E-04
(PID.TID 0000.0001) %MON forcing_fv_max               =   3.2189155152922E-01
(PID.TID 0000.0001) %MON forcing_fv_min               =  -2.8929888245289E-01
(PID.TID 0000.0001) %MON forcing_fv_mean              =  -1.4627966675413E-02
(PID.TID 0000.0001) %MON forcing_fv_sd                =   6.3059360289145E-02
(PID.TID 0000.0001) %MON forcing_fv_del2              =   5.4130585256915E-04
(PID.TID 0000.0001) %MON trAdv_CFL_u_max              =   2.1700461057378E-03
(PID.TID 0000.0001) %MON trAdv_CFL_v_max              =   2.2949356020207E-03
(PID.TID 0000.0001) %MON trAdv_CFL_w_max              =   2.1051059416437E-03
(PID.TID 0000.0001) %MON advcfl_uvel_max              =   2.1010394736620E-03
(PID.TID 0000.0001) %MON advcfl_vvel_max              =   2.2739911094499E-03
(PID.TID 0000.0001) %MON advcfl_wvel_max              =   3.5527941973313E-03
(PID.TID 0000.0001) %MON advcfl_W_hf_max              =   2.3986391125344E-03
(PID.TID 0000.0001) %MON pe_b_mean                    =   5.0909437772683E-04
(PID.TID 0000.0001) %MON ke_max                       =   1.8221532807318E-01
(PID.TID 0000.0001) %MON ke_mean                      =   1.6244821788217E-04
(PID.TID 0000.0001) %MON ke_vol                       =   1.3398113432956E+18
(PID.TID 0000.0001) %MON vort_r_min                   =  -2.6167260019437E-06
(PID.TID 0000.0001) %MON vort_r_max                   =   3.6469220231466E-06
(PID.TID 0000.0001) %MON vort_a_mean                  =  -2.0549865324846E-05
(PID.TID 0000.0001) %MON vort_a_sd                    =   7.5259588460182E-05
(PID.TID 0000.0001) %MON vort_p_mean                  =  -2.4783308446217E-05
(PID.TID 0000.0001) %MON vort_p_sd                    =   1.2811919055446E-04
(PID.TID 0000.0001) %MON surfExpan_theta_mean         =  -6.1522665718247E-06
(PID.TID 0000.0001) %MON surfExpan_salt_mean          =   9.8060280357110E-07
(PID.TID 0000.0001) // =======================================================
(PID.TID 0000.0001) // End MONITOR dynamic field statistics
(PID.TID 0000.0001) // =======================================================
 cg2d: Sum(rhs),rhsMax =  -3.19283118019410E+01  6.72885950670411E+01
(PID.TID 0000.0001)      cg2d_init_res =   1.65889429988312E-01
(PID.TID 0000.0001)      cg2d_iters(min,last) =      -1      10
(PID.TID 0000.0001)      cg2d_last_res =   6.97792017016398E-08
(PID.TID 0000.0001) // =======================================================
(PID.TID 0000.0001) // Begin MONITOR dynamic field statistics
(PID.TID 0000.0001) // =======================================================
(PID.TID 0000.0001) %MON time_tsnumber                =                 72045
(PID.TID 0000.0001) %MON time_secondsf                =   6.4840500000000E+07
(PID.TID 0000.0001) %MON dynstat_eta_max              =   2.9977737095907E+00
(PID.TID 0000.0001) %MON dynstat_eta_min              =  -1.6072974386539E+00
(PID.TID 0000.0001) %MON dynstat_eta_mean             =   2.4964253839119E-02
(PID.TID 0000.0001) %MON dynstat_eta_sd               =   6.1764325818805E-01
(PID.TID 0000.0001) %MON dynstat_eta_del2             =   2.3824767037562E-03
(PID.TID 0000.0001) %MON dynstat_uvel_max             =   3.3781058354717E-01
(PID.TID 0000.0001) %MON dynstat_uvel_min             =  -6.4351066459377E-01
(PID.TID 0000.0001) %MON dynstat_uvel_mean            =  -5.1317240141367E-04
(PID.TID 0000.0001) %MON dynstat_uvel_sd              =   1.2822727683974E-02
(PID.TID 0000.0001) %MON dynstat_uvel_del2            =   8.6782611528957E-05
(PID.TID 0000.0001) %MON dynstat_vvel_max             =   6.7757408268667E-01
(PID.TID 0000.0001) %MON dynstat_vvel_min             =  -3.9979953965817E-01
(PID.TID 0000.0001) %MON dynstat_vvel_mean            =   1.3260836640572E-05
(PID.TID 0000.0001) %MON dynstat_vvel_sd              =   1.3632859161233E-02
(PID.TID 0000.0001) %MON dynstat_vvel_del2            =   9.6740103458191E-05
(PID.TID 0000.0001) %MON dynstat_wvel_max             =   1.8035780244984E-04
(PID.TID 0000.0001) %MON dynstat_wvel_min             =  -2.1337967216498E-04
(PID.TID 0000.0001) %MON dynstat_wvel_mean            =  -1.0157364842548E-07
(PID.TID 0000.0001) %MON dynstat_wvel_sd              =   7.8449029728072E-06
(PID.TID 0000.0001) %MON dynstat_wvel_del2            =   7.4475743267275E-08
(PID.TID 0000.0001) %MON dynstat_theta_max            =   3.0939011248001E+01
(PID.TID 0000.0001) %MON dynstat_theta_min            =  -3.0042018762207E+00
(PID.TID 0000.0001) %MON dynstat_theta_mean           =   3.9092041765165E+00
(PID.TID 0000.0001) %MON dynstat_theta_sd             =   4.5715901895099E+00
(PID.TID 0000.0001) %MON dynstat_theta_del2           =   2.6459553675122E-03
(PID.TID 0000.0001) %MON dynstat_salt_max             =   4.1352626791372E+01
(PID.TID 0000.0001) %MON dynstat_salt_min             =   1.8518825605495E+01
(PID.TID 0000.0001) %MON dynstat_salt_mean            =   3.4771988922831E+01
(PID.TID 0000.0001) %MON dynstat_salt_sd              =   5.3171489377306E-01
(PID.TID 0000.0001) %MON dynstat_salt_del2            =   1.0032271520238E-03
(PID.TID 0000.0001) %MON dynstat_sst_max              =   3.0939011248001E+01
(PID.TID 0000.0001) %MON dynstat_sst_min              =  -1.8976201361378E+00
(PID.TID 0000.0001) %MON dynstat_sst_mean             =   1.8112572880308E+01
(PID.TID 0000.0001) %MON dynstat_sst_sd               =   9.8093378576550E+00
(PID.TID 0000.0001) %MON dynstat_sst_del2             =   1.5128470345643E-02
(PID.TID 0000.0001) %MON dynstat_sss_max              =   4.1352626791372E+01
(PID.TID 0000.0001) %MON dynstat_sss_min              =   1.8751740936333E+01
(PID.TID 0000.0001) %MON dynstat_sss_mean             =   3.4626974571006E+01
(PID.TID 0000.0001) %MON dynstat_sss_sd               =   1.4765098493105E+00
(PID.TID 0000.0001) %MON dynstat_sss_del2             =   1.1014385672261E-02
(PID.TID 0000.0001) %MON forcing_qnet_max             =   2.3300747878743E+03
(PID.TID 0000.0001) %MON forcing_qnet_min             =  -1.4529762692338E+03
(PID.TID 0000.0001) %MON forcing_qnet_mean            =   1.4586443944116E+01
(PID.TID 0000.0001) %MON forcing_qnet_sd              =   2.2659777568330E+02
(PID.TID 0000.0001) %MON forcing_qnet_del2            =   4.3665715707536E+00
(PID.TID 0000.0001) %MON forcing_qsw_max              =   0.0000000000000E+00
(PID.TID 0000.0001) %MON forcing_qsw_min              =  -4.3469818425573E+02
(PID.TID 0000.0001) %MON forcing_qsw_mean             =  -4.9983920903665E+01
(PID.TID 0000.0001) %MON forcing_qsw_sd               =   9.5073296911837E+01
(PID.TID 0000.0001) %MON forcing_qsw_del2             =   8.3469944650776E-01
(PID.TID 0000.0001) %MON forcing_empmr_max            =   7.0324228145182E-03
(PID.TID 0000.0001) %MON forcing_empmr_min            =  -1.0109146684408E-01
(PID.TID 0000.0001) %MON forcing_empmr_mean           =  -2.9269871825466E-04
(PID.TID 0000.0001) %MON forcing_empmr_sd             =   4.4511019554537E-03
(PID.TID 0000.0001) %MON forcing_empmr_del2           =   1.7572319910552E-04
(PID.TID 0000.0001) %MON forcing_fu_max               =   3.7880522548784E-01
(PID.TID 0000.0001) %MON forcing_fu_min               =  -3.6241403967222E-01
(PID.TID 0000.0001) %MON forcing_fu_mean              =  -2.4512686536206E-03
(PID.TID 0000.0001) %MON forcing_fu_sd                =   6.0609307027359E-02
(PID.TID 0000.0001) %MON forcing_fu_del2              =   6.0124209330411E-04
(PID.TID 0000.0001) %MON forcing_fv_max               =   3.3162542673469E-01
(PID.TID 0000.0001) %MON forcing_fv_min               =  -2.9030683632446E-01
(PID.TID 0000.0001) %MON forcing_fv_mean              =  -1.4796539098277E-02
(PID.TID 0000.0001) %MON forcing_fv_sd                =   6.2987085199423E-02
(PID.TID 0000.0001) %MON forcing_fv_del2              =   5.4139066035743E-04
(PID.TID 0000.0001) %MON trAdv_CFL_u_max              =   1.9479224504161E-03
(PID.TID 0000.0001) %MON trAdv_CFL_v_max              =   2.0550388789169E-03
(PID.TID 0000.0001) %MON trAdv_CFL_w_max              =   2.0881966997470E-03
(PID.TID 0000.0001) %MON advcfl_uvel_max              =   1.8940044287950E-03
(PID.TID 0000.0001) %MON advcfl_vvel_max              =   2.0305332838836E-03
(PID.TID 0000.0001) %MON advcfl_wvel_max              =   3.5162249337072E-03
(PID.TID 0000.0001) %MON advcfl_W_hf_max              =   2.3189347449178E-03
(PID.TID 0000.0001) %MON pe_b_mean                    =   5.0903293152985E-04
(PID.TID 0000.0001) %MON ke_max                       =   1.4134393930072E-01
(PID.TID 0000.0001) %MON ke_mean                      =   1.6188306855788E-04
(PID.TID 0000.0001) %MON ke_vol                       =   1.3398114369070E+18
(PID.TID 0000.0001) %MON vort_r_min                   =  -2.6885937651586E-06
(PID.TID 0000.0001) %MON vort_r_max                   =   3.3536800871557E-06
(PID.TID 0000.0001) %MON vort_a_mean                  =  -2.0549865324846E-05
(PID.TID 0000.0001) %MON vort_a_sd                    =   7.5259600469358E-05
(PID.TID 0000.0001) %MON vort_p_mean                  =  -2.4783306863470E-05
(PID.TID 0000.0001) %MON vort_p_sd                    =   1.2811917852429E-04
(PID.TID 0000.0001) %MON surfExpan_theta_mean         =  -6.1640792299720E-06
(PID.TID 0000.0001) %MON surfExpan_salt_mean          =   1.0049621371162E-06
(PID.TID 0000.0001) // =======================================================
(PID.TID 0000.0001) // End MONITOR dynamic field statistics
(PID.TID 0000.0001) // =======================================================
 cg2d: Sum(rhs),rhsMax =  -3.19011789427976E+01  6.80257581597541E+01
(PID.TID 0000.0001)      cg2d_init_res =   1.54375769165712E-01
(PID.TID 0000.0001)      cg2d_iters(min,last) =      -1      10
(PID.TID 0000.0001)      cg2d_last_res =   7.43161789924772E-08
(PID.TID 0000.0001) // =======================================================
(PID.TID 0000.0001) // Begin MONITOR dynamic field statistics
(PID.TID 0000.0001) // =======================================================
(PID.TID 0000.0001) %MON time_tsnumber                =                 72046
(PID.TID 0000.0001) %MON time_secondsf                =   6.4841400000000E+07
(PID.TID 0000.0001) %MON dynstat_eta_max              =   3.0303170515613E+00
(PID.TID 0000.0001) %MON dynstat_eta_min              =  -1.6062727672707E+00
(PID.TID 0000.0001) %MON dynstat_eta_mean             =   2.5216296197574E-02
(PID.TID 0000.0001) %MON dynstat_eta_sd               =   6.1755726079549E-01
(PID.TID 0000.0001) %MON dynstat_eta_del2             =   2.4311209319496E-03
(PID.TID 0000.0001) %MON dynstat_uvel_max             =   3.3426482180056E-01
(PID.TID 0000.0001) %MON dynstat_uvel_min             =  -5.7591333889884E-01
(PID.TID 0000.0001) %MON dynstat_uvel_mean            =  -5.1992678283094E-04
(PID.TID 0000.0001) %MON dynstat_uvel_sd              =   1.2780584385693E-02
(PID.TID 0000.0001) %MON dynstat_uvel_del2            =   8.7204094187670E-05
(PID.TID 0000.0001) %MON dynstat_vvel_max             =   5.9323700779248E-01
(PID.TID 0000.0001) %MON dynstat_vvel_min             =  -3.9350008485018E-01
(PID.TID 0000.0001) %MON dynstat_vvel_mean            =   6.4205137760626E-05
(PID.TID 0000.0001) %MON dynstat_vvel_sd              =   1.3636889480282E-02
(PID.TID 0000.0001) %MON dynstat_vvel_del2            =   9.3063501373411E-05
(PID.TID 0000.0001) %MON dynstat_wvel_max             =   1.7471424959758E-04
(PID.TID 0000.0001) %MON dynstat_wvel_min             =  -2.1233798613013E-04
(PID.TID 0000.0001) %MON dynstat_wvel_mean            =  -1.2674525598170E-07
(PID.TID 0000.0001) %MON dynstat_wvel_sd              =   7.8246945526909E-06
(PID.TID 0000.0001) %MON dynstat_wvel_del2            =   7.4735467986236E-08
(PID.TID 0000.0001) %MON dynstat_theta_max            =   3.0939163443551E+01
(PID.TID 0000.0001) %MON dynstat_theta_min            =  -3.0041756138744E+00
(PID.TID 0000.0001) %MON dynstat_theta_mean           =   3.9092050195176E+00
(PID.TID 0000.0001) %MON dynstat_theta_sd             =   4.5715938695188E+00
(PID.TID 0000.0001) %MON dynstat_theta_del2           =   2.6458250280361E-03
(PID.TID 0000.0001) %MON dynstat_salt_max             =   4.1352271085036E+01
(PID.TID 0000.0001) %MON dynstat_salt_min             =   1.8518836017315E+01
(PID.TID 0000.0001) %MON dynstat_salt_mean            =   3.4771986013958E+01
(PID.TID 0000.0001) %MON dynstat_salt_sd              =   5.3173220115391E-01
(PID.TID 0000.0001) %MON dynstat_salt_del2            =   1.0078085815045E-03
(PID.TID 0000.0001) %MON dynstat_sst_max              =   3.0939163443551E+01
(PID.TID 0000.0001) %MON dynstat_sst_min              =  -1.8975270590769E+00
(PID.TID 0000.0001) %MON dynstat_sst_mean             =   1.8112538356413E+01
(PID.TID 0000.0001) %MON dynstat_sst_sd               =   9.8094371294829E+00
(PID.TID 0000.0001) %MON dynstat_sst_del2             =   1.5126095020896E-02
(PID.TID 0000.0001) %MON dynstat_sss_max              =   4.1352271085036E+01
(PID.TID 0000.0001) %MON dynstat_sss_min              =   1.8751771016791E+01
(PID.TID 0000.0001) %MON dynstat_sss_mean             =   3.4626771234399E+01
(PID.TID 0000.0001) %MON dynstat_sss_sd               =   1.4769453443347E+00
(PID.TID 0000.0001) %MON dynstat_sss_del2             =   1.1080198016873E-02
(PID.TID 0000.0001) %MON forcing_qnet_max             =   2.6161521134418E+03
(PID.TID 0000.0001) %MON forcing_qnet_min             =  -2.5676979980469E+03
(PID.TID 0000.0001) %MON forcing_qnet_mean            =   1.4450220504634E+01
(PID.TID 0000.0001) %MON forcing_qnet_sd              =   2.3291285952408E+02
(PID.TID 0000.0001) %MON forcing_qnet_del2            =   5.2387137638984E+00
(PID.TID 0000.0001) %MON forcing_qsw_max              =   0.0000000000000E+00
(PID.TID 0000.0001) %MON forcing_qsw_min              =  -4.3669949508510E+02
(PID.TID 0000.0001) %MON forcing_qsw_mean             =  -5.0139037376960E+01
(PID.TID 0000.0001) %MON forcing_qsw_sd               =   9.4433860741622E+01
(PID.TID 0000.0001) %MON forcing_qsw_del2             =   8.3469001930978E-01
(PID.TID 0000.0001) %MON forcing_empmr_max            =   6.9598988629878E-03
(PID.TID 0000.0001) %MON forcing_empmr_min            =  -1.0004931688309E-01
(PID.TID 0000.0001) %MON forcing_empmr_mean           =  -2.8984871222238E-04
(PID.TID 0000.0001) %MON forcing_empmr_sd             =   4.4049826621503E-03
(PID.TID 0000.0001) %MON forcing_empmr_del2           =   1.7387894626665E-04
(PID.TID 0000.0001) %MON forcing_fu_max               =   3.7660881864020E-01
(PID.TID 0000.0001) %MON forcing_fu_min               =  -3.6314376809519E-01
(PID.TID 0000.0001) %MON forcing_fu_mean              =  -2.4679507813716E-03
(PID.TID 0000.0001) %MON forcing_fu_sd                =   6.0366208226495E-02
(PID.TID 0000.0001) %MON forcing_fu_del2              =   5.9967287119163E-04
(PID.TID 0000.0001) %MON forcing_fv_max               =   3.3532171719062E-01
(PID.TID 0000.0001) %MON forcing_fv_min               =  -2.9165573207335E-01
(PID.TID 0000.0001) %MON forcing_fv_mean              =  -1.4917427570749E-02
(PID.TID 0000.0001) %MON forcing_fv_sd                =   6.2854831315350E-02
(PID.TID 0000.0001) %MON forcing_fv_del2              =   5.4042449822102E-04
(PID.TID 0000.0001) %MON trAdv_CFL_u_max              =   1.7462656036777E-03
(PID.TID 0000.0001) %MON trAdv_CFL_v_max              =   1.8650837851147E-03
(PID.TID 0000.0001) %MON trAdv_CFL_w_max              =   2.0519920805983E-03
(PID.TID 0000.0001) %MON advcfl_uvel_max              =   1.6950494754661E-03
(PID.TID 0000.0001) %MON advcfl_vvel_max              =   1.7777945177268E-03
(PID.TID 0000.0001) %MON advcfl_wvel_max              =   3.4799762394117E-03
(PID.TID 0000.0001) %MON advcfl_W_hf_max              =   2.2409162674190E-03
(PID.TID 0000.0001) %MON pe_b_mean                    =   5.0890823613034E-04
(PID.TID 0000.0001) %MON ke_max                       =   1.2651546801178E-01
(PID.TID 0000.0001) %MON ke_mean                      =   1.6144341296113E-04
(PID.TID 0000.0001) %MON ke_vol                       =   1.3398115295236E+18
(PID.TID 0000.0001) %MON vort_r_min                   =  -2.7525054885504E-06
(PID.TID 0000.0001) %MON vort_r_max                   =   2.9949991908316E-06
(PID.TID 0000.0001) %MON vort_a_mean                  =  -2.0549865324846E-05
(PID.TID 0000.0001) %MON vort_a_sd                    =   7.5259612497591E-05
(PID.TID 0000.0001) %MON vort_p_mean                  =  -2.4783305252262E-05
(PID.TID 0000.0001) %MON vort_p_sd                    =   1.2811916385019E-04
(PID.TID 0000.0001) %MON surfExpan_theta_mean         =  -6.2107363625887E-06
(PID.TID 0000.0001) %MON surfExpan_salt_mean          =   1.0320936329779E-06
(PID.TID 0000.0001) // =======================================================
(PID.TID 0000.0001) // End MONITOR dynamic field statistics
(PID.TID 0000.0001) // =======================================================
 cg2d: Sum(rhs),rhsMax =  -3.20380748822775E+01  6.84074715926068E+01
(PID.TID 0000.0001)      cg2d_init_res =   1.45211664132614E-01
(PID.TID 0000.0001)      cg2d_iters(min,last) =      -1      10
(PID.TID 0000.0001)      cg2d_last_res =   7.60547945098110E-08
(PID.TID 0000.0001) // =======================================================
(PID.TID 0000.0001) // Begin MONITOR dynamic field statistics
(PID.TID 0000.0001) // =======================================================
(PID.TID 0000.0001) %MON time_tsnumber                =                 72047
(PID.TID 0000.0001) %MON time_secondsf                =   6.4842300000000E+07
(PID.TID 0000.0001) %MON dynstat_eta_max              =   3.0502656009093E+00
(PID.TID 0000.0001) %MON dynstat_eta_min              =  -1.6049794294834E+00
(PID.TID 0000.0001) %MON dynstat_eta_mean             =   2.5466609215995E-02
(PID.TID 0000.0001) %MON dynstat_eta_sd               =   6.1741855779294E-01
(PID.TID 0000.0001) %MON dynstat_eta_del2             =   2.4630910862789E-03
(PID.TID 0000.0001) %MON dynstat_uvel_max             =   3.2902344833163E-01
(PID.TID 0000.0001) %MON dynstat_uvel_min             =  -5.6837781429806E-01
(PID.TID 0000.0001) %MON dynstat_uvel_mean            =  -5.2350076687859E-04
(PID.TID 0000.0001) %MON dynstat_uvel_sd              =   1.2741965452029E-02
(PID.TID 0000.0001) %MON dynstat_uvel_del2            =   8.7787465463961E-05
(PID.TID 0000.0001) %MON dynstat_vvel_max             =   5.0721225360560E-01
(PID.TID 0000.0001) %MON dynstat_vvel_min             =  -3.9233354842085E-01
(PID.TID 0000.0001) %MON dynstat_vvel_mean            =   1.1436661206627E-04
(PID.TID 0000.0001) %MON dynstat_vvel_sd              =   1.3649000585520E-02
(PID.TID 0000.0001) %MON dynstat_vvel_del2            =   8.9906385341853E-05
(PID.TID 0000.0001) %MON dynstat_wvel_max             =   1.6923897489656E-04
(PID.TID 0000.0001) %MON dynstat_wvel_min             =  -2.0965847892250E-04
(PID.TID 0000.0001) %MON dynstat_wvel_mean            =  -1.5314318526848E-07
(PID.TID 0000.0001) %MON dynstat_wvel_sd              =   7.8158527792978E-06
(PID.TID 0000.0001) %MON dynstat_wvel_del2            =   7.5056169488787E-08
(PID.TID 0000.0001) %MON dynstat_theta_max            =   3.0939274401083E+01
(PID.TID 0000.0001) %MON dynstat_theta_min            =  -3.0041848167625E+00
(PID.TID 0000.0001) %MON dynstat_theta_mean           =   3.9092060565846E+00
(PID.TID 0000.0001) %MON dynstat_theta_sd             =   4.5715979599269E+00
(PID.TID 0000.0001) %MON dynstat_theta_del2           =   2.6456770834790E-03
(PID.TID 0000.0001) %MON dynstat_salt_max             =   4.1351916899546E+01
(PID.TID 0000.0001) %MON dynstat_salt_min             =   1.8518846403286E+01
(PID.TID 0000.0001) %MON dynstat_salt_mean            =   3.4771983216069E+01
(PID.TID 0000.0001) %MON dynstat_salt_sd              =   5.3174930869383E-01
(PID.TID 0000.0001) %MON dynstat_salt_del2            =   1.0123235166238E-03
(PID.TID 0000.0001) %MON dynstat_sst_max              =   3.0939274401083E+01
(PID.TID 0000.0001) %MON dynstat_sst_min              =  -1.8974313161735E+00
(PID.TID 0000.0001) %MON dynstat_sst_mean             =   1.8112516555097E+01
(PID.TID 0000.0001) %MON dynstat_sst_sd               =   9.8095303995057E+00
(PID.TID 0000.0001) %MON dynstat_sst_del2             =   1.5123190889659E-02
(PID.TID 0000.0001) %MON dynstat_sss_max              =   4.1351916899546E+01
(PID.TID 0000.0001) %MON dynstat_sss_min              =   1.8751798954342E+01
(PID.TID 0000.0001) %MON dynstat_sss_mean             =   3.4626575529456E+01
(PID.TID 0000.0001) %MON dynstat_sss_sd               =   1.4773757506912E+00
(PID.TID 0000.0001) %MON dynstat_sss_del2             =   1.1144963211339E-02
(PID.TID 0000.0001) %MON forcing_qnet_max             =   4.0293334560197E+03
(PID.TID 0000.0001) %MON forcing_qnet_min             =  -1.8136812500000E+04
(PID.TID 0000.0001) %MON forcing_qnet_mean            =   1.1113503920086E+01
(PID.TID 0000.0001) %MON forcing_qnet_sd              =   3.6626881588269E+02
(PID.TID 0000.0001) %MON forcing_qnet_del2            =   1.2099898154363E+01
(PID.TID 0000.0001) %MON forcing_qsw_max              =   0.0000000000000E+00
(PID.TID 0000.0001) %MON forcing_qsw_min              =  -4.3689111384314E+02
(PID.TID 0000.0001) %MON forcing_qsw_mean             =  -5.0214644807497E+01
(PID.TID 0000.0001) %MON forcing_qsw_sd               =   9.3647788369575E+01
(PID.TID 0000.0001) %MON forcing_qsw_del2             =   8.3365356739837E-01
(PID.TID 0000.0001) %MON forcing_empmr_max            =   6.8881628103554E-03
(PID.TID 0000.0001) %MON forcing_empmr_min            =  -9.9018916487694E-02
(PID.TID 0000.0001) %MON forcing_empmr_mean           =  -2.8785997118437E-04
(PID.TID 0000.0001) %MON forcing_empmr_sd             =   4.3601293696401E-03
(PID.TID 0000.0001) %MON forcing_empmr_del2           =   1.7209788240163E-04
(PID.TID 0000.0001) %MON forcing_fu_max               =   3.7356902569138E-01
(PID.TID 0000.0001) %MON forcing_fu_min               =  -3.6337438998236E-01
(PID.TID 0000.0001) %MON forcing_fu_mean              =  -2.4660150692919E-03
(PID.TID 0000.0001) %MON forcing_fu_sd                =   6.0172101022752E-02
(PID.TID 0000.0001) %MON forcing_fu_del2              =   5.9880728293871E-04
(PID.TID 0000.0001) %MON forcing_fv_max               =   3.3406055083014E-01
(PID.TID 0000.0001) %MON forcing_fv_min               =  -2.9267325539560E-01
(PID.TID 0000.0001) %MON forcing_fv_mean              =  -1.5022916161756E-02
(PID.TID 0000.0001) %MON forcing_fv_sd                =   6.2616731060821E-02
(PID.TID 0000.0001) %MON forcing_fv_del2              =   5.3887176806807E-04
(PID.TID 0000.0001) %MON trAdv_CFL_u_max              =   1.6135929552929E-03
(PID.TID 0000.0001) %MON trAdv_CFL_v_max              =   1.7645704335255E-03
(PID.TID 0000.0001) %MON trAdv_CFL_w_max              =   1.9961820043911E-03
(PID.TID 0000.0001) %MON advcfl_uvel_max              =   1.6168632815862E-03
(PID.TID 0000.0001) %MON advcfl_vvel_max              =   1.5199981658921E-03
(PID.TID 0000.0001) %MON advcfl_wvel_max              =   3.4441362256589E-03
(PID.TID 0000.0001) %MON advcfl_W_hf_max              =   2.1668212621122E-03
(PID.TID 0000.0001) %MON pe_b_mean                    =   5.0869690722423E-04
(PID.TID 0000.0001) %MON ke_max                       =   1.3771751510175E-01
(PID.TID 0000.0001) %MON ke_mean                      =   1.6114981536698E-04
(PID.TID 0000.0001) %MON ke_vol                       =   1.3398116212385E+18
(PID.TID 0000.0001) %MON vort_r_min                   =  -2.8572809714709E-06
(PID.TID 0000.0001) %MON vort_r_max                   =   2.5807041410065E-06
(PID.TID 0000.0001) %MON vort_a_mean                  =  -2.0549865324846E-05
(PID.TID 0000.0001) %MON vort_a_sd                    =   7.5259624407178E-05
(PID.TID 0000.0001) %MON vort_p_mean                  =  -2.4783303602448E-05
(PID.TID 0000.0001) %MON vort_p_sd                    =   1.2811914758246E-04
(PID.TID 0000.0001) %MON surfExpan_theta_mean         =  -6.2898817000857E-06
(PID.TID 0000.0001) %MON surfExpan_salt_mean          =   1.0607621639082E-06
(PID.TID 0000.0001) // =======================================================
(PID.TID 0000.0001) // End MONITOR dynamic field statistics
(PID.TID 0000.0001) // =======================================================
 Computing Diagnostic #     81  oceTAUX      Counter:       1   Parms: UU      U1      
           Vector  Mate for  oceTAUX      Diagnostic #     82  oceTAUY  exists 
 Computing Diagnostic #     82  oceTAUY      Counter:       1   Parms: VV      U1      
           Vector  Mate for  oceTAUY      Diagnostic #     81  oceTAUX  exists 
 Computing Diagnostic #     85  oceFWflx     Counter:       1   Parms: SM      U1      
 Computing Diagnostic #     86  oceSflux     Counter:       1   Parms: SM      U1      
 Computing Diagnostic #     87  oceQnet      Counter:       1   Parms: SM      U1      
 Computing Diagnostic #     88  oceQsw       Counter:       1   Parms: SM      U1      
 Computing Diagnostic #     27  SALT         Counter:       1   Parms: SMR     MR      
 Computing Diagnostic #     26  THETA        Counter:       1   Parms: SMR     MR      
 Computing Diagnostic #     45  UVELMASS     Counter:       1   Parms: UUr     MR      
           Vector  Mate for  UVELMASS     Diagnostic #     46  VVELMASS exists 
 Computing Diagnostic #     46  VVELMASS     Counter:       1   Parms: VVr     MR      
           Vector  Mate for  VVELMASS     Diagnostic #     45  UVELMASS exists 
 cg2d: Sum(rhs),rhsMax =  -3.23416485519591E+01  6.84245102201322E+01
(PID.TID 0000.0001)      cg2d_init_res =   1.38857966351413E-01
(PID.TID 0000.0001)      cg2d_iters(min,last) =      -1      10
(PID.TID 0000.0001)      cg2d_last_res =   7.65852419291468E-08
(PID.TID 0000.0001) // =======================================================
(PID.TID 0000.0001) // Begin MONITOR dynamic field statistics
(PID.TID 0000.0001) // =======================================================
(PID.TID 0000.0001) %MON time_tsnumber                =                 72048
(PID.TID 0000.0001) %MON time_secondsf                =   6.4843200000000E+07
(PID.TID 0000.0001) %MON dynstat_eta_max              =   3.0844745038972E+00
(PID.TID 0000.0001) %MON dynstat_eta_min              =  -1.6034563508113E+00
(PID.TID 0000.0001) %MON dynstat_eta_mean             =   2.5714318813238E-02
(PID.TID 0000.0001) %MON dynstat_eta_sd               =   6.1721674025755E-01
(PID.TID 0000.0001) %MON dynstat_eta_del2             =   2.4760244662529E-03
(PID.TID 0000.0001) %MON dynstat_uvel_max             =   3.2210745602016E-01
(PID.TID 0000.0001) %MON dynstat_uvel_min             =  -5.7034873932917E-01
(PID.TID 0000.0001) %MON dynstat_uvel_mean            =  -5.2394855645143E-04
(PID.TID 0000.0001) %MON dynstat_uvel_sd              =   1.2709302932237E-02
(PID.TID 0000.0001) %MON dynstat_uvel_del2            =   8.8526154260175E-05
(PID.TID 0000.0001) %MON dynstat_vvel_max             =   4.2085265307764E-01
(PID.TID 0000.0001) %MON dynstat_vvel_min             =  -4.2320075100745E-01
(PID.TID 0000.0001) %MON dynstat_vvel_mean            =   1.6312923445056E-04
(PID.TID 0000.0001) %MON dynstat_vvel_sd              =   1.3668153315847E-02
(PID.TID 0000.0001) %MON dynstat_vvel_del2            =   8.7433012681159E-05
(PID.TID 0000.0001) %MON dynstat_wvel_max             =   1.6356313170858E-04
(PID.TID 0000.0001) %MON dynstat_wvel_min             =  -2.0527849412495E-04
(PID.TID 0000.0001) %MON dynstat_wvel_mean            =  -1.7916937355400E-07
(PID.TID 0000.0001) %MON dynstat_wvel_sd              =   7.8190197690834E-06
(PID.TID 0000.0001) %MON dynstat_wvel_del2            =   7.5428190589815E-08
(PID.TID 0000.0001) %MON dynstat_theta_max            =   3.0939344086913E+01
(PID.TID 0000.0001) %MON dynstat_theta_min            =  -3.0042313767695E+00
(PID.TID 0000.0001) %MON dynstat_theta_mean           =   3.9092068149641E+00
(PID.TID 0000.0001) %MON dynstat_theta_sd             =   4.5716013347687E+00
(PID.TID 0000.0001) %MON dynstat_theta_del2           =   2.6455603473763E-03
(PID.TID 0000.0001) %MON dynstat_salt_max             =   4.1351566401958E+01
(PID.TID 0000.0001) %MON dynstat_salt_min             =   1.8518856763261E+01
(PID.TID 0000.0001) %MON dynstat_salt_mean            =   3.4771980399824E+01
(PID.TID 0000.0001) %MON dynstat_salt_sd              =   5.3176630206929E-01
(PID.TID 0000.0001) %MON dynstat_salt_del2            =   1.0167663922482E-03
(PID.TID 0000.0001) %MON dynstat_sst_max              =   3.0939344086913E+01
(PID.TID 0000.0001) %MON dynstat_sst_min              =  -1.8973321051138E+00
(PID.TID 0000.0001) %MON dynstat_sst_mean             =   1.8112473868671E+01
(PID.TID 0000.0001) %MON dynstat_sst_sd               =   9.8096293007006E+00
(PID.TID 0000.0001) %MON dynstat_sst_del2             =   1.5121128809521E-02
(PID.TID 0000.0001) %MON dynstat_sss_max              =   4.1351566401958E+01
(PID.TID 0000.0001) %MON dynstat_sss_min              =   1.8751825102570E+01
(PID.TID 0000.0001) %MON dynstat_sss_mean             =   3.4626377991853E+01
(PID.TID 0000.0001) %MON dynstat_sss_sd               =   1.4778032362681E+00
(PID.TID 0000.0001) %MON dynstat_sss_del2             =   1.1208608540567E-02
(PID.TID 0000.0001) %MON forcing_qnet_max             =   6.6565283956731E+03
(PID.TID 0000.0001) %MON forcing_qnet_min             =  -1.3926893122163E+03
(PID.TID 0000.0001) %MON forcing_qnet_mean            =   1.5575025057422E+01
(PID.TID 0000.0001) %MON forcing_qnet_sd              =   2.4303036089337E+02
(PID.TID 0000.0001) %MON forcing_qnet_del2            =   6.5151031530705E+00
(PID.TID 0000.0001) %MON forcing_qsw_max              =   0.0000000000000E+00
(PID.TID 0000.0001) %MON forcing_qsw_min              =  -4.3527229187746E+02
(PID.TID 0000.0001) %MON forcing_qsw_mean             =  -5.0195872888774E+01
(PID.TID 0000.0001) %MON forcing_qsw_sd               =   9.2735124662608E+01
(PID.TID 0000.0001) %MON forcing_qsw_del2             =   8.3158604589979E-01
(PID.TID 0000.0001) %MON forcing_empmr_max            =   6.8172137252986E-03
(PID.TID 0000.0001) %MON forcing_empmr_min            =  -9.7999431192875E-02
(PID.TID 0000.0001) %MON forcing_empmr_mean           =  -2.8486603682980E-04
(PID.TID 0000.0001) %MON forcing_empmr_sd             =   4.3159342494262E-03
(PID.TID 0000.0001) %MON forcing_empmr_del2           =   1.7034707619240E-04
(PID.TID 0000.0001) %MON forcing_fu_max               =   3.7763362578382E-01
(PID.TID 0000.0001) %MON forcing_fu_min               =  -3.6499552879856E-01
(PID.TID 0000.0001) %MON forcing_fu_mean              =  -2.4072632579347E-03
(PID.TID 0000.0001) %MON forcing_fu_sd                =   6.0343078423857E-02
(PID.TID 0000.0001) %MON forcing_fu_del2              =   6.0052587566696E-04
(PID.TID 0000.0001) %MON forcing_fv_max               =   3.2756067133472E-01
(PID.TID 0000.0001) %MON forcing_fv_min               =  -2.9338421658751E-01
(PID.TID 0000.0001) %MON forcing_fv_mean              =  -1.5164346969856E-02
(PID.TID 0000.0001) %MON forcing_fv_sd                =   6.2403527365245E-02
(PID.TID 0000.0001) %MON forcing_fv_del2              =   5.3710903526056E-04
(PID.TID 0000.0001) %MON trAdv_CFL_u_max              =   1.6199413201378E-03
(PID.TID 0000.0001) %MON trAdv_CFL_v_max              =   1.6171820386528E-03
(PID.TID 0000.0001) %MON trAdv_CFL_w_max              =   1.9208404460547E-03
(PID.TID 0000.0001) %MON advcfl_uvel_max              =   1.6224699682537E-03
(PID.TID 0000.0001) %MON advcfl_vvel_max              =   1.2611983567855E-03
(PID.TID 0000.0001) %MON advcfl_wvel_max              =   3.4086758675783E-03
(PID.TID 0000.0001) %MON advcfl_W_hf_max              =   2.0981587749252E-03
(PID.TID 0000.0001) %MON pe_b_mean                    =   5.0838182238002E-04
(PID.TID 0000.0001) %MON ke_max                       =   1.4861717693171E-01
(PID.TID 0000.0001) %MON ke_mean                      =   1.6101718158871E-04
(PID.TID 0000.0001) %MON ke_vol                       =   1.3398117123241E+18
(PID.TID 0000.0001) %MON vort_r_min                   =  -3.0156644558028E-06
(PID.TID 0000.0001) %MON vort_r_max                   =   2.3362053948758E-06
(PID.TID 0000.0001) %MON vort_a_mean                  =  -2.0549865324846E-05
(PID.TID 0000.0001) %MON vort_a_sd                    =   7.5259636073386E-05
(PID.TID 0000.0001) %MON vort_p_mean                  =  -2.4783301902438E-05
(PID.TID 0000.0001) %MON vort_p_sd                    =   1.2811913073857E-04
(PID.TID 0000.0001) %MON surfExpan_theta_mean         =  -6.3636139672783E-06
(PID.TID 0000.0001) %MON surfExpan_salt_mean          =   1.0899961955134E-06
(PID.TID 0000.0001) // =======================================================
(PID.TID 0000.0001) // End MONITOR dynamic field statistics
(PID.TID 0000.0001) // =======================================================
 cg2d: Sum(rhs),rhsMax =  -3.28193022891573E+01  6.80718561080532E+01
(PID.TID 0000.0001)      cg2d_init_res =   1.35670732189689E-01
(PID.TID 0000.0001)      cg2d_iters(min,last) =      -1      10
(PID.TID 0000.0001)      cg2d_last_res =   7.66997782780094E-08
(PID.TID 0000.0001) // =======================================================
(PID.TID 0000.0001) // Begin MONITOR dynamic field statistics
(PID.TID 0000.0001) // =======================================================
(PID.TID 0000.0001) %MON time_tsnumber                =                 72049
(PID.TID 0000.0001) %MON time_secondsf                =   6.4844100000000E+07
(PID.TID 0000.0001) %MON dynstat_eta_max              =   3.0643768119521E+00
(PID.TID 0000.0001) %MON dynstat_eta_min              =  -1.6017656848692E+00
(PID.TID 0000.0001) %MON dynstat_eta_mean             =   2.5959606790909E-02
(PID.TID 0000.0001) %MON dynstat_eta_sd               =   6.1694790542617E-01
(PID.TID 0000.0001) %MON dynstat_eta_del2             =   2.4687054221513E-03
(PID.TID 0000.0001) %MON dynstat_uvel_max             =   3.1355165859452E-01
(PID.TID 0000.0001) %MON dynstat_uvel_min             =  -5.6993361144985E-01
(PID.TID 0000.0001) %MON dynstat_uvel_mean            =  -5.2137608460431E-04
(PID.TID 0000.0001) %MON dynstat_uvel_sd              =   1.2684344372750E-02
(PID.TID 0000.0001) %MON dynstat_uvel_del2            =   8.9398108569608E-05
(PID.TID 0000.0001) %MON dynstat_vvel_max             =   3.7391834854232E-01
(PID.TID 0000.0001) %MON dynstat_vvel_min             =  -4.5313913283343E-01
(PID.TID 0000.0001) %MON dynstat_vvel_mean            =   2.0997801651129E-04
(PID.TID 0000.0001) %MON dynstat_vvel_sd              =   1.3692892076307E-02
(PID.TID 0000.0001) %MON dynstat_vvel_del2            =   8.5765639242492E-05
(PID.TID 0000.0001) %MON dynstat_wvel_max             =   1.5832919880094E-04
(PID.TID 0000.0001) %MON dynstat_wvel_min             =  -1.9917838798992E-04
(PID.TID 0000.0001) %MON dynstat_wvel_mean            =  -2.0489560822696E-07
(PID.TID 0000.0001) %MON dynstat_wvel_sd              =   7.8332908508416E-06
(PID.TID 0000.0001) %MON dynstat_wvel_del2            =   7.5838149760054E-08
(PID.TID 0000.0001) %MON dynstat_theta_max            =   3.0939326179725E+01
(PID.TID 0000.0001) %MON dynstat_theta_min            =  -3.0043156413237E+00
(PID.TID 0000.0001) %MON dynstat_theta_mean           =   3.9092076710212E+00
(PID.TID 0000.0001) %MON dynstat_theta_sd             =   4.5716050176372E+00
(PID.TID 0000.0001) %MON dynstat_theta_del2           =   2.6454342826847E-03
(PID.TID 0000.0001) %MON dynstat_salt_max             =   4.1351221603708E+01
(PID.TID 0000.0001) %MON dynstat_salt_min             =   1.8518867098276E+01
(PID.TID 0000.0001) %MON dynstat_salt_mean            =   3.4771977619732E+01
(PID.TID 0000.0001) %MON dynstat_salt_sd              =   5.3178308863181E-01
(PID.TID 0000.0001) %MON dynstat_salt_del2            =   1.0211359997871E-03
(PID.TID 0000.0001) %MON dynstat_sst_max              =   3.0939326179725E+01
(PID.TID 0000.0001) %MON dynstat_sst_min              =  -1.8972304118712E+00
(PID.TID 0000.0001) %MON dynstat_sst_mean             =   1.8112442011392E+01
(PID.TID 0000.0001) %MON dynstat_sst_sd               =   9.8097291941368E+00
(PID.TID 0000.0001) %MON dynstat_sst_del2             =   1.5118939945998E-02
(PID.TID 0000.0001) %MON dynstat_sss_max              =   4.1351221603708E+01
(PID.TID 0000.0001) %MON dynstat_sss_min              =   1.8751849671433E+01
(PID.TID 0000.0001) %MON dynstat_sss_mean             =   3.4626184107229E+01
(PID.TID 0000.0001) %MON dynstat_sss_sd               =   1.4782255799706E+00
(PID.TID 0000.0001) %MON dynstat_sss_del2             =   1.1271132457706E-02
(PID.TID 0000.0001) %MON forcing_qnet_max             =   1.0285684545101E+04
(PID.TID 0000.0001) %MON forcing_qnet_min             =  -1.3734773455245E+03
(PID.TID 0000.0001) %MON forcing_qnet_mean            =   1.3756625382734E+01
(PID.TID 0000.0001) %MON forcing_qnet_sd              =   2.7262804566425E+02
(PID.TID 0000.0001) %MON forcing_qnet_del2            =   8.9902860961177E+00
(PID.TID 0000.0001) %MON forcing_qsw_max              =   0.0000000000000E+00
(PID.TID 0000.0001) %MON forcing_qsw_min              =  -4.2991165714728E+02
(PID.TID 0000.0001) %MON forcing_qsw_mean             =  -5.1227081619579E+01
(PID.TID 0000.0001) %MON forcing_qsw_sd               =   9.1981288188412E+01
(PID.TID 0000.0001) %MON forcing_qsw_del2             =   8.5699666017826E-01
(PID.TID 0000.0001) %MON forcing_empmr_max            =   6.7468550987542E-03
(PID.TID 0000.0001) %MON forcing_empmr_min            =  -9.6990004181862E-02
(PID.TID 0000.0001) %MON forcing_empmr_mean           =  -2.8208117432135E-04
(PID.TID 0000.0001) %MON forcing_empmr_sd             =   4.2724058616077E-03
(PID.TID 0000.0001) %MON forcing_empmr_del2           =   1.6861454683247E-04
(PID.TID 0000.0001) %MON forcing_fu_max               =   3.8305338027913E-01
(PID.TID 0000.0001) %MON forcing_fu_min               =  -3.6490234004876E-01
(PID.TID 0000.0001) %MON forcing_fu_mean              =  -2.3238847020126E-03
(PID.TID 0000.0001) %MON forcing_fu_sd                =   6.0589724301857E-02
(PID.TID 0000.0001) %MON forcing_fu_del2              =   6.0231580831341E-04
(PID.TID 0000.0001) %MON forcing_fv_max               =   3.1799083017404E-01
(PID.TID 0000.0001) %MON forcing_fv_min               =  -2.9370145993075E-01
(PID.TID 0000.0001) %MON forcing_fv_mean              =  -1.5299963685331E-02
(PID.TID 0000.0001) %MON forcing_fv_sd                =   6.2237314796482E-02
(PID.TID 0000.0001) %MON forcing_fv_del2              =   5.3571682030985E-04
(PID.TID 0000.0001) %MON trAdv_CFL_u_max              =   1.6195721024854E-03
(PID.TID 0000.0001) %MON trAdv_CFL_v_max              =   1.4277843812880E-03
(PID.TID 0000.0001) %MON trAdv_CFL_w_max              =   1.8265326804270E-03
(PID.TID 0000.0001) %MON advcfl_uvel_max              =   1.6212890547692E-03
(PID.TID 0000.0001) %MON advcfl_vvel_max              =   1.3248457076768E-03
(PID.TID 0000.0001) %MON advcfl_wvel_max              =   3.3735653628474E-03
(PID.TID 0000.0001) %MON advcfl_W_hf_max              =   2.0356748147045E-03
(PID.TID 0000.0001) %MON pe_b_mean                    =   5.0795667572246E-04
(PID.TID 0000.0001) %MON ke_max                       =   1.5914121314289E-01
(PID.TID 0000.0001) %MON ke_mean                      =   1.6104697609299E-04
(PID.TID 0000.0001) %MON ke_vol                       =   1.3398118024623E+18
(PID.TID 0000.0001) %MON vort_r_min                   =  -3.1727275016050E-06
(PID.TID 0000.0001) %MON vort_r_max                   =   2.4192924152665E-06
(PID.TID 0000.0001) %MON vort_a_mean                  =  -2.0549865324846E-05
(PID.TID 0000.0001) %MON vort_a_sd                    =   7.5259647383970E-05
(PID.TID 0000.0001) %MON vort_p_mean                  =  -2.4783300154460E-05
(PID.TID 0000.0001) %MON vort_p_sd                    =   1.2811911426799E-04
(PID.TID 0000.0001) %MON surfExpan_theta_mean         =  -6.4598532956489E-06
(PID.TID 0000.0001) %MON surfExpan_salt_mean          =   1.1197978676192E-06
(PID.TID 0000.0001) // =======================================================
(PID.TID 0000.0001) // End MONITOR dynamic field statistics
(PID.TID 0000.0001) // =======================================================
 cg2d: Sum(rhs),rhsMax =  -3.34829623868419E+01  6.73487602602556E+01
(PID.TID 0000.0001)      cg2d_init_res =   1.35742062939480E-01
(PID.TID 0000.0001)      cg2d_iters(min,last) =      -1      10
(PID.TID 0000.0001)      cg2d_last_res =   7.68451604641822E-08
(PID.TID 0000.0001) // =======================================================
(PID.TID 0000.0001) // Begin MONITOR dynamic field statistics
(PID.TID 0000.0001) // =======================================================
(PID.TID 0000.0001) %MON time_tsnumber                =                 72050
(PID.TID 0000.0001) %MON time_secondsf                =   6.4845000000000E+07
(PID.TID 0000.0001) %MON dynstat_eta_max              =   2.9995557635059E+00
(PID.TID 0000.0001) %MON dynstat_eta_min              =  -1.5999827298990E+00
(PID.TID 0000.0001) %MON dynstat_eta_mean             =   2.6203219444977E-02
(PID.TID 0000.0001) %MON dynstat_eta_sd               =   6.1661297072696E-01
(PID.TID 0000.0001) %MON dynstat_eta_del2             =   2.4409498583716E-03
(PID.TID 0000.0001) %MON dynstat_uvel_max             =   3.0340475328157E-01
(PID.TID 0000.0001) %MON dynstat_uvel_min             =  -5.6711658135114E-01
(PID.TID 0000.0001) %MON dynstat_uvel_mean            =  -5.1596051127275E-04
(PID.TID 0000.0001) %MON dynstat_uvel_sd              =   1.2668289093804E-02
(PID.TID 0000.0001) %MON dynstat_uvel_del2            =   9.0371901400155E-05
(PID.TID 0000.0001) %MON dynstat_vvel_max             =   4.1910247588525E-01
(PID.TID 0000.0001) %MON dynstat_vvel_min             =  -4.8186006494361E-01
(PID.TID 0000.0001) %MON dynstat_vvel_mean            =   2.5449489646112E-04
(PID.TID 0000.0001) %MON dynstat_vvel_sd              =   1.3721462184498E-02
(PID.TID 0000.0001) %MON dynstat_vvel_del2            =   8.4964529431334E-05
(PID.TID 0000.0001) %MON dynstat_wvel_max             =   1.5395164605086E-04
(PID.TID 0000.0001) %MON dynstat_wvel_min             =  -1.9138891479456E-04
(PID.TID 0000.0001) %MON dynstat_wvel_mean            =  -2.2993770090290E-07
(PID.TID 0000.0001) %MON dynstat_wvel_sd              =   7.8563653467379E-06
(PID.TID 0000.0001) %MON dynstat_wvel_del2            =   7.6242864881004E-08
(PID.TID 0000.0001) %MON dynstat_theta_max            =   3.0939273115903E+01
(PID.TID 0000.0001) %MON dynstat_theta_min            =  -3.0044362608599E+00
(PID.TID 0000.0001) %MON dynstat_theta_mean           =   3.9092084813546E+00
(PID.TID 0000.0001) %MON dynstat_theta_sd             =   4.5716085908997E+00
(PID.TID 0000.0001) %MON dynstat_theta_del2           =   2.6453253741712E-03
(PID.TID 0000.0001) %MON dynstat_salt_max             =   4.1350884595019E+01
(PID.TID 0000.0001) %MON dynstat_salt_min             =   1.8518877409901E+01
(PID.TID 0000.0001) %MON dynstat_salt_mean            =   3.4771974863005E+01
(PID.TID 0000.0001) %MON dynstat_salt_sd              =   5.3179963704157E-01
(PID.TID 0000.0001) %MON dynstat_salt_del2            =   1.0254411363589E-03
(PID.TID 0000.0001) %MON dynstat_sst_max              =   3.0939273115903E+01
(PID.TID 0000.0001) %MON dynstat_sst_min              =  -1.8971282661526E+00
(PID.TID 0000.0001) %MON dynstat_sst_mean             =   1.8112406439405E+01
(PID.TID 0000.0001) %MON dynstat_sst_sd               =   9.8098313225145E+00
(PID.TID 0000.0001) %MON dynstat_sst_del2             =   1.5117357182033E-02
(PID.TID 0000.0001) %MON dynstat_sss_max              =   4.1350884595019E+01
(PID.TID 0000.0001) %MON dynstat_sss_min              =   1.8751872869864E+01
(PID.TID 0000.0001) %MON dynstat_sss_mean             =   3.4625991482519E+01
(PID.TID 0000.0001) %MON dynstat_sss_sd               =   1.4786423480306E+00
(PID.TID 0000.0001) %MON dynstat_sss_del2             =   1.1332665587095E-02
(PID.TID 0000.0001) %MON forcing_qnet_max             =   1.3314307070292E+04
(PID.TID 0000.0001) %MON forcing_qnet_min             =  -1.4770238037109E+03
(PID.TID 0000.0001) %MON forcing_qnet_mean            =   1.4387083590288E+01
(PID.TID 0000.0001) %MON forcing_qnet_sd              =   3.1454437272914E+02
(PID.TID 0000.0001) %MON forcing_qnet_del2            =   1.2107334302241E+01
(PID.TID 0000.0001) %MON forcing_qsw_max              =   0.0000000000000E+00
(PID.TID 0000.0001) %MON forcing_qsw_min              =  -4.2472399483370E+02
(PID.TID 0000.0001) %MON forcing_qsw_mean             =  -5.1695345612067E+01
(PID.TID 0000.0001) %MON forcing_qsw_sd               =   9.1534116452598E+01
(PID.TID 0000.0001) %MON forcing_qsw_del2             =   8.5838909475091E-01
(PID.TID 0000.0001) %MON forcing_empmr_max            =   6.6773816943169E-03
(PID.TID 0000.0001) %MON forcing_empmr_min            =  -9.5990650355816E-02
(PID.TID 0000.0001) %MON forcing_empmr_mean           =  -2.8015455217808E-04
(PID.TID 0000.0001) %MON forcing_empmr_sd             =   4.2296297272194E-03
(PID.TID 0000.0001) %MON forcing_empmr_del2           =   1.6690784483722E-04
(PID.TID 0000.0001) %MON forcing_fu_max               =   3.8608944803286E-01
(PID.TID 0000.0001) %MON forcing_fu_min               =  -3.6390361522424E-01
(PID.TID 0000.0001) %MON forcing_fu_mean              =  -2.2814655735912E-03
(PID.TID 0000.0001) %MON forcing_fu_sd                =   6.0622223134698E-02
(PID.TID 0000.0001) %MON forcing_fu_del2              =   6.0295287880738E-04
(PID.TID 0000.0001) %MON forcing_fv_max               =   3.2030672551142E-01
(PID.TID 0000.0001) %MON forcing_fv_min               =  -2.9355454002368E-01
(PID.TID 0000.0001) %MON forcing_fv_mean              =  -1.5368059856628E-02
(PID.TID 0000.0001) %MON forcing_fv_sd                =   6.1962165770407E-02
(PID.TID 0000.0001) %MON forcing_fv_del2              =   5.3360541494339E-04
(PID.TID 0000.0001) %MON trAdv_CFL_u_max              =   1.6124208000874E-03
(PID.TID 0000.0001) %MON trAdv_CFL_v_max              =   1.4627282032033E-03
(PID.TID 0000.0001) %MON trAdv_CFL_w_max              =   1.7223207858950E-03
(PID.TID 0000.0001) %MON advcfl_uvel_max              =   1.6132754546336E-03
(PID.TID 0000.0001) %MON advcfl_vvel_max              =   1.4088172759426E-03
(PID.TID 0000.0001) %MON advcfl_wvel_max              =   3.3388052297675E-03
(PID.TID 0000.0001) %MON advcfl_W_hf_max              =   1.9793876243456E-03
(PID.TID 0000.0001) %MON pe_b_mean                    =   5.0742316582615E-04
(PID.TID 0000.0001) %MON ke_max                       =   1.6925525078691E-01
(PID.TID 0000.0001) %MON ke_mean                      =   1.6123042556675E-04
(PID.TID 0000.0001) %MON ke_vol                       =   1.3398118917194E+18
(PID.TID 0000.0001) %MON vort_r_min                   =  -3.3276931029460E-06
(PID.TID 0000.0001) %MON vort_r_max                   =   2.4894414488755E-06
(PID.TID 0000.0001) %MON vort_a_mean                  =  -2.0549865324846E-05
(PID.TID 0000.0001) %MON vort_a_sd                    =   7.5259658243812E-05
(PID.TID 0000.0001) %MON vort_p_mean                  =  -2.4783298354576E-05
(PID.TID 0000.0001) %MON vort_p_sd                    =   1.2811909901090E-04
(PID.TID 0000.0001) %MON surfExpan_theta_mean         =  -6.5768663869168E-06
(PID.TID 0000.0001) %MON surfExpan_salt_mean          =   1.1491510971625E-06
(PID.TID 0000.0001) // =======================================================
(PID.TID 0000.0001) // End MONITOR dynamic field statistics
(PID.TID 0000.0001) // =======================================================
 cg2d: Sum(rhs),rhsMax =  -3.43482167623932E+01  6.62587415802933E+01
(PID.TID 0000.0001)      cg2d_init_res =   1.38936735811415E-01
(PID.TID 0000.0001)      cg2d_iters(min,last) =      -1      10
(PID.TID 0000.0001)      cg2d_last_res =   7.71721704945432E-08
(PID.TID 0000.0001) // =======================================================
(PID.TID 0000.0001) // Begin MONITOR dynamic field statistics
(PID.TID 0000.0001) // =======================================================
(PID.TID 0000.0001) %MON time_tsnumber                =                 72051
(PID.TID 0000.0001) %MON time_secondsf                =   6.4845900000000E+07
(PID.TID 0000.0001) %MON dynstat_eta_max              =   2.9509881477258E+00
(PID.TID 0000.0001) %MON dynstat_eta_min              =  -1.5981965509640E+00
(PID.TID 0000.0001) %MON dynstat_eta_mean             =   2.6445303249945E-02
(PID.TID 0000.0001) %MON dynstat_eta_sd               =   6.1621827391456E-01
(PID.TID 0000.0001) %MON dynstat_eta_del2             =   2.3934701439890E-03
(PID.TID 0000.0001) %MON dynstat_uvel_max             =   2.9172942434990E-01
(PID.TID 0000.0001) %MON dynstat_uvel_min             =  -5.6670877784862E-01
(PID.TID 0000.0001) %MON dynstat_uvel_mean            =  -5.0791273060842E-04
(PID.TID 0000.0001) %MON dynstat_uvel_sd              =   1.2661797127088E-02
(PID.TID 0000.0001) %MON dynstat_uvel_del2            =   9.1408738941824E-05
(PID.TID 0000.0001) %MON dynstat_vvel_max             =   4.5716927625407E-01
(PID.TID 0000.0001) %MON dynstat_vvel_min             =  -5.0908586103374E-01
(PID.TID 0000.0001) %MON dynstat_vvel_mean            =   2.9631586759670E-04
(PID.TID 0000.0001) %MON dynstat_vvel_sd              =   1.3751994191607E-02
(PID.TID 0000.0001) %MON dynstat_vvel_del2            =   8.5016387372560E-05
(PID.TID 0000.0001) %MON dynstat_wvel_max             =   1.5000765961662E-04
(PID.TID 0000.0001) %MON dynstat_wvel_min             =  -1.8199673068368E-04
(PID.TID 0000.0001) %MON dynstat_wvel_mean            =  -2.5317771113456E-07
(PID.TID 0000.0001) %MON dynstat_wvel_sd              =   7.8859904760645E-06
(PID.TID 0000.0001) %MON dynstat_wvel_del2            =   7.6628062493631E-08
(PID.TID 0000.0001) %MON dynstat_theta_max            =   3.0939184450303E+01
(PID.TID 0000.0001) %MON dynstat_theta_min            =  -3.0045902404075E+00
(PID.TID 0000.0001) %MON dynstat_theta_mean           =   3.9092095021311E+00
(PID.TID 0000.0001) %MON dynstat_theta_sd             =   4.5716125618670E+00
(PID.TID 0000.0001) %MON dynstat_theta_del2           =   2.6452056211593E-03
(PID.TID 0000.0001) %MON dynstat_salt_max             =   4.1350557288038E+01
(PID.TID 0000.0001) %MON dynstat_salt_min             =   1.8518887700402E+01
(PID.TID 0000.0001) %MON dynstat_salt_mean            =   3.4771972200413E+01
(PID.TID 0000.0001) %MON dynstat_salt_sd              =   5.3181608780869E-01
(PID.TID 0000.0001) %MON dynstat_salt_del2            =   1.0296711689108E-03
(PID.TID 0000.0001) %MON dynstat_sst_max              =   3.0939184450303E+01
(PID.TID 0000.0001) %MON dynstat_sst_min              =  -1.8970257935350E+00
(PID.TID 0000.0001) %MON dynstat_sst_mean             =   1.8112382695771E+01
(PID.TID 0000.0001) %MON dynstat_sst_sd               =   9.8099247750649E+00
(PID.TID 0000.0001) %MON dynstat_sst_del2             =   1.5115342835935E-02
(PID.TID 0000.0001) %MON dynstat_sss_max              =   4.1350557288038E+01
(PID.TID 0000.0001) %MON dynstat_sss_min              =   1.8751894818235E+01
(PID.TID 0000.0001) %MON dynstat_sss_mean             =   3.4625804110657E+01
(PID.TID 0000.0001) %MON dynstat_sss_sd               =   1.4790571960115E+00
(PID.TID 0000.0001) %MON dynstat_sss_del2             =   1.1393038265246E-02
(PID.TID 0000.0001) %MON forcing_qnet_max             =   6.2656968594972E+03
(PID.TID 0000.0001) %MON forcing_qnet_min             =  -1.4660828857422E+03
(PID.TID 0000.0001) %MON forcing_qnet_mean            =   1.0650321044154E+01
(PID.TID 0000.0001) %MON forcing_qnet_sd              =   2.3684536624713E+02
(PID.TID 0000.0001) %MON forcing_qnet_del2            =   6.1469616302971E+00
(PID.TID 0000.0001) %MON forcing_qsw_max              =   0.0000000000000E+00
(PID.TID 0000.0001) %MON forcing_qsw_min              =  -4.1777784854313E+02
(PID.TID 0000.0001) %MON forcing_qsw_mean             =  -5.2050474780841E+01
(PID.TID 0000.0001) %MON forcing_qsw_sd               =   9.1063739551587E+01
(PID.TID 0000.0001) %MON forcing_qsw_del2             =   8.5851046485518E-01
(PID.TID 0000.0001) %MON forcing_empmr_max            =   6.6084996797144E-03
(PID.TID 0000.0001) %MON forcing_empmr_min            =  -9.5002204179764E-02
(PID.TID 0000.0001) %MON forcing_empmr_mean           =  -2.7839637571284E-04
(PID.TID 0000.0001) %MON forcing_empmr_sd             =   4.1877554788769E-03
(PID.TID 0000.0001) %MON forcing_empmr_del2           =   1.6523482641803E-04
(PID.TID 0000.0001) %MON forcing_fu_max               =   3.8256720379305E-01
(PID.TID 0000.0001) %MON forcing_fu_min               =  -3.6321840720927E-01
(PID.TID 0000.0001) %MON forcing_fu_mean              =  -2.2657400916476E-03
(PID.TID 0000.0001) %MON forcing_fu_sd                =   6.0443497313057E-02
(PID.TID 0000.0001) %MON forcing_fu_del2              =   6.0151243447387E-04
(PID.TID 0000.0001) %MON forcing_fv_max               =   3.2329724842197E-01
(PID.TID 0000.0001) %MON forcing_fv_min               =  -2.9338227076689E-01
(PID.TID 0000.0001) %MON forcing_fv_mean              =  -1.5398407761316E-02
(PID.TID 0000.0001) %MON forcing_fv_sd                =   6.1673300479504E-02
(PID.TID 0000.0001) %MON forcing_fv_del2              =   5.3104864143958E-04
(PID.TID 0000.0001) %MON trAdv_CFL_u_max              =   1.6476428665488E-03
(PID.TID 0000.0001) %MON trAdv_CFL_v_max              =   1.5476542094759E-03
(PID.TID 0000.0001) %MON trAdv_CFL_w_max              =   1.6769320858379E-03
(PID.TID 0000.0001) %MON advcfl_uvel_max              =   1.6468608962932E-03
(PID.TID 0000.0001) %MON advcfl_vvel_max              =   1.4884175057055E-03
(PID.TID 0000.0001) %MON advcfl_wvel_max              =   3.3044244932092E-03
(PID.TID 0000.0001) %MON advcfl_W_hf_max              =   1.9286762326654E-03
(PID.TID 0000.0001) %MON pe_b_mean                    =   5.0679188203514E-04
(PID.TID 0000.0001) %MON ke_max                       =   1.7895708270167E-01
(PID.TID 0000.0001) %MON ke_mean                      =   1.6155101196466E-04
(PID.TID 0000.0001) %MON ke_vol                       =   1.3398119803668E+18
(PID.TID 0000.0001) %MON vort_r_min                   =  -3.4796654880532E-06
(PID.TID 0000.0001) %MON vort_r_max                   =   2.5470942104951E-06
(PID.TID 0000.0001) %MON vort_a_mean                  =  -2.0549865324846E-05
(PID.TID 0000.0001) %MON vort_a_sd                    =   7.5259668574752E-05
(PID.TID 0000.0001) %MON vort_p_mean                  =  -2.4783296497714E-05
(PID.TID 0000.0001) %MON vort_p_sd                    =   1.2811908563906E-04
(PID.TID 0000.0001) %MON surfExpan_theta_mean         =  -6.7025352149637E-06
(PID.TID 0000.0001) %MON surfExpan_salt_mean          =   1.1766990647955E-06
(PID.TID 0000.0001) // =======================================================
(PID.TID 0000.0001) // End MONITOR dynamic field statistics
(PID.TID 0000.0001) // =======================================================
 Computing Diagnostic #     81  oceTAUX      Counter:       1   Parms: UU      U1      
           Vector  Mate for  oceTAUX      Diagnostic #     82  oceTAUY  exists 
 Computing Diagnostic #     82  oceTAUY      Counter:       1   Parms: VV      U1      
           Vector  Mate for  oceTAUY      Diagnostic #     81  oceTAUX  exists 
 Computing Diagnostic #     85  oceFWflx     Counter:       1   Parms: SM      U1      
 Computing Diagnostic #     86  oceSflux     Counter:       1   Parms: SM      U1      
 Computing Diagnostic #     87  oceQnet      Counter:       1   Parms: SM      U1      
 Computing Diagnostic #     88  oceQsw       Counter:       1   Parms: SM      U1      
 Computing Diagnostic #     27  SALT         Counter:       1   Parms: SMR     MR      
 Computing Diagnostic #     26  THETA        Counter:       1   Parms: SMR     MR      
 Computing Diagnostic #     45  UVELMASS     Counter:       1   Parms: UUr     MR      
           Vector  Mate for  UVELMASS     Diagnostic #     46  VVELMASS exists 
 Computing Diagnostic #     46  VVELMASS     Counter:       1   Parms: VVr     MR      
           Vector  Mate for  VVELMASS     Diagnostic #     45  UVELMASS exists 
 cg2d: Sum(rhs),rhsMax =  -3.54346463001847E+01  6.48095197734610E+01
(PID.TID 0000.0001)      cg2d_init_res =   1.44943411683990E-01
(PID.TID 0000.0001)      cg2d_iters(min,last) =      -1      10
(PID.TID 0000.0001)      cg2d_last_res =   7.77773430504656E-08
(PID.TID 0000.0001) // =======================================================
(PID.TID 0000.0001) // Begin MONITOR dynamic field statistics
(PID.TID 0000.0001) // =======================================================
(PID.TID 0000.0001) %MON time_tsnumber                =                 72052
(PID.TID 0000.0001) %MON time_secondsf                =   6.4846800000000E+07
(PID.TID 0000.0001) %MON dynstat_eta_max              =   2.8864697678607E+00
(PID.TID 0000.0001) %MON dynstat_eta_min              =  -1.5964805867368E+00
(PID.TID 0000.0001) %MON dynstat_eta_mean             =   2.6685053555986E-02
(PID.TID 0000.0001) %MON dynstat_eta_sd               =   6.1577356981636E-01
(PID.TID 0000.0001) %MON dynstat_eta_del2             =   2.3277534513980E-03
(PID.TID 0000.0001) %MON dynstat_uvel_max             =   2.7860244869026E-01
(PID.TID 0000.0001) %MON dynstat_uvel_min             =  -5.8701416372053E-01
(PID.TID 0000.0001) %MON dynstat_uvel_mean            =  -4.9747252403311E-04
(PID.TID 0000.0001) %MON dynstat_uvel_sd              =   1.2665067320358E-02
(PID.TID 0000.0001) %MON dynstat_uvel_del2            =   9.2468567702125E-05
(PID.TID 0000.0001) %MON dynstat_vvel_max             =   4.8788366554615E-01
(PID.TID 0000.0001) %MON dynstat_vvel_min             =  -5.3454944328385E-01
(PID.TID 0000.0001) %MON dynstat_vvel_mean            =   3.3515581594978E-04
(PID.TID 0000.0001) %MON dynstat_vvel_sd              =   1.3782604358005E-02
(PID.TID 0000.0001) %MON dynstat_vvel_del2            =   8.5836538816884E-05
(PID.TID 0000.0001) %MON dynstat_wvel_max             =   1.4640815364798E-04
(PID.TID 0000.0001) %MON dynstat_wvel_min             =  -1.8030028882955E-04
(PID.TID 0000.0001) %MON dynstat_wvel_mean            =  -2.7331894934361E-07
(PID.TID 0000.0001) %MON dynstat_wvel_sd              =   7.9187211034776E-06
(PID.TID 0000.0001) %MON dynstat_wvel_del2            =   7.6956333270707E-08
(PID.TID 0000.0001) %MON dynstat_theta_max            =   3.0939060932565E+01
(PID.TID 0000.0001) %MON dynstat_theta_min            =  -3.0047731502713E+00
(PID.TID 0000.0001) %MON dynstat_theta_mean           =   3.9092105999309E+00
(PID.TID 0000.0001) %MON dynstat_theta_sd             =   4.5716164869733E+00
(PID.TID 0000.0001) %MON dynstat_theta_del2           =   2.6450570642958E-03
(PID.TID 0000.0001) %MON dynstat_salt_max             =   4.1350241597239E+01
(PID.TID 0000.0001) %MON dynstat_salt_min             =   1.8518897972385E+01
(PID.TID 0000.0001) %MON dynstat_salt_mean            =   3.4771969596558E+01
(PID.TID 0000.0001) %MON dynstat_salt_sd              =   5.3183233858034E-01
(PID.TID 0000.0001) %MON dynstat_salt_del2            =   1.0338238288987E-03
(PID.TID 0000.0001) %MON dynstat_sst_max              =   3.0939060932565E+01
(PID.TID 0000.0001) %MON dynstat_sst_min              =  -1.8969422402672E+00
(PID.TID 0000.0001) %MON dynstat_sst_mean             =   1.8112367382792E+01
(PID.TID 0000.0001) %MON dynstat_sst_sd               =   9.8100100397355E+00
(PID.TID 0000.0001) %MON dynstat_sst_del2             =   1.5112833607645E-02
(PID.TID 0000.0001) %MON dynstat_sss_max              =   4.1350241597239E+01
(PID.TID 0000.0001) %MON dynstat_sss_min              =   1.8751915747849E+01
(PID.TID 0000.0001) %MON dynstat_sss_mean             =   3.4625621409240E+01
(PID.TID 0000.0001) %MON dynstat_sss_sd               =   1.4794691906549E+00
(PID.TID 0000.0001) %MON dynstat_sss_del2             =   1.1452256806440E-02
(PID.TID 0000.0001) %MON forcing_qnet_max             =   2.1422109375000E+03
(PID.TID 0000.0001) %MON forcing_qnet_min             =  -1.9084840087891E+03
(PID.TID 0000.0001) %MON forcing_qnet_mean            =   8.9827180106558E+00
(PID.TID 0000.0001) %MON forcing_qnet_sd              =   2.1577678357826E+02
(PID.TID 0000.0001) %MON forcing_qnet_del2            =   4.0661054092198E+00
(PID.TID 0000.0001) %MON forcing_qsw_max              =   0.0000000000000E+00
(PID.TID 0000.0001) %MON forcing_qsw_min              =  -4.0910315475650E+02
(PID.TID 0000.0001) %MON forcing_qsw_mean             =  -5.2267442722579E+01
(PID.TID 0000.0001) %MON forcing_qsw_sd               =   9.0593215744346E+01
(PID.TID 0000.0001) %MON forcing_qsw_del2             =   8.5743701067756E-01
(PID.TID 0000.0001) %MON forcing_empmr_max            =   6.5404041670263E-03
(PID.TID 0000.0001) %MON forcing_empmr_min            =  -9.4022996723652E-02
(PID.TID 0000.0001) %MON forcing_empmr_mean           =  -2.7571285194764E-04
(PID.TID 0000.0001) %MON forcing_empmr_sd             =   4.1473315165303E-03
(PID.TID 0000.0001) %MON forcing_empmr_del2           =   1.6361544109707E-04
(PID.TID 0000.0001) %MON forcing_fu_max               =   3.8059237166941E-01
(PID.TID 0000.0001) %MON forcing_fu_min               =  -3.5975108752825E-01
(PID.TID 0000.0001) %MON forcing_fu_mean              =  -2.2310064180844E-03
(PID.TID 0000.0001) %MON forcing_fu_sd                =   6.0385672311818E-02
(PID.TID 0000.0001) %MON forcing_fu_del2              =   6.0167109840977E-04
(PID.TID 0000.0001) %MON forcing_fv_max               =   3.2258220301139E-01
(PID.TID 0000.0001) %MON forcing_fv_min               =  -2.9288193743571E-01
(PID.TID 0000.0001) %MON forcing_fv_mean              =  -1.5405775949227E-02
(PID.TID 0000.0001) %MON forcing_fv_sd                =   6.1469034560008E-02
(PID.TID 0000.0001) %MON forcing_fv_del2              =   5.2940303095565E-04
(PID.TID 0000.0001) %MON trAdv_CFL_u_max              =   1.7067048732886E-03
(PID.TID 0000.0001) %MON trAdv_CFL_v_max              =   1.6147286159234E-03
(PID.TID 0000.0001) %MON trAdv_CFL_w_max              =   1.7108314502273E-03
(PID.TID 0000.0001) %MON advcfl_uvel_max              =   1.7058685335202E-03
(PID.TID 0000.0001) %MON advcfl_vvel_max              =   1.5628655398781E-03
(PID.TID 0000.0001) %MON advcfl_wvel_max              =   3.2703651034314E-03
(PID.TID 0000.0001) %MON advcfl_W_hf_max              =   1.8823950744295E-03
(PID.TID 0000.0001) %MON pe_b_mean                    =   5.0607895671885E-04
(PID.TID 0000.0001) %MON ke_max                       =   1.8826694973777E-01
(PID.TID 0000.0001) %MON ke_mean                      =   1.6198671520257E-04
(PID.TID 0000.0001) %MON ke_vol                       =   1.3398120684579E+18
(PID.TID 0000.0001) %MON vort_r_min                   =  -3.6276308373478E-06
(PID.TID 0000.0001) %MON vort_r_max                   =   2.5927854801278E-06
(PID.TID 0000.0001) %MON vort_a_mean                  =  -2.0549865324846E-05
(PID.TID 0000.0001) %MON vort_a_sd                    =   7.5259678319146E-05
(PID.TID 0000.0001) %MON vort_p_mean                  =  -2.4783294586160E-05
(PID.TID 0000.0001) %MON vort_p_sd                    =   1.2811907474769E-04
(PID.TID 0000.0001) %MON surfExpan_theta_mean         =  -6.8038033236542E-06
(PID.TID 0000.0001) %MON surfExpan_salt_mean          =   1.2026232194192E-06
(PID.TID 0000.0001) // =======================================================
(PID.TID 0000.0001) // End MONITOR dynamic field statistics
(PID.TID 0000.0001) // =======================================================
 cg2d: Sum(rhs),rhsMax =  -3.67709420871001E+01  6.30128956559909E+01
(PID.TID 0000.0001)      cg2d_init_res =   1.53365851613065E-01
(PID.TID 0000.0001)      cg2d_iters(min,last) =      -1      10
(PID.TID 0000.0001)      cg2d_last_res =   7.85766552003946E-08
(PID.TID 0000.0001) // =======================================================
(PID.TID 0000.0001) // Begin MONITOR dynamic field statistics
(PID.TID 0000.0001) // =======================================================
(PID.TID 0000.0001) %MON time_tsnumber                =                 72053
(PID.TID 0000.0001) %MON time_secondsf                =   6.4847700000000E+07
(PID.TID 0000.0001) %MON dynstat_eta_max              =   2.8065220440123E+00
(PID.TID 0000.0001) %MON dynstat_eta_min              =  -1.5948871127848E+00
(PID.TID 0000.0001) %MON dynstat_eta_mean             =   2.6923738726826E-02
(PID.TID 0000.0001) %MON dynstat_eta_sd               =   6.1529266354967E-01
(PID.TID 0000.0001) %MON dynstat_eta_del2             =   2.2459440845789E-03
(PID.TID 0000.0001) %MON dynstat_uvel_max             =   3.4278760593343E-01
(PID.TID 0000.0001) %MON dynstat_uvel_min             =  -6.0774310715934E-01
(PID.TID 0000.0001) %MON dynstat_uvel_mean            =  -4.8492947888050E-04
(PID.TID 0000.0001) %MON dynstat_uvel_sd              =   1.2677780884041E-02
(PID.TID 0000.0001) %MON dynstat_uvel_del2            =   9.3510249489448E-05
(PID.TID 0000.0001) %MON dynstat_vvel_max             =   5.3346017085789E-01
(PID.TID 0000.0001) %MON dynstat_vvel_min             =  -5.5799913533241E-01
(PID.TID 0000.0001) %MON dynstat_vvel_mean            =   3.7078613760637E-04
(PID.TID 0000.0001) %MON dynstat_vvel_sd              =   1.3811501864271E-02
(PID.TID 0000.0001) %MON dynstat_vvel_del2            =   8.7281523558004E-05
(PID.TID 0000.0001) %MON dynstat_wvel_max             =   1.4303577523926E-04
(PID.TID 0000.0001) %MON dynstat_wvel_min             =  -1.8007236903023E-04
(PID.TID 0000.0001) %MON dynstat_wvel_mean            =  -2.9112941346734E-07
(PID.TID 0000.0001) %MON dynstat_wvel_sd              =   7.9509163822421E-06
(PID.TID 0000.0001) %MON dynstat_wvel_del2            =   7.7198371655059E-08
(PID.TID 0000.0001) %MON dynstat_theta_max            =   3.0938899077324E+01
(PID.TID 0000.0001) %MON dynstat_theta_min            =  -3.0049795115198E+00
(PID.TID 0000.0001) %MON dynstat_theta_mean           =   3.9092118663784E+00
(PID.TID 0000.0001) %MON dynstat_theta_sd             =   4.5716208561329E+00
(PID.TID 0000.0001) %MON dynstat_theta_del2           =   2.6449209557889E-03
(PID.TID 0000.0001) %MON dynstat_salt_max             =   4.1349939190392E+01
(PID.TID 0000.0001) %MON dynstat_salt_min             =   1.8518908228588E+01
(PID.TID 0000.0001) %MON dynstat_salt_mean            =   3.4771967023007E+01
(PID.TID 0000.0001) %MON dynstat_salt_sd              =   5.3184837096374E-01
(PID.TID 0000.0001) %MON dynstat_salt_del2            =   1.0379092034702E-03
(PID.TID 0000.0001) %MON dynstat_sst_max              =   3.0938899077324E+01
(PID.TID 0000.0001) %MON dynstat_sst_min              =  -1.8970026355402E+00
(PID.TID 0000.0001) %MON dynstat_sst_mean             =   1.8112359329746E+01
(PID.TID 0000.0001) %MON dynstat_sst_sd               =   9.8100924204874E+00
(PID.TID 0000.0001) %MON dynstat_sst_del2             =   1.5110441508596E-02
(PID.TID 0000.0001) %MON dynstat_sss_max              =   4.1349939190392E+01
(PID.TID 0000.0001) %MON dynstat_sss_min              =   1.8751935789559E+01
(PID.TID 0000.0001) %MON dynstat_sss_mean             =   3.4625438783902E+01
(PID.TID 0000.0001) %MON dynstat_sss_sd               =   1.4798739174230E+00
(PID.TID 0000.0001) %MON dynstat_sss_del2             =   1.1510445179852E-02
(PID.TID 0000.0001) %MON forcing_qnet_max             =   2.1168742675781E+03
(PID.TID 0000.0001) %MON forcing_qnet_min             =  -1.4098316650391E+03
(PID.TID 0000.0001) %MON forcing_qnet_mean            =   5.9433281183078E+00
(PID.TID 0000.0001) %MON forcing_qnet_sd              =   2.1544862178119E+02
(PID.TID 0000.0001) %MON forcing_qnet_del2            =   4.0496670141983E+00
(PID.TID 0000.0001) %MON forcing_qsw_max              =   0.0000000000000E+00
(PID.TID 0000.0001) %MON forcing_qsw_min              =  -3.9144661063261E+02
(PID.TID 0000.0001) %MON forcing_qsw_mean             =  -5.3712793918074E+01
(PID.TID 0000.0001) %MON forcing_qsw_sd               =   9.1426803403531E+01
(PID.TID 0000.0001) %MON forcing_qsw_del2             =   8.4783134437179E-01
(PID.TID 0000.0001) %MON forcing_empmr_max            =   6.4729973673820E-03
(PID.TID 0000.0001) %MON forcing_empmr_min            =  -9.3054689466953E-02
(PID.TID 0000.0001) %MON forcing_empmr_mean           =  -2.7448794646614E-04
(PID.TID 0000.0001) %MON forcing_empmr_sd             =   4.1093706076447E-03
(PID.TID 0000.0001) %MON forcing_empmr_del2           =   1.6208094941128E-04
(PID.TID 0000.0001) %MON forcing_fu_max               =   3.8606396477519E-01
(PID.TID 0000.0001) %MON forcing_fu_min               =  -3.5702641130757E-01
(PID.TID 0000.0001) %MON forcing_fu_mean              =  -2.1826860967366E-03
(PID.TID 0000.0001) %MON forcing_fu_sd                =   6.0848248354106E-02
(PID.TID 0000.0001) %MON forcing_fu_del2              =   6.0670430132587E-04
(PID.TID 0000.0001) %MON forcing_fv_max               =   3.2222125438464E-01
(PID.TID 0000.0001) %MON forcing_fv_min               =  -2.9201767320481E-01
(PID.TID 0000.0001) %MON forcing_fv_mean              =  -1.5439658483738E-02
(PID.TID 0000.0001) %MON forcing_fv_sd                =   6.1365898778315E-02
(PID.TID 0000.0001) %MON forcing_fv_del2              =   5.2802412102573E-04
(PID.TID 0000.0001) %MON trAdv_CFL_u_max              =   1.7670582022748E-03
(PID.TID 0000.0001) %MON trAdv_CFL_v_max              =   1.7582268260776E-03
(PID.TID 0000.0001) %MON trAdv_CFL_w_max              =   1.7367897017579E-03
(PID.TID 0000.0001) %MON advcfl_uvel_max              =   1.7661070329139E-03
(PID.TID 0000.0001) %MON advcfl_vvel_max              =   1.7408751279064E-03
(PID.TID 0000.0001) %MON advcfl_wvel_max              =   3.2366848510245E-03
(PID.TID 0000.0001) %MON advcfl_W_hf_max              =   1.8390351568933E-03
(PID.TID 0000.0001) %MON pe_b_mean                    =   5.0530728550389E-04
(PID.TID 0000.0001) %MON ke_max                       =   1.9721597560347E-01
(PID.TID 0000.0001) %MON ke_mean                      =   1.6251075853702E-04
(PID.TID 0000.0001) %MON ke_vol                       =   1.3398121556998E+18
(PID.TID 0000.0001) %MON vort_r_min                   =  -3.7704770097186E-06
(PID.TID 0000.0001) %MON vort_r_max                   =   2.6271327853068E-06
(PID.TID 0000.0001) %MON vort_a_mean                  =  -2.0549865324846E-05
(PID.TID 0000.0001) %MON vort_a_sd                    =   7.5259687437158E-05
(PID.TID 0000.0001) %MON vort_p_mean                  =  -2.4783292631702E-05
(PID.TID 0000.0001) %MON vort_p_sd                    =   1.2811906685945E-04
(PID.TID 0000.0001) %MON surfExpan_theta_mean         =  -6.9198349519459E-06
(PID.TID 0000.0001) %MON surfExpan_salt_mean          =   1.2261318483593E-06
(PID.TID 0000.0001) // =======================================================
(PID.TID 0000.0001) // End MONITOR dynamic field statistics
(PID.TID 0000.0001) // =======================================================
 cg2d: Sum(rhs),rhsMax =  -3.83927954922865E+01  6.08845685736826E+01
(PID.TID 0000.0001)      cg2d_init_res =   1.63855016869136E-01
(PID.TID 0000.0001)      cg2d_iters(min,last) =      -1      10
(PID.TID 0000.0001)      cg2d_last_res =   7.93279098060357E-08
(PID.TID 0000.0001) // =======================================================
(PID.TID 0000.0001) // Begin MONITOR dynamic field statistics
(PID.TID 0000.0001) // =======================================================
(PID.TID 0000.0001) %MON time_tsnumber                =                 72054
(PID.TID 0000.0001) %MON time_secondsf                =   6.4848600000000E+07
(PID.TID 0000.0001) %MON dynstat_eta_max              =   2.7118394039915E+00
(PID.TID 0000.0001) %MON dynstat_eta_min              =  -1.5934392682907E+00
(PID.TID 0000.0001) %MON dynstat_eta_mean             =   2.7161774650693E-02
(PID.TID 0000.0001) %MON dynstat_eta_sd               =   6.1479077879139E-01
(PID.TID 0000.0001) %MON dynstat_eta_del2             =   2.1507794097125E-03
(PID.TID 0000.0001) %MON dynstat_uvel_max             =   4.2481811984556E-01
(PID.TID 0000.0001) %MON dynstat_uvel_min             =  -6.2876005741581E-01
(PID.TID 0000.0001) %MON dynstat_uvel_mean            =  -4.7060896840799E-04
(PID.TID 0000.0001) %MON dynstat_uvel_sd              =   1.2699070023937E-02
(PID.TID 0000.0001) %MON dynstat_uvel_del2            =   9.4492452986060E-05
(PID.TID 0000.0001) %MON dynstat_vvel_max             =   5.9050790425458E-01
(PID.TID 0000.0001) %MON dynstat_vvel_min             =  -5.7920092943243E-01
(PID.TID 0000.0001) %MON dynstat_vvel_mean            =   4.0307095809253E-04
(PID.TID 0000.0001) %MON dynstat_vvel_sd              =   1.3837059020044E-02
(PID.TID 0000.0001) %MON dynstat_vvel_del2            =   8.9172145236940E-05
(PID.TID 0000.0001) %MON dynstat_wvel_max             =   1.3975734485024E-04
(PID.TID 0000.0001) %MON dynstat_wvel_min             =  -1.7989981520638E-04
(PID.TID 0000.0001) %MON dynstat_wvel_mean            =  -3.0567148340139E-07
(PID.TID 0000.0001) %MON dynstat_wvel_sd              =   7.9791244620354E-06
(PID.TID 0000.0001) %MON dynstat_wvel_del2            =   7.7332088987509E-08
(PID.TID 0000.0001) %MON dynstat_theta_max            =   3.0938727748322E+01
(PID.TID 0000.0001) %MON dynstat_theta_min            =  -3.0052035358773E+00
(PID.TID 0000.0001) %MON dynstat_theta_mean           =   3.9092131992594E+00
(PID.TID 0000.0001) %MON dynstat_theta_sd             =   4.5716253660563E+00
(PID.TID 0000.0001) %MON dynstat_theta_del2           =   2.6447846987609E-03
(PID.TID 0000.0001) %MON dynstat_salt_max             =   4.1349651653237E+01
(PID.TID 0000.0001) %MON dynstat_salt_min             =   1.8518918471560E+01
(PID.TID 0000.0001) %MON dynstat_salt_mean            =   3.4771964494403E+01
(PID.TID 0000.0001) %MON dynstat_salt_sd              =   5.3186421735652E-01
(PID.TID 0000.0001) %MON dynstat_salt_del2            =   1.0419231608465E-03
(PID.TID 0000.0001) %MON dynstat_sst_max              =   3.0938727748322E+01
(PID.TID 0000.0001) %MON dynstat_sst_min              =  -1.8970789969472E+00
(PID.TID 0000.0001) %MON dynstat_sst_mean             =   1.8112355372126E+01
(PID.TID 0000.0001) %MON dynstat_sst_sd               =   9.8101725134831E+00
(PID.TID 0000.0001) %MON dynstat_sst_del2             =   1.5108036299288E-02
(PID.TID 0000.0001) %MON dynstat_sss_max              =   4.1349651653237E+01
(PID.TID 0000.0001) %MON dynstat_sss_min              =   1.8751954975930E+01
(PID.TID 0000.0001) %MON dynstat_sss_mean             =   3.4625258588117E+01
(PID.TID 0000.0001) %MON dynstat_sss_sd               =   1.4802742220395E+00
(PID.TID 0000.0001) %MON dynstat_sss_del2             =   1.1567561031765E-02
(PID.TID 0000.0001) %MON forcing_qnet_max             =   2.0929670410156E+03
(PID.TID 0000.0001) %MON forcing_qnet_min             =  -2.0302478027344E+03
(PID.TID 0000.0001) %MON forcing_qnet_mean            =   4.5885373840304E+00
(PID.TID 0000.0001) %MON forcing_qnet_sd              =   2.1702869833313E+02
(PID.TID 0000.0001) %MON forcing_qnet_del2            =   4.2043503187052E+00
(PID.TID 0000.0001) %MON forcing_qsw_max              =   0.0000000000000E+00
(PID.TID 0000.0001) %MON forcing_qsw_min              =  -3.8808312801385E+02
(PID.TID 0000.0001) %MON forcing_qsw_mean             =  -5.4305988015835E+01
(PID.TID 0000.0001) %MON forcing_qsw_sd               =   9.1820284587569E+01
(PID.TID 0000.0001) %MON forcing_qsw_del2             =   8.5134810279663E-01
(PID.TID 0000.0001) %MON forcing_empmr_max            =   6.4062797464430E-03
(PID.TID 0000.0001) %MON forcing_empmr_min            =  -9.2095613479614E-02
(PID.TID 0000.0001) %MON forcing_empmr_mean           =  -2.7374131244696E-04
(PID.TID 0000.0001) %MON forcing_empmr_sd             =   4.0774771578840E-03
(PID.TID 0000.0001) %MON forcing_empmr_del2           =   1.6074723507253E-04
(PID.TID 0000.0001) %MON forcing_fu_max               =   3.9051003077566E-01
(PID.TID 0000.0001) %MON forcing_fu_min               =  -3.5393018295395E-01
(PID.TID 0000.0001) %MON forcing_fu_mean              =  -2.1259293285245E-03
(PID.TID 0000.0001) %MON forcing_fu_sd                =   6.1269970114683E-02
(PID.TID 0000.0001) %MON forcing_fu_del2              =   6.1090900208683E-04
(PID.TID 0000.0001) %MON forcing_fv_max               =   3.2077555810346E-01
(PID.TID 0000.0001) %MON forcing_fv_min               =  -2.9066608494817E-01
(PID.TID 0000.0001) %MON forcing_fv_mean              =  -1.5473821197500E-02
(PID.TID 0000.0001) %MON forcing_fv_sd                =   6.1364213467132E-02
(PID.TID 0000.0001) %MON forcing_fv_del2              =   5.2840908243167E-04
(PID.TID 0000.0001) %MON trAdv_CFL_u_max              =   1.8283352317645E-03
(PID.TID 0000.0001) %MON trAdv_CFL_v_max              =   1.9486283272635E-03
(PID.TID 0000.0001) %MON trAdv_CFL_w_max              =   1.7548240237019E-03
(PID.TID 0000.0001) %MON advcfl_uvel_max              =   1.8271824827562E-03
(PID.TID 0000.0001) %MON advcfl_vvel_max              =   1.9270426912954E-03
(PID.TID 0000.0001) %MON advcfl_wvel_max              =   3.2033256862475E-03
(PID.TID 0000.0001) %MON advcfl_W_hf_max              =   1.7968840068563E-03
(PID.TID 0000.0001) %MON pe_b_mean                    =   5.0450197179536E-04
(PID.TID 0000.0001) %MON ke_max                       =   2.0583411493729E-01
(PID.TID 0000.0001) %MON ke_mean                      =   1.6309215090152E-04
(PID.TID 0000.0001) %MON ke_vol                       =   1.3398122425542E+18
(PID.TID 0000.0001) %MON vort_r_min                   =  -3.9070098264664E-06
(PID.TID 0000.0001) %MON vort_r_max                   =   2.6508211851088E-06
(PID.TID 0000.0001) %MON vort_a_mean                  =  -2.0549865324846E-05
(PID.TID 0000.0001) %MON vort_a_sd                    =   7.5259695893089E-05
(PID.TID 0000.0001) %MON vort_p_mean                  =  -2.4783290633562E-05
(PID.TID 0000.0001) %MON vort_p_sd                    =   1.2811906229484E-04
(PID.TID 0000.0001) %MON surfExpan_theta_mean         =  -7.0274316066386E-06
(PID.TID 0000.0001) %MON surfExpan_salt_mean          =   1.2463226000320E-06
(PID.TID 0000.0001) // =======================================================
(PID.TID 0000.0001) // End MONITOR dynamic field statistics
(PID.TID 0000.0001) // =======================================================
 cg2d: Sum(rhs),rhsMax =  -4.03487672394998E+01  5.84439060369004E+01
(PID.TID 0000.0001)      cg2d_init_res =   1.76209868220439E-01
(PID.TID 0000.0001)      cg2d_iters(min,last) =      -1      10
(PID.TID 0000.0001)      cg2d_last_res =   7.98166960400268E-08
(PID.TID 0000.0001) // =======================================================
(PID.TID 0000.0001) // Begin MONITOR dynamic field statistics
(PID.TID 0000.0001) // =======================================================
(PID.TID 0000.0001) %MON time_tsnumber                =                 72055
(PID.TID 0000.0001) %MON time_secondsf                =   6.4849500000000E+07
(PID.TID 0000.0001) %MON dynstat_eta_max              =   2.6032791894399E+00
(PID.TID 0000.0001) %MON dynstat_eta_min              =  -1.5921338446601E+00
(PID.TID 0000.0001) %MON dynstat_eta_mean             =   2.7401269081565E-02
(PID.TID 0000.0001) %MON dynstat_eta_sd               =   6.1428270329093E-01
(PID.TID 0000.0001) %MON dynstat_eta_del2             =   2.0455643863316E-03
(PID.TID 0000.0001) %MON dynstat_uvel_max             =   4.9779057633505E-01
(PID.TID 0000.0001) %MON dynstat_uvel_min             =  -6.4989002815686E-01
(PID.TID 0000.0001) %MON dynstat_uvel_mean            =  -4.5486118568305E-04
(PID.TID 0000.0001) %MON dynstat_uvel_sd              =   1.2727484839009E-02
(PID.TID 0000.0001) %MON dynstat_uvel_del2            =   9.5375891755482E-05
(PID.TID 0000.0001) %MON dynstat_vvel_max             =   6.3542981619692E-01
(PID.TID 0000.0001) %MON dynstat_vvel_min             =  -5.9793893663457E-01
(PID.TID 0000.0001) %MON dynstat_vvel_mean            =   4.3196244070819E-04
(PID.TID 0000.0001) %MON dynstat_vvel_sd              =   1.3857946322646E-02
(PID.TID 0000.0001) %MON dynstat_vvel_del2            =   9.1314259531515E-05
(PID.TID 0000.0001) %MON dynstat_wvel_max             =   1.3643503161143E-04
(PID.TID 0000.0001) %MON dynstat_wvel_min             =  -1.7976259292083E-04
(PID.TID 0000.0001) %MON dynstat_wvel_mean            =  -3.1715551103872E-07
(PID.TID 0000.0001) %MON dynstat_wvel_sd              =   8.0014345603468E-06
(PID.TID 0000.0001) %MON dynstat_wvel_del2            =   7.7368705221205E-08
(PID.TID 0000.0001) %MON dynstat_theta_max            =   3.0938551357121E+01
(PID.TID 0000.0001) %MON dynstat_theta_min            =  -3.0054405297883E+00
(PID.TID 0000.0001) %MON dynstat_theta_mean           =   3.9092145973357E+00
(PID.TID 0000.0001) %MON dynstat_theta_sd             =   4.5716299748417E+00
(PID.TID 0000.0001) %MON dynstat_theta_del2           =   2.6446439729717E-03
(PID.TID 0000.0001) %MON dynstat_salt_max             =   4.1349380128737E+01
(PID.TID 0000.0001) %MON dynstat_salt_min             =   1.8518928703653E+01
(PID.TID 0000.0001) %MON dynstat_salt_mean            =   3.4771962010160E+01
(PID.TID 0000.0001) %MON dynstat_salt_sd              =   5.3187985978936E-01
(PID.TID 0000.0001) %MON dynstat_salt_del2            =   1.0458654081331E-03
(PID.TID 0000.0001) %MON dynstat_sst_max              =   3.0938551357121E+01
(PID.TID 0000.0001) %MON dynstat_sst_min              =  -1.8971702614735E+00
(PID.TID 0000.0001) %MON dynstat_sst_mean             =   1.8112354736397E+01
(PID.TID 0000.0001) %MON dynstat_sst_sd               =   9.8102494396530E+00
(PID.TID 0000.0001) %MON dynstat_sst_del2             =   1.5105504714587E-02
(PID.TID 0000.0001) %MON dynstat_sss_max              =   4.1349380128737E+01
(PID.TID 0000.0001) %MON dynstat_sss_min              =   1.8751973557240E+01
(PID.TID 0000.0001) %MON dynstat_sss_mean             =   3.4625080676391E+01
(PID.TID 0000.0001) %MON dynstat_sss_sd               =   1.4806695797292E+00
(PID.TID 0000.0001) %MON dynstat_sss_del2             =   1.1623598901625E-02
(PID.TID 0000.0001) %MON forcing_qnet_max             =   2.7101325436047E+03
(PID.TID 0000.0001) %MON forcing_qnet_min             =  -2.3680939941406E+03
(PID.TID 0000.0001) %MON forcing_qnet_mean            =   3.3739709466312E+00
(PID.TID 0000.0001) %MON forcing_qnet_sd              =   2.2177593168879E+02
(PID.TID 0000.0001) %MON forcing_qnet_del2            =   4.5606123279845E+00
(PID.TID 0000.0001) %MON forcing_qsw_max              =   0.0000000000000E+00
(PID.TID 0000.0001) %MON forcing_qsw_min              =  -3.8813154305509E+02
(PID.TID 0000.0001) %MON forcing_qsw_mean             =  -5.4746130597135E+01
(PID.TID 0000.0001) %MON forcing_qsw_sd               =   9.2253494102517E+01
(PID.TID 0000.0001) %MON forcing_qsw_del2             =   8.5421185069699E-01
(PID.TID 0000.0001) %MON forcing_empmr_max            =   6.3402503728867E-03
(PID.TID 0000.0001) %MON forcing_empmr_min            =  -9.1147445142269E-02
(PID.TID 0000.0001) %MON forcing_empmr_mean           =  -2.7541859550346E-04
(PID.TID 0000.0001) %MON forcing_empmr_sd             =   4.0748996380217E-03
(PID.TID 0000.0001) %MON forcing_empmr_del2           =   1.6039926286104E-04
(PID.TID 0000.0001) %MON forcing_fu_max               =   3.8857653670956E-01
(PID.TID 0000.0001) %MON forcing_fu_min               =  -3.5017232138947E-01
(PID.TID 0000.0001) %MON forcing_fu_mean              =  -2.1075338627644E-03
(PID.TID 0000.0001) %MON forcing_fu_sd                =   6.1449041417487E-02
(PID.TID 0000.0001) %MON forcing_fu_del2              =   6.1291921954254E-04
(PID.TID 0000.0001) %MON forcing_fv_max               =   3.2287018048355E-01
(PID.TID 0000.0001) %MON forcing_fv_min               =  -2.8913645449122E-01
(PID.TID 0000.0001) %MON forcing_fv_mean              =  -1.5489626979555E-02
(PID.TID 0000.0001) %MON forcing_fv_sd                =   6.1272948794301E-02
(PID.TID 0000.0001) %MON forcing_fv_del2              =   5.2791062287201E-04
(PID.TID 0000.0001) %MON trAdv_CFL_u_max              =   1.8900545140449E-03
(PID.TID 0000.0001) %MON trAdv_CFL_v_max              =   2.0998596421484E-03
(PID.TID 0000.0001) %MON trAdv_CFL_w_max              =   1.7650616226554E-03
(PID.TID 0000.0001) %MON advcfl_uvel_max              =   1.8885863711614E-03
(PID.TID 0000.0001) %MON advcfl_vvel_max              =   2.0736392761401E-03
(PID.TID 0000.0001) %MON advcfl_wvel_max              =   3.1703459179920E-03
(PID.TID 0000.0001) %MON advcfl_W_hf_max              =   1.7650616226554E-03
(PID.TID 0000.0001) %MON pe_b_mean                    =   5.0368745462500E-04
(PID.TID 0000.0001) %MON ke_max                       =   2.1413784049147E-01
(PID.TID 0000.0001) %MON ke_mean                      =   1.6369699915062E-04
(PID.TID 0000.0001) %MON ke_vol                       =   1.3398123291723E+18
(PID.TID 0000.0001) %MON vort_r_min                   =  -4.0359656057747E-06
(PID.TID 0000.0001) %MON vort_r_max                   =   2.6645919020943E-06
(PID.TID 0000.0001) %MON vort_a_mean                  =  -2.0549865324846E-05
(PID.TID 0000.0001) %MON vort_a_sd                    =   7.5259703663254E-05
(PID.TID 0000.0001) %MON vort_p_mean                  =  -2.4783288599351E-05
(PID.TID 0000.0001) %MON vort_p_sd                    =   1.2811906111614E-04
(PID.TID 0000.0001) %MON surfExpan_theta_mean         =  -7.1382189563550E-06
(PID.TID 0000.0001) %MON surfExpan_salt_mean          =   1.2612497809101E-06
(PID.TID 0000.0001) // =======================================================
(PID.TID 0000.0001) // End MONITOR dynamic field statistics
(PID.TID 0000.0001) // =======================================================
 Computing Diagnostic #     81  oceTAUX      Counter:       1   Parms: UU      U1      
           Vector  Mate for  oceTAUX      Diagnostic #     82  oceTAUY  exists 
 Computing Diagnostic #     82  oceTAUY      Counter:       1   Parms: VV      U1      
           Vector  Mate for  oceTAUY      Diagnostic #     81  oceTAUX  exists 
 Computing Diagnostic #     85  oceFWflx     Counter:       1   Parms: SM      U1      
 Computing Diagnostic #     86  oceSflux     Counter:       1   Parms: SM      U1      
 Computing Diagnostic #     87  oceQnet      Counter:       1   Parms: SM      U1      
 Computing Diagnostic #     88  oceQsw       Counter:       1   Parms: SM      U1      
 Computing Diagnostic #     27  SALT         Counter:       1   Parms: SMR     MR      
 Computing Diagnostic #     26  THETA        Counter:       1   Parms: SMR     MR      
 Computing Diagnostic #     45  UVELMASS     Counter:       1   Parms: UUr     MR      
           Vector  Mate for  UVELMASS     Diagnostic #     46  VVELMASS exists 
 Computing Diagnostic #     46  VVELMASS     Counter:       1   Parms: VVr     MR      
           Vector  Mate for  VVELMASS     Diagnostic #     45  UVELMASS exists 
 cg2d: Sum(rhs),rhsMax =  -4.28702508759346E+01  5.57136694905980E+01
(PID.TID 0000.0001)      cg2d_init_res =   2.62015011070024E-01
(PID.TID 0000.0001)      cg2d_iters(min,last) =      -1      11
(PID.TID 0000.0001)      cg2d_last_res =   2.55459980243666E-08
(PID.TID 0000.0001) // =======================================================
(PID.TID 0000.0001) // Begin MONITOR dynamic field statistics
(PID.TID 0000.0001) // =======================================================
(PID.TID 0000.0001) %MON time_tsnumber                =                 72056
(PID.TID 0000.0001) %MON time_secondsf                =   6.4850400000000E+07
(PID.TID 0000.0001) %MON dynstat_eta_max              =   2.4818496054223E+00
(PID.TID 0000.0001) %MON dynstat_eta_min              =  -1.5909431757429E+00
(PID.TID 0000.0001) %MON dynstat_eta_mean             =   2.7753576804196E-02
(PID.TID 0000.0001) %MON dynstat_eta_sd               =   6.1372898162980E-01
(PID.TID 0000.0001) %MON dynstat_eta_del2             =   1.9464174982208E-03
(PID.TID 0000.0001) %MON dynstat_uvel_max             =   5.6066870250331E-01
(PID.TID 0000.0001) %MON dynstat_uvel_min             =  -6.7092308355854E-01
(PID.TID 0000.0001) %MON dynstat_uvel_mean            =  -4.3693464607215E-04
(PID.TID 0000.0001) %MON dynstat_uvel_sd              =   1.2760174628426E-02
(PID.TID 0000.0001) %MON dynstat_uvel_del2            =   9.6147333427766E-05
(PID.TID 0000.0001) %MON dynstat_vvel_max             =   6.6799769512374E-01
(PID.TID 0000.0001) %MON dynstat_vvel_min             =  -6.1401799483848E-01
(PID.TID 0000.0001) %MON dynstat_vvel_mean            =   4.5875106561465E-04
(PID.TID 0000.0001) %MON dynstat_vvel_sd              =   1.3875674392767E-02
(PID.TID 0000.0001) %MON dynstat_vvel_del2            =   9.3533507303029E-05
(PID.TID 0000.0001) %MON dynstat_wvel_max             =   1.3293774419029E-04
(PID.TID 0000.0001) %MON dynstat_wvel_min             =  -5.9002764559022E-04
(PID.TID 0000.0001) %MON dynstat_wvel_mean            =  -3.5181128845738E-07
(PID.TID 0000.0001) %MON dynstat_wvel_sd              =   8.5405995552580E-06
(PID.TID 0000.0001) %MON dynstat_wvel_del2            =   8.9981880013298E-08
(PID.TID 0000.0001) %MON dynstat_theta_max            =   3.0938371116482E+01
(PID.TID 0000.0001) %MON dynstat_theta_min            =  -3.0056720587594E+00
(PID.TID 0000.0001) %MON dynstat_theta_mean           =   3.9092161017363E+00
(PID.TID 0000.0001) %MON dynstat_theta_sd             =   4.5716341653546E+00
(PID.TID 0000.0001) %MON dynstat_theta_del2           =   2.6444811450319E-03
(PID.TID 0000.0001) %MON dynstat_salt_max             =   4.1349125688580E+01
(PID.TID 0000.0001) %MON dynstat_salt_min             =   1.8518938926796E+01
(PID.TID 0000.0001) %MON dynstat_salt_mean            =   3.4771959462361E+01
(PID.TID 0000.0001) %MON dynstat_salt_sd              =   5.3189491461246E-01
(PID.TID 0000.0001) %MON dynstat_salt_del2            =   1.0497428715048E-03
(PID.TID 0000.0001) %MON dynstat_sst_max              =   3.0938371116482E+01
(PID.TID 0000.0001) %MON dynstat_sst_min              =  -1.8972762294399E+00
(PID.TID 0000.0001) %MON dynstat_sst_mean             =   1.8112323879282E+01
(PID.TID 0000.0001) %MON dynstat_sst_sd               =   9.8103182377337E+00
(PID.TID 0000.0001) %MON dynstat_sst_del2             =   1.5102684355595E-02
(PID.TID 0000.0001) %MON dynstat_sss_max              =   4.1349125688580E+01
(PID.TID 0000.0001) %MON dynstat_sss_min              =   1.8751991543911E+01
(PID.TID 0000.0001) %MON dynstat_sss_mean             =   3.4624893939502E+01
(PID.TID 0000.0001) %MON dynstat_sss_sd               =   1.4810463443949E+00
(PID.TID 0000.0001) %MON dynstat_sss_del2             =   1.1678664618305E-02
(PID.TID 0000.0001) %MON forcing_qnet_max             =   3.5236770470963E+04
(PID.TID 0000.0001) %MON forcing_qnet_min             =  -3.1989746093750E+03
(PID.TID 0000.0001) %MON forcing_qnet_mean            =   9.9600763732874E+00
(PID.TID 0000.0001) %MON forcing_qnet_sd              =   5.8293380970624E+02
(PID.TID 0000.0001) %MON forcing_qnet_del2            =   2.0069239767029E+01
(PID.TID 0000.0001) %MON forcing_qsw_max              =   0.0000000000000E+00
(PID.TID 0000.0001) %MON forcing_qsw_min              =  -3.9205238873524E+02
(PID.TID 0000.0001) %MON forcing_qsw_mean             =  -5.5034674198655E+01
(PID.TID 0000.0001) %MON forcing_qsw_sd               =   9.2714743678943E+01
(PID.TID 0000.0001) %MON forcing_qsw_del2             =   8.5637086013305E-01
(PID.TID 0000.0001) %MON forcing_empmr_max            =   6.2749106436968E-03
(PID.TID 0000.0001) %MON forcing_empmr_min            =  -6.1067861318588E-01
(PID.TID 0000.0001) %MON forcing_empmr_mean           =  -4.0515388102506E-04
(PID.TID 0000.0001) %MON forcing_empmr_sd             =   1.0148523520085E-02
(PID.TID 0000.0001) %MON forcing_empmr_del2           =   3.7290954213130E-04
(PID.TID 0000.0001) %MON forcing_fu_max               =   3.8937644213343E-01
(PID.TID 0000.0001) %MON forcing_fu_min               =  -3.4580226474331E-01
(PID.TID 0000.0001) %MON forcing_fu_mean              =  -2.0777984118772E-03
(PID.TID 0000.0001) %MON forcing_fu_sd                =   6.1445744015971E-02
(PID.TID 0000.0001) %MON forcing_fu_del2              =   6.1281480841902E-04
(PID.TID 0000.0001) %MON forcing_fv_max               =   3.2042241440141E-01
(PID.TID 0000.0001) %MON forcing_fv_min               =  -2.8806854127964E-01
(PID.TID 0000.0001) %MON forcing_fv_mean              =  -1.5481303087110E-02
(PID.TID 0000.0001) %MON forcing_fv_sd                =   6.1172412383941E-02
(PID.TID 0000.0001) %MON forcing_fv_del2              =   5.2743791910454E-04
(PID.TID 0000.0001) %MON trAdv_CFL_u_max              =   1.9516327549242E-03
(PID.TID 0000.0001) %MON trAdv_CFL_v_max              =   2.2110149055706E-03
(PID.TID 0000.0001) %MON trAdv_CFL_w_max              =   9.9070544352871E-03
(PID.TID 0000.0001) %MON advcfl_uvel_max              =   1.9497086227032E-03
(PID.TID 0000.0001) %MON advcfl_vvel_max              =   2.1799201448715E-03
(PID.TID 0000.0001) %MON advcfl_wvel_max              =   2.1240995241248E-02
(PID.TID 0000.0001) %MON advcfl_W_hf_max              =   9.9070544352871E-03
(PID.TID 0000.0001) %MON pe_b_mean                    =   5.0280746014934E-04
(PID.TID 0000.0001) %MON ke_max                       =   2.2211992257376E-01
(PID.TID 0000.0001) %MON ke_mean                      =   1.6431164867279E-04
(PID.TID 0000.0001) %MON ke_vol                       =   1.3398124163212E+18
(PID.TID 0000.0001) %MON vort_r_min                   =  -4.1560341234779E-06
(PID.TID 0000.0001) %MON vort_r_max                   =   2.6692267785653E-06
(PID.TID 0000.0001) %MON vort_a_mean                  =  -2.0549865324846E-05
(PID.TID 0000.0001) %MON vort_a_sd                    =   7.5259711010535E-05
(PID.TID 0000.0001) %MON vort_p_mean                  =  -2.4783286527695E-05
(PID.TID 0000.0001) %MON vort_p_sd                    =   1.2811905788721E-04
(PID.TID 0000.0001) %MON surfExpan_theta_mean         =  -8.4952082148675E-06
(PID.TID 0000.0001) %MON surfExpan_salt_mean          =   1.1713593375744E-06
(PID.TID 0000.0001) // =======================================================
(PID.TID 0000.0001) // End MONITOR dynamic field statistics
(PID.TID 0000.0001) // =======================================================
 cg2d: Sum(rhs),rhsMax =  -4.57157735748362E+01  5.27196928649462E+01
(PID.TID 0000.0001)      cg2d_init_res =   2.11505571059474E-01
(PID.TID 0000.0001)      cg2d_iters(min,last) =      -1      10
(PID.TID 0000.0001)      cg2d_last_res =   8.38800374202414E-08
(PID.TID 0000.0001) // =======================================================
(PID.TID 0000.0001) // Begin MONITOR dynamic field statistics
(PID.TID 0000.0001) // =======================================================
(PID.TID 0000.0001) %MON time_tsnumber                =                 72057
(PID.TID 0000.0001) %MON time_secondsf                =   6.4851300000000E+07
(PID.TID 0000.0001) %MON dynstat_eta_max              =   2.3486955601518E+00
(PID.TID 0000.0001) %MON dynstat_eta_min              =  -1.5898145961319E+00
(PID.TID 0000.0001) %MON dynstat_eta_mean             =   2.8005292805998E-02
(PID.TID 0000.0001) %MON dynstat_eta_sd               =   6.1325594259300E-01
(PID.TID 0000.0001) %MON dynstat_eta_del2             =   1.8275784319048E-03
(PID.TID 0000.0001) %MON dynstat_uvel_max             =   6.1264949332584E-01
(PID.TID 0000.0001) %MON dynstat_uvel_min             =  -6.9161942642821E-01
(PID.TID 0000.0001) %MON dynstat_uvel_mean            =  -4.1811008384511E-04
(PID.TID 0000.0001) %MON dynstat_uvel_sd              =   1.2797438352827E-02
(PID.TID 0000.0001) %MON dynstat_uvel_del2            =   9.6763860578908E-05
(PID.TID 0000.0001) %MON dynstat_vvel_max             =   6.8821549444604E-01
(PID.TID 0000.0001) %MON dynstat_vvel_min             =  -6.2726438931460E-01
(PID.TID 0000.0001) %MON dynstat_vvel_mean            =   4.8233281594823E-04
(PID.TID 0000.0001) %MON dynstat_vvel_sd              =   1.3886985277806E-02
(PID.TID 0000.0001) %MON dynstat_vvel_del2            =   9.5645787499916E-05
(PID.TID 0000.0001) %MON dynstat_wvel_max             =   1.2914960629158E-04
(PID.TID 0000.0001) %MON dynstat_wvel_min             =  -1.7963621177320E-04
(PID.TID 0000.0001) %MON dynstat_wvel_mean            =  -3.4269234740657E-07
(PID.TID 0000.0001) %MON dynstat_wvel_sd              =   8.0542838154068E-06
(PID.TID 0000.0001) %MON dynstat_wvel_del2            =   7.7465298780220E-08
(PID.TID 0000.0001) %MON dynstat_theta_max            =   3.0938187048602E+01
(PID.TID 0000.0001) %MON dynstat_theta_min            =  -3.0059040962431E+00
(PID.TID 0000.0001) %MON dynstat_theta_mean           =   3.9092176946682E+00
(PID.TID 0000.0001) %MON dynstat_theta_sd             =   4.5716387104006E+00
(PID.TID 0000.0001) %MON dynstat_theta_del2           =   2.6443362375093E-03
(PID.TID 0000.0001) %MON dynstat_salt_max             =   4.1348888925247E+01
(PID.TID 0000.0001) %MON dynstat_salt_min             =   1.8518949142316E+01
(PID.TID 0000.0001) %MON dynstat_salt_mean            =   3.4771957068034E+01
(PID.TID 0000.0001) %MON dynstat_salt_sd              =   5.3191007694085E-01
(PID.TID 0000.0001) %MON dynstat_salt_del2            =   1.0535546535497E-03
(PID.TID 0000.0001) %MON dynstat_sst_max              =   3.0938187048602E+01
(PID.TID 0000.0001) %MON dynstat_sst_min              =  -1.8973942163607E+00
(PID.TID 0000.0001) %MON dynstat_sst_mean             =   1.8112331676867E+01
(PID.TID 0000.0001) %MON dynstat_sst_sd               =   9.8103851839220E+00
(PID.TID 0000.0001) %MON dynstat_sst_del2             =   1.5099970316573E-02
(PID.TID 0000.0001) %MON dynstat_sss_max              =   4.1348888925247E+01
(PID.TID 0000.0001) %MON dynstat_sss_min              =   1.8752009011962E+01
(PID.TID 0000.0001) %MON dynstat_sss_mean             =   3.4624719863716E+01
(PID.TID 0000.0001) %MON dynstat_sss_sd               =   1.4814305941240E+00
(PID.TID 0000.0001) %MON dynstat_sss_del2             =   1.1732748080590E-02
(PID.TID 0000.0001) %MON forcing_qnet_max             =   6.2664814754352E+03
(PID.TID 0000.0001) %MON forcing_qnet_min             =  -3.2166403808594E+03
(PID.TID 0000.0001) %MON forcing_qnet_mean            =   5.9095013970558E-01
(PID.TID 0000.0001) %MON forcing_qnet_sd              =   2.4005467134308E+02
(PID.TID 0000.0001) %MON forcing_qnet_del2            =   5.5432176605553E+00
(PID.TID 0000.0001) %MON forcing_qsw_max              =   0.0000000000000E+00
(PID.TID 0000.0001) %MON forcing_qsw_min              =  -3.9619509670147E+02
(PID.TID 0000.0001) %MON forcing_qsw_mean             =  -5.5987222172761E+01
(PID.TID 0000.0001) %MON forcing_qsw_sd               =   9.4706263195408E+01
(PID.TID 0000.0001) %MON forcing_qsw_del2             =   8.7460226969226E-01
(PID.TID 0000.0001) %MON forcing_empmr_max            =   6.2102596275508E-03
(PID.TID 0000.0001) %MON forcing_empmr_min            =  -1.2822599709034E-01
(PID.TID 0000.0001) %MON forcing_empmr_mean           =  -2.8947340207248E-04
(PID.TID 0000.0001) %MON forcing_empmr_sd             =   4.3907971852825E-03
(PID.TID 0000.0001) %MON forcing_empmr_del2           =   1.7058943048630E-04
(PID.TID 0000.0001) %MON forcing_fu_max               =   3.8961782627916E-01
(PID.TID 0000.0001) %MON forcing_fu_min               =  -3.4426626201305E-01
(PID.TID 0000.0001) %MON forcing_fu_mean              =  -2.0987198963309E-03
(PID.TID 0000.0001) %MON forcing_fu_sd                =   6.1511703105771E-02
(PID.TID 0000.0001) %MON forcing_fu_del2              =   6.1412513717422E-04
(PID.TID 0000.0001) %MON forcing_fv_max               =   3.2163253318436E-01
(PID.TID 0000.0001) %MON forcing_fv_min               =  -2.8632702368427E-01
(PID.TID 0000.0001) %MON forcing_fv_mean              =  -1.5482696588657E-02
(PID.TID 0000.0001) %MON forcing_fv_sd                =   6.1021910491825E-02
(PID.TID 0000.0001) %MON forcing_fv_del2              =   5.2689500522838E-04
(PID.TID 0000.0001) %MON trAdv_CFL_u_max              =   2.0123983319991E-03
(PID.TID 0000.0001) %MON trAdv_CFL_v_max              =   2.2818904069203E-03
(PID.TID 0000.0001) %MON trAdv_CFL_w_max              =   1.8406733961991E-03
(PID.TID 0000.0001) %MON advcfl_uvel_max              =   2.0430430880497E-03
(PID.TID 0000.0001) %MON advcfl_vvel_max              =   2.2458981989117E-03
(PID.TID 0000.0001) %MON advcfl_wvel_max              =   4.4600346814031E-03
(PID.TID 0000.0001) %MON advcfl_W_hf_max              =   1.8406733961991E-03
(PID.TID 0000.0001) %MON pe_b_mean                    =   5.0205289974053E-04
(PID.TID 0000.0001) %MON ke_max                       =   2.2974117935332E-01
(PID.TID 0000.0001) %MON ke_mean                      =   1.6489780202220E-04
(PID.TID 0000.0001) %MON ke_vol                       =   1.3398125445213E+18
(PID.TID 0000.0001) %MON vort_r_min                   =  -4.2658774409851E-06
(PID.TID 0000.0001) %MON vort_r_max                   =   2.6655355494274E-06
(PID.TID 0000.0001) %MON vort_a_mean                  =  -2.0549865324846E-05
(PID.TID 0000.0001) %MON vort_a_sd                    =   7.5259717679679E-05
(PID.TID 0000.0001) %MON vort_p_mean                  =  -2.4783283801408E-05
(PID.TID 0000.0001) %MON vort_p_sd                    =   1.2811904239002E-04
(PID.TID 0000.0001) %MON surfExpan_theta_mean         =  -7.4818956559149E-06
(PID.TID 0000.0001) %MON surfExpan_salt_mean          =   1.2675481300749E-06
(PID.TID 0000.0001) // =======================================================
(PID.TID 0000.0001) // End MONITOR dynamic field statistics
(PID.TID 0000.0001) // =======================================================
 cg2d: Sum(rhs),rhsMax =  -4.90897622581731E+01  4.94905337930225E+01
(PID.TID 0000.0001)      cg2d_init_res =   2.45590994619301E-01
(PID.TID 0000.0001)      cg2d_iters(min,last) =      -1      10
(PID.TID 0000.0001)      cg2d_last_res =   8.48830913470198E-08
(PID.TID 0000.0001) // =======================================================
(PID.TID 0000.0001) // Begin MONITOR dynamic field statistics
(PID.TID 0000.0001) // =======================================================
(PID.TID 0000.0001) %MON time_tsnumber                =                 72058
(PID.TID 0000.0001) %MON time_secondsf                =   6.4852200000000E+07
(PID.TID 0000.0001) %MON dynstat_eta_max              =   2.2050832825082E+00
(PID.TID 0000.0001) %MON dynstat_eta_min              =  -1.5886845150480E+00
(PID.TID 0000.0001) %MON dynstat_eta_mean             =   2.8230218533125E-02
(PID.TID 0000.0001) %MON dynstat_eta_sd               =   6.1284565014078E-01
(PID.TID 0000.0001) %MON dynstat_eta_del2             =   1.7108431604101E-03
(PID.TID 0000.0001) %MON dynstat_uvel_max             =   6.5317376211589E-01
(PID.TID 0000.0001) %MON dynstat_uvel_min             =  -7.1171511260377E-01
(PID.TID 0000.0001) %MON dynstat_uvel_mean            =  -3.9913508381435E-04
(PID.TID 0000.0001) %MON dynstat_uvel_sd              =   1.2837063526714E-02
(PID.TID 0000.0001) %MON dynstat_uvel_del2            =   9.7182205548853E-05
(PID.TID 0000.0001) %MON dynstat_vvel_max             =   6.9630614042204E-01
(PID.TID 0000.0001) %MON dynstat_vvel_min             =  -6.3752714749227E-01
(PID.TID 0000.0001) %MON dynstat_vvel_mean            =   5.0234903701449E-04
(PID.TID 0000.0001) %MON dynstat_vvel_sd              =   1.3889848732227E-02
(PID.TID 0000.0001) %MON dynstat_vvel_del2            =   9.7490009634103E-05
(PID.TID 0000.0001) %MON dynstat_wvel_max             =   1.2497648874489E-04
(PID.TID 0000.0001) %MON dynstat_wvel_min             =  -1.7962871695830E-04
(PID.TID 0000.0001) %MON dynstat_wvel_mean            =  -3.4064398650363E-07
(PID.TID 0000.0001) %MON dynstat_wvel_sd              =   8.0319187630544E-06
(PID.TID 0000.0001) %MON dynstat_wvel_del2            =   7.6530487509307E-08
(PID.TID 0000.0001) %MON dynstat_theta_max            =   3.0937999150166E+01
(PID.TID 0000.0001) %MON dynstat_theta_min            =  -3.0061300967585E+00
(PID.TID 0000.0001) %MON dynstat_theta_mean           =   3.9092193925900E+00
(PID.TID 0000.0001) %MON dynstat_theta_sd             =   4.5716437890275E+00
(PID.TID 0000.0001) %MON dynstat_theta_del2           =   2.6441447205318E-03
(PID.TID 0000.0001) %MON dynstat_salt_max             =   4.1348670339510E+01
(PID.TID 0000.0001) %MON dynstat_salt_min             =   1.8518959351037E+01
(PID.TID 0000.0001) %MON dynstat_salt_mean            =   3.4771954723498E+01
(PID.TID 0000.0001) %MON dynstat_salt_sd              =   5.3192508163173E-01
(PID.TID 0000.0001) %MON dynstat_salt_del2            =   1.0572947693818E-03
(PID.TID 0000.0001) %MON dynstat_sst_max              =   3.0937999150166E+01
(PID.TID 0000.0001) %MON dynstat_sst_min              =  -1.8975224475141E+00
(PID.TID 0000.0001) %MON dynstat_sst_mean             =   1.8112355440261E+01
(PID.TID 0000.0001) %MON dynstat_sst_sd               =   9.8104462238646E+00
(PID.TID 0000.0001) %MON dynstat_sst_del2             =   1.5096003997748E-02
(PID.TID 0000.0001) %MON dynstat_sss_max              =   4.1348670339510E+01
(PID.TID 0000.0001) %MON dynstat_sss_min              =   1.8752026034434E+01
(PID.TID 0000.0001) %MON dynstat_sss_mean             =   3.4624550069355E+01
(PID.TID 0000.0001) %MON dynstat_sss_sd               =   1.4818117474959E+00
(PID.TID 0000.0001) %MON dynstat_sss_del2             =   1.1785768453573E-02
(PID.TID 0000.0001) %MON forcing_qnet_max             =   1.9969094238281E+03
(PID.TID 0000.0001) %MON forcing_qnet_min             =  -7.7307924804688E+03
(PID.TID 0000.0001) %MON forcing_qnet_mean            =  -3.4095697751418E+00
(PID.TID 0000.0001) %MON forcing_qnet_sd              =   2.4488471728271E+02
(PID.TID 0000.0001) %MON forcing_qnet_del2            =   6.8493301024725E+00
(PID.TID 0000.0001) %MON forcing_qsw_max              =   0.0000000000000E+00
(PID.TID 0000.0001) %MON forcing_qsw_min              =  -3.9723286387133E+02
(PID.TID 0000.0001) %MON forcing_qsw_mean             =  -5.6512878127230E+01
(PID.TID 0000.0001) %MON forcing_qsw_sd               =   9.6000350696681E+01
(PID.TID 0000.0001) %MON forcing_qsw_del2             =   8.8189883561449E-01
(PID.TID 0000.0001) %MON forcing_empmr_max            =   7.4747009202838E-03
(PID.TID 0000.0001) %MON forcing_empmr_min            =  -8.8359162211418E-02
(PID.TID 0000.0001) %MON forcing_empmr_mean           =  -2.5866458619521E-04
(PID.TID 0000.0001) %MON forcing_empmr_sd             =   3.8919740884783E-03
(PID.TID 0000.0001) %MON forcing_empmr_del2           =   1.5356725259156E-04
(PID.TID 0000.0001) %MON forcing_fu_max               =   3.8979205738375E-01
(PID.TID 0000.0001) %MON forcing_fu_min               =  -3.5665290877759E-01
(PID.TID 0000.0001) %MON forcing_fu_mean              =  -2.1011576895379E-03
(PID.TID 0000.0001) %MON forcing_fu_sd                =   6.1684832672619E-02
(PID.TID 0000.0001) %MON forcing_fu_del2              =   6.1525663656314E-04
(PID.TID 0000.0001) %MON forcing_fv_max               =   3.2024097455139E-01
(PID.TID 0000.0001) %MON forcing_fv_min               =  -2.8377924518612E-01
(PID.TID 0000.0001) %MON forcing_fv_mean              =  -1.5511033565361E-02
(PID.TID 0000.0001) %MON forcing_fv_sd                =   6.1049237561273E-02
(PID.TID 0000.0001) %MON forcing_fv_del2              =   5.3046593935784E-04
(PID.TID 0000.0001) %MON trAdv_CFL_u_max              =   2.1245194760294E-03
(PID.TID 0000.0001) %MON trAdv_CFL_v_max              =   2.3129613869035E-03
(PID.TID 0000.0001) %MON trAdv_CFL_w_max              =   1.7570185181663E-03
(PID.TID 0000.0001) %MON advcfl_uvel_max              =   2.1781820674363E-03
(PID.TID 0000.0001) %MON advcfl_vvel_max              =   2.2723009279583E-03
(PID.TID 0000.0001) %MON advcfl_wvel_max              =   3.0733621638754E-03
(PID.TID 0000.0001) %MON advcfl_W_hf_max              =   1.7570185181663E-03
(PID.TID 0000.0001) %MON pe_b_mean                    =   5.0139955175490E-04
(PID.TID 0000.0001) %MON ke_max                       =   2.3692558497938E-01
(PID.TID 0000.0001) %MON ke_mean                      =   1.6540340279229E-04
(PID.TID 0000.0001) %MON ke_vol                       =   1.3398126361174E+18
(PID.TID 0000.0001) %MON vort_r_min                   =  -4.3641526162500E-06
(PID.TID 0000.0001) %MON vort_r_max                   =   2.7294333467397E-06
(PID.TID 0000.0001) %MON vort_a_mean                  =  -2.0549865324846E-05
(PID.TID 0000.0001) %MON vort_a_sd                    =   7.5259723586763E-05
(PID.TID 0000.0001) %MON vort_p_mean                  =  -2.4783281599769E-05
(PID.TID 0000.0001) %MON vort_p_sd                    =   1.2811904772289E-04
(PID.TID 0000.0001) %MON surfExpan_theta_mean         =  -7.2317439971051E-06
(PID.TID 0000.0001) %MON surfExpan_salt_mean          =   1.2984307083894E-06
(PID.TID 0000.0001) // =======================================================
(PID.TID 0000.0001) // End MONITOR dynamic field statistics
(PID.TID 0000.0001) // =======================================================
 cg2d: Sum(rhs),rhsMax =  -5.31623866820623E+01  4.60570968077640E+01
(PID.TID 0000.0001)      cg2d_init_res =   2.60490795048537E-01
(PID.TID 0000.0001)      cg2d_iters(min,last) =      -1      10
(PID.TID 0000.0001)      cg2d_last_res =   8.12092428476108E-08
(PID.TID 0000.0001) // =======================================================
(PID.TID 0000.0001) // Begin MONITOR dynamic field statistics
(PID.TID 0000.0001) // =======================================================
(PID.TID 0000.0001) %MON time_tsnumber                =                 72059
(PID.TID 0000.0001) %MON time_secondsf                =   6.4853100000000E+07
(PID.TID 0000.0001) %MON dynstat_eta_max              =   2.0523836761422E+00
(PID.TID 0000.0001) %MON dynstat_eta_min              =  -1.5874927042389E+00
(PID.TID 0000.0001) %MON dynstat_eta_mean             =   2.8451305707197E-02
(PID.TID 0000.0001) %MON dynstat_eta_sd               =   6.1250450114861E-01
(PID.TID 0000.0001) %MON dynstat_eta_del2             =   1.6090964452815E-03
(PID.TID 0000.0001) %MON dynstat_uvel_max             =   6.8193026077339E-01
(PID.TID 0000.0001) %MON dynstat_uvel_min             =  -7.3092823966719E-01
(PID.TID 0000.0001) %MON dynstat_uvel_mean            =  -3.8060587526027E-04
(PID.TID 0000.0001) %MON dynstat_uvel_sd              =   1.2877267315652E-02
(PID.TID 0000.0001) %MON dynstat_uvel_del2            =   9.7395146564575E-05
(PID.TID 0000.0001) %MON dynstat_vvel_max             =   6.9269380350143E-01
(PID.TID 0000.0001) %MON dynstat_vvel_min             =  -6.4467894140700E-01
(PID.TID 0000.0001) %MON dynstat_vvel_mean            =   5.1865136925570E-04
(PID.TID 0000.0001) %MON dynstat_vvel_sd              =   1.3884345129479E-02
(PID.TID 0000.0001) %MON dynstat_vvel_del2            =   9.8954567049979E-05
(PID.TID 0000.0001) %MON dynstat_wvel_max             =   1.2035026514033E-04
(PID.TID 0000.0001) %MON dynstat_wvel_min             =  -1.7964612508305E-04
(PID.TID 0000.0001) %MON dynstat_wvel_mean            =  -3.3590093431780E-07
(PID.TID 0000.0001) %MON dynstat_wvel_sd              =   8.0107317247878E-06
(PID.TID 0000.0001) %MON dynstat_wvel_del2            =   7.5917306313127E-08
(PID.TID 0000.0001) %MON dynstat_theta_max            =   3.0937806235535E+01
(PID.TID 0000.0001) %MON dynstat_theta_min            =  -3.0063467971381E+00
(PID.TID 0000.0001) %MON dynstat_theta_mean           =   3.9092211031840E+00
(PID.TID 0000.0001) %MON dynstat_theta_sd             =   4.5716489929920E+00
(PID.TID 0000.0001) %MON dynstat_theta_del2           =   2.6439821619141E-03
(PID.TID 0000.0001) %MON dynstat_salt_max             =   4.1348469948266E+01
(PID.TID 0000.0001) %MON dynstat_salt_min             =   1.8518969553050E+01
(PID.TID 0000.0001) %MON dynstat_salt_mean            =   3.4771952415987E+01
(PID.TID 0000.0001) %MON dynstat_salt_sd              =   5.3193988743136E-01
(PID.TID 0000.0001) %MON dynstat_salt_del2            =   1.0609722685364E-03
(PID.TID 0000.0001) %MON dynstat_sst_max              =   3.0937806235535E+01
(PID.TID 0000.0001) %MON dynstat_sst_min              =  -1.8976589648623E+00
(PID.TID 0000.0001) %MON dynstat_sst_mean             =   1.8112379705114E+01
(PID.TID 0000.0001) %MON dynstat_sst_sd               =   9.8105064003373E+00
(PID.TID 0000.0001) %MON dynstat_sst_del2             =   1.5092692878406E-02
(PID.TID 0000.0001) %MON dynstat_sss_max              =   4.1348469948266E+01
(PID.TID 0000.0001) %MON dynstat_sss_min              =   1.8752042651280E+01
(PID.TID 0000.0001) %MON dynstat_sss_mean             =   3.4624381787715E+01
(PID.TID 0000.0001) %MON dynstat_sss_sd               =   1.4821880092174E+00
(PID.TID 0000.0001) %MON dynstat_sss_del2             =   1.1837832496332E-02
(PID.TID 0000.0001) %MON forcing_qnet_max             =   1.9733496093750E+03
(PID.TID 0000.0001) %MON forcing_qnet_min             =  -6.6551181640625E+03
(PID.TID 0000.0001) %MON forcing_qnet_mean            =  -4.3823597000741E+00
(PID.TID 0000.0001) %MON forcing_qnet_sd              =   2.3986234164087E+02
(PID.TID 0000.0001) %MON forcing_qnet_del2            =   6.1984791558096E+00
(PID.TID 0000.0001) %MON forcing_qsw_max              =   0.0000000000000E+00
(PID.TID 0000.0001) %MON forcing_qsw_min              =  -3.9650651581808E+02
(PID.TID 0000.0001) %MON forcing_qsw_mean             =  -5.6870672687843E+01
(PID.TID 0000.0001) %MON forcing_qsw_sd               =   9.7252768088330E+01
(PID.TID 0000.0001) %MON forcing_qsw_del2             =   8.8859668599482E-01
(PID.TID 0000.0001) %MON forcing_empmr_max            =   6.0829250141978E-03
(PID.TID 0000.0001) %MON forcing_empmr_min            =  -8.7448745965958E-02
(PID.TID 0000.0001) %MON forcing_empmr_mean           =  -2.5425025018382E-04
(PID.TID 0000.0001) %MON forcing_empmr_sd             =   3.8497627190359E-03
(PID.TID 0000.0001) %MON forcing_empmr_del2           =   1.5191642963124E-04
(PID.TID 0000.0001) %MON forcing_fu_max               =   3.9099991345360E-01
(PID.TID 0000.0001) %MON forcing_fu_min               =  -3.6191898529024E-01
(PID.TID 0000.0001) %MON forcing_fu_mean              =  -2.1142960895207E-03
(PID.TID 0000.0001) %MON forcing_fu_sd                =   6.1754588103849E-02
(PID.TID 0000.0001) %MON forcing_fu_del2              =   6.1591257404342E-04
(PID.TID 0000.0001) %MON forcing_fv_max               =   3.2021837937528E-01
(PID.TID 0000.0001) %MON forcing_fv_min               =  -2.8084751168348E-01
(PID.TID 0000.0001) %MON forcing_fv_mean              =  -1.5563225675914E-02
(PID.TID 0000.0001) %MON forcing_fv_sd                =   6.1059447158391E-02
(PID.TID 0000.0001) %MON forcing_fv_del2              =   5.3221779217089E-04
(PID.TID 0000.0001) %MON trAdv_CFL_u_max              =   2.2224264942877E-03
(PID.TID 0000.0001) %MON trAdv_CFL_v_max              =   2.3053455583694E-03
(PID.TID 0000.0001) %MON trAdv_CFL_w_max              =   1.7812166789343E-03
(PID.TID 0000.0001) %MON advcfl_uvel_max              =   2.2740782796404E-03
(PID.TID 0000.0001) %MON advcfl_vvel_max              =   2.2605125549134E-03
(PID.TID 0000.0001) %MON advcfl_wvel_max              =   3.0416955118594E-03
(PID.TID 0000.0001) %MON advcfl_W_hf_max              =   1.7812166789343E-03
(PID.TID 0000.0001) %MON pe_b_mean                    =   5.0085933044520E-04
(PID.TID 0000.0001) %MON ke_max                       =   2.4355897995346E-01
(PID.TID 0000.0001) %MON ke_mean                      =   1.6580852809589E-04
(PID.TID 0000.0001) %MON ke_vol                       =   1.3398127179649E+18
(PID.TID 0000.0001) %MON vort_r_min                   =  -4.4495346883493E-06
(PID.TID 0000.0001) %MON vort_r_max                   =   2.8495793086109E-06
(PID.TID 0000.0001) %MON vort_a_mean                  =  -2.0549865324846E-05
(PID.TID 0000.0001) %MON vort_a_sd                    =   7.5259728684765E-05
(PID.TID 0000.0001) %MON vort_p_mean                  =  -2.4783279538408E-05
(PID.TID 0000.0001) %MON vort_p_sd                    =   1.2811906337689E-04
(PID.TID 0000.0001) %MON surfExpan_theta_mean         =  -7.1708553954739E-06
(PID.TID 0000.0001) %MON surfExpan_salt_mean          =   1.3065677866396E-06
(PID.TID 0000.0001) // =======================================================
(PID.TID 0000.0001) // End MONITOR dynamic field statistics
(PID.TID 0000.0001) // =======================================================
 Computing Diagnostic #     81  oceTAUX      Counter:       1   Parms: UU      U1      
           Vector  Mate for  oceTAUX      Diagnostic #     82  oceTAUY  exists 
 Computing Diagnostic #     82  oceTAUY      Counter:       1   Parms: VV      U1      
           Vector  Mate for  oceTAUY      Diagnostic #     81  oceTAUX  exists 
 Computing Diagnostic #     85  oceFWflx     Counter:       1   Parms: SM      U1      
 Computing Diagnostic #     86  oceSflux     Counter:       1   Parms: SM      U1      
 Computing Diagnostic #     87  oceQnet      Counter:       1   Parms: SM      U1      
 Computing Diagnostic #     88  oceQsw       Counter:       1   Parms: SM      U1      
 Computing Diagnostic #     27  SALT         Counter:       1   Parms: SMR     MR      
 Computing Diagnostic #     26  THETA        Counter:       1   Parms: SMR     MR      
 Computing Diagnostic #     45  UVELMASS     Counter:       1   Parms: UUr     MR      
           Vector  Mate for  UVELMASS     Diagnostic #     46  VVELMASS exists 
 Computing Diagnostic #     46  VVELMASS     Counter:       1   Parms: VVr     MR      
           Vector  Mate for  VVELMASS     Diagnostic #     45  UVELMASS exists 
 cg2d: Sum(rhs),rhsMax =  -5.81219964444407E+01  4.24522266750712E+01
(PID.TID 0000.0001)      cg2d_init_res =   2.74039536488884E-01
(PID.TID 0000.0001)      cg2d_iters(min,last) =      -1      10
(PID.TID 0000.0001)      cg2d_last_res =   7.84989475638939E-08
(PID.TID 0000.0001) // =======================================================
(PID.TID 0000.0001) // Begin MONITOR dynamic field statistics
(PID.TID 0000.0001) // =======================================================
(PID.TID 0000.0001) %MON time_tsnumber                =                 72060
(PID.TID 0000.0001) %MON time_secondsf                =   6.4854000000000E+07
(PID.TID 0000.0001) %MON dynstat_eta_max              =   1.8920543287165E+00
(PID.TID 0000.0001) %MON dynstat_eta_min              =  -1.5861838325554E+00
(PID.TID 0000.0001) %MON dynstat_eta_mean             =   2.8670955804642E-02
(PID.TID 0000.0001) %MON dynstat_eta_sd               =   6.1222925084994E-01
(PID.TID 0000.0001) %MON dynstat_eta_del2             =   1.5236440369850E-03
(PID.TID 0000.0001) %MON dynstat_uvel_max             =   6.9885320885027E-01
(PID.TID 0000.0001) %MON dynstat_uvel_min             =  -7.4896549696341E-01
(PID.TID 0000.0001) %MON dynstat_uvel_mean            =  -3.6304622227285E-04
(PID.TID 0000.0001) %MON dynstat_uvel_sd              =   1.2916888139113E-02
(PID.TID 0000.0001) %MON dynstat_uvel_del2            =   9.7414774984458E-05
(PID.TID 0000.0001) %MON dynstat_vvel_max             =   6.7798358619293E-01
(PID.TID 0000.0001) %MON dynstat_vvel_min             =  -6.4861704700971E-01
(PID.TID 0000.0001) %MON dynstat_vvel_mean            =   5.3117304592745E-04
(PID.TID 0000.0001) %MON dynstat_vvel_sd              =   1.3871408408308E-02
(PID.TID 0000.0001) %MON dynstat_vvel_del2            =   9.9965623899882E-05
(PID.TID 0000.0001) %MON dynstat_wvel_max             =   1.1530075884012E-04
(PID.TID 0000.0001) %MON dynstat_wvel_min             =  -1.7969408053212E-04
(PID.TID 0000.0001) %MON dynstat_wvel_mean            =  -3.2651835328698E-07
(PID.TID 0000.0001) %MON dynstat_wvel_sd              =   7.9785220478103E-06
(PID.TID 0000.0001) %MON dynstat_wvel_del2            =   7.5194806589016E-08
(PID.TID 0000.0001) %MON dynstat_theta_max            =   3.0937609445167E+01
(PID.TID 0000.0001) %MON dynstat_theta_min            =  -3.0065526030947E+00
(PID.TID 0000.0001) %MON dynstat_theta_mean           =   3.9092227619747E+00
(PID.TID 0000.0001) %MON dynstat_theta_sd             =   4.5716542254859E+00
(PID.TID 0000.0001) %MON dynstat_theta_del2           =   2.6438731300169E-03
(PID.TID 0000.0001) %MON dynstat_salt_max             =   4.1348287588640E+01
(PID.TID 0000.0001) %MON dynstat_salt_min             =   1.8518979747911E+01
(PID.TID 0000.0001) %MON dynstat_salt_mean            =   3.4771950130015E+01
(PID.TID 0000.0001) %MON dynstat_salt_sd              =   5.3195452617012E-01
(PID.TID 0000.0001) %MON dynstat_salt_del2            =   1.0645842747205E-03
(PID.TID 0000.0001) %MON dynstat_sst_max              =   3.0937609445167E+01
(PID.TID 0000.0001) %MON dynstat_sst_min              =  -1.8978016599679E+00
(PID.TID 0000.0001) %MON dynstat_sst_mean             =   1.8112401719250E+01
(PID.TID 0000.0001) %MON dynstat_sst_sd               =   9.8105727061246E+00
(PID.TID 0000.0001) %MON dynstat_sst_del2             =   1.5091011152311E-02
(PID.TID 0000.0001) %MON dynstat_sss_max              =   4.1348287588640E+01
(PID.TID 0000.0001) %MON dynstat_sss_min              =   1.8752058774096E+01
(PID.TID 0000.0001) %MON dynstat_sss_mean             =   3.4624214989347E+01
(PID.TID 0000.0001) %MON dynstat_sss_sd               =   1.4825607020644E+00
(PID.TID 0000.0001) %MON dynstat_sss_del2             =   1.1888948472853E-02
(PID.TID 0000.0001) %MON forcing_qnet_max             =   1.9500765380859E+03
(PID.TID 0000.0001) %MON forcing_qnet_min             =  -1.1760563964844E+03
(PID.TID 0000.0001) %MON forcing_qnet_mean            =  -3.8600031613092E+00
(PID.TID 0000.0001) %MON forcing_qnet_sd              =   2.2190384261776E+02
(PID.TID 0000.0001) %MON forcing_qnet_del2            =   3.8256743745156E+00
(PID.TID 0000.0001) %MON forcing_qsw_max              =   0.0000000000000E+00
(PID.TID 0000.0001) %MON forcing_qsw_min              =  -3.9401913471329E+02
(PID.TID 0000.0001) %MON forcing_qsw_mean             =  -5.7081658642981E+01
(PID.TID 0000.0001) %MON forcing_qsw_sd               =   9.8434195963527E+01
(PID.TID 0000.0001) %MON forcing_qsw_del2             =   8.9466963392450E-01
(PID.TID 0000.0001) %MON forcing_empmr_max            =   6.0202418826520E-03
(PID.TID 0000.0001) %MON forcing_empmr_min            =  -8.6547575891018E-02
(PID.TID 0000.0001) %MON forcing_empmr_mean           =  -2.5259761206116E-04
(PID.TID 0000.0001) %MON forcing_empmr_sd             =   3.8102031950510E-03
(PID.TID 0000.0001) %MON forcing_empmr_del2           =   1.5035360561624E-04
(PID.TID 0000.0001) %MON forcing_fu_max               =   3.8876433574284E-01
(PID.TID 0000.0001) %MON forcing_fu_min               =  -3.6807273960681E-01
(PID.TID 0000.0001) %MON forcing_fu_mean              =  -2.1495931139666E-03
(PID.TID 0000.0001) %MON forcing_fu_sd                =   6.1711396015044E-02
(PID.TID 0000.0001) %MON forcing_fu_del2              =   6.1549604492403E-04
(PID.TID 0000.0001) %MON forcing_fv_max               =   3.2313647331429E-01
(PID.TID 0000.0001) %MON forcing_fv_min               =  -2.7800087291941E-01
(PID.TID 0000.0001) %MON forcing_fv_mean              =  -1.5545081703060E-02
(PID.TID 0000.0001) %MON forcing_fv_sd                =   6.1030784631301E-02
(PID.TID 0000.0001) %MON forcing_fv_del2              =   5.3303152156343E-04
(PID.TID 0000.0001) %MON trAdv_CFL_u_max              =   2.2821803066575E-03
(PID.TID 0000.0001) %MON trAdv_CFL_v_max              =   2.2607579972539E-03
(PID.TID 0000.0001) %MON trAdv_CFL_w_max              =   1.8007286944925E-03
(PID.TID 0000.0001) %MON advcfl_uvel_max              =   2.3305123622187E-03
(PID.TID 0000.0001) %MON advcfl_vvel_max              =   2.2125077499862E-03
(PID.TID 0000.0001) %MON advcfl_wvel_max              =   3.0103504657745E-03
(PID.TID 0000.0001) %MON advcfl_W_hf_max              =   1.8007286944925E-03
(PID.TID 0000.0001) %MON pe_b_mean                    =   5.0042692792148E-04
(PID.TID 0000.0001) %MON ke_max                       =   2.4949171003626E-01
(PID.TID 0000.0001) %MON ke_mean                      =   1.6611155709870E-04
(PID.TID 0000.0001) %MON ke_vol                       =   1.3398127984156E+18
(PID.TID 0000.0001) %MON vort_r_min                   =  -4.5207410173955E-06
(PID.TID 0000.0001) %MON vort_r_max                   =   2.9307424830064E-06
(PID.TID 0000.0001) %MON vort_a_mean                  =  -2.0549865324846E-05
(PID.TID 0000.0001) %MON vort_a_sd                    =   7.5259732938016E-05
(PID.TID 0000.0001) %MON vort_p_mean                  =  -2.4783277513881E-05
(PID.TID 0000.0001) %MON vort_p_sd                    =   1.2811908534361E-04
(PID.TID 0000.0001) %MON surfExpan_theta_mean         =  -7.1169956721531E-06
(PID.TID 0000.0001) %MON surfExpan_salt_mean          =   1.3120840033814E-06
(PID.TID 0000.0001) // =======================================================
(PID.TID 0000.0001) // End MONITOR dynamic field statistics
(PID.TID 0000.0001) // =======================================================
 cg2d: Sum(rhs),rhsMax =  -6.42234587397148E+01  3.87102943412313E+01
(PID.TID 0000.0001)      cg2d_init_res =   2.91907313783593E-01
(PID.TID 0000.0001)      cg2d_iters(min,last) =      -1      10
(PID.TID 0000.0001)      cg2d_last_res =   7.83987227955981E-08
(PID.TID 0000.0001) // =======================================================
(PID.TID 0000.0001) // Begin MONITOR dynamic field statistics
(PID.TID 0000.0001) // =======================================================
(PID.TID 0000.0001) %MON time_tsnumber                =                 72061
(PID.TID 0000.0001) %MON time_secondsf                =   6.4854900000000E+07
(PID.TID 0000.0001) %MON dynstat_eta_max              =   1.7256211699537E+00
(PID.TID 0000.0001) %MON dynstat_eta_min              =  -1.5847210861131E+00
(PID.TID 0000.0001) %MON dynstat_eta_mean             =   2.8888256895219E-02
(PID.TID 0000.0001) %MON dynstat_eta_sd               =   6.1201226647034E-01
(PID.TID 0000.0001) %MON dynstat_eta_del2             =   1.4552183434929E-03
(PID.TID 0000.0001) %MON dynstat_uvel_max             =   7.0411340130757E-01
(PID.TID 0000.0001) %MON dynstat_uvel_min             =  -7.6552876070334E-01
(PID.TID 0000.0001) %MON dynstat_uvel_mean            =  -3.4688971654681E-04
(PID.TID 0000.0001) %MON dynstat_uvel_sd              =   1.2954936394417E-02
(PID.TID 0000.0001) %MON dynstat_uvel_del2            =   9.7255734060583E-05
(PID.TID 0000.0001) %MON dynstat_vvel_max             =   6.5293776457345E-01
(PID.TID 0000.0001) %MON dynstat_vvel_min             =  -6.4926382905015E-01
(PID.TID 0000.0001) %MON dynstat_vvel_mean            =   5.3987784203200E-04
(PID.TID 0000.0001) %MON dynstat_vvel_sd              =   1.3852344786325E-02
(PID.TID 0000.0001) %MON dynstat_vvel_del2            =   1.0047772775426E-04
(PID.TID 0000.0001) %MON dynstat_wvel_max             =   1.1415743925179E-04
(PID.TID 0000.0001) %MON dynstat_wvel_min             =  -1.7976313237185E-04
(PID.TID 0000.0001) %MON dynstat_wvel_mean            =  -3.1202658675574E-07
(PID.TID 0000.0001) %MON dynstat_wvel_sd              =   7.9427623300447E-06
(PID.TID 0000.0001) %MON dynstat_wvel_del2            =   7.4428165970042E-08
(PID.TID 0000.0001) %MON dynstat_theta_max            =   3.0937407530447E+01
(PID.TID 0000.0001) %MON dynstat_theta_min            =  -3.0067474792756E+00
(PID.TID 0000.0001) %MON dynstat_theta_mean           =   3.9092246096520E+00
(PID.TID 0000.0001) %MON dynstat_theta_sd             =   4.5716599627215E+00
(PID.TID 0000.0001) %MON dynstat_theta_del2           =   2.6437754306036E-03
(PID.TID 0000.0001) %MON dynstat_salt_max             =   4.1348122933203E+01
(PID.TID 0000.0001) %MON dynstat_salt_min             =   1.8518989934388E+01
(PID.TID 0000.0001) %MON dynstat_salt_mean            =   3.4771947903931E+01
(PID.TID 0000.0001) %MON dynstat_salt_sd              =   5.3196900555103E-01
(PID.TID 0000.0001) %MON dynstat_salt_del2            =   1.0681353575700E-03
(PID.TID 0000.0001) %MON dynstat_sst_max              =   3.0937407530447E+01
(PID.TID 0000.0001) %MON dynstat_sst_min              =  -1.8979483092262E+00
(PID.TID 0000.0001) %MON dynstat_sst_mean             =   1.8112438175401E+01
(PID.TID 0000.0001) %MON dynstat_sst_sd               =   9.8106355729470E+00
(PID.TID 0000.0001) %MON dynstat_sst_del2             =   1.5089672550024E-02
(PID.TID 0000.0001) %MON dynstat_sss_max              =   4.1348122933203E+01
(PID.TID 0000.0001) %MON dynstat_sss_min              =   1.8752074497676E+01
(PID.TID 0000.0001) %MON dynstat_sss_mean             =   3.4624052017852E+01
(PID.TID 0000.0001) %MON dynstat_sss_sd               =   1.4829300767606E+00
(PID.TID 0000.0001) %MON dynstat_sss_del2             =   1.1939165842427E-02
(PID.TID 0000.0001) %MON forcing_qnet_max             =   1.9270865478516E+03
(PID.TID 0000.0001) %MON forcing_qnet_min             =  -6.6184072265625E+03
(PID.TID 0000.0001) %MON forcing_qnet_mean            =  -7.5382353377498E+00
(PID.TID 0000.0001) %MON forcing_qnet_sd              =   2.4956150729686E+02
(PID.TID 0000.0001) %MON forcing_qnet_del2            =   6.5172631353323E+00
(PID.TID 0000.0001) %MON forcing_qsw_max              =   0.0000000000000E+00
(PID.TID 0000.0001) %MON forcing_qsw_min              =  -4.0013610827576E+02
(PID.TID 0000.0001) %MON forcing_qsw_mean             =  -5.7934439920838E+01
(PID.TID 0000.0001) %MON forcing_qsw_sd               =   1.0165559743922E+02
(PID.TID 0000.0001) %MON forcing_qsw_del2             =   9.0950991808986E-01
(PID.TID 0000.0001) %MON forcing_empmr_max            =   5.9582474641502E-03
(PID.TID 0000.0001) %MON forcing_empmr_min            =  -8.5656464099884E-02
(PID.TID 0000.0001) %MON forcing_empmr_mean           =  -2.4989625416353E-04
(PID.TID 0000.0001) %MON forcing_empmr_sd             =   3.7714424157813E-03
(PID.TID 0000.0001) %MON forcing_empmr_del2           =   1.4880926131871E-04
(PID.TID 0000.0001) %MON forcing_fu_max               =   3.8744229905155E-01
(PID.TID 0000.0001) %MON forcing_fu_min               =  -3.7206335306786E-01
(PID.TID 0000.0001) %MON forcing_fu_mean              =  -2.1458119748182E-03
(PID.TID 0000.0001) %MON forcing_fu_sd                =   6.1648364582749E-02
(PID.TID 0000.0001) %MON forcing_fu_del2              =   6.1491161698126E-04
(PID.TID 0000.0001) %MON forcing_fv_max               =   3.2453387643480E-01
(PID.TID 0000.0001) %MON forcing_fv_min               =  -2.7542527784071E-01
(PID.TID 0000.0001) %MON forcing_fv_mean              =  -1.5550310241932E-02
(PID.TID 0000.0001) %MON forcing_fv_sd                =   6.0946939236581E-02
(PID.TID 0000.0001) %MON forcing_fv_del2              =   5.3334804243769E-04
(PID.TID 0000.0001) %MON trAdv_CFL_u_max              =   2.3040278918916E-03
(PID.TID 0000.0001) %MON trAdv_CFL_v_max              =   2.1814529431389E-03
(PID.TID 0000.0001) %MON trAdv_CFL_w_max              =   1.8153732577078E-03
(PID.TID 0000.0001) %MON advcfl_uvel_max              =   2.3480538765083E-03
(PID.TID 0000.0001) %MON advcfl_vvel_max              =   2.1307740980713E-03
(PID.TID 0000.0001) %MON advcfl_wvel_max              =   2.9793552730394E-03
(PID.TID 0000.0001) %MON advcfl_W_hf_max              =   1.8153732577078E-03
(PID.TID 0000.0001) %MON pe_b_mean                    =   5.0008967995208E-04
(PID.TID 0000.0001) %MON ke_max                       =   2.5454481373666E-01
(PID.TID 0000.0001) %MON ke_mean                      =   1.6631764687362E-04
(PID.TID 0000.0001) %MON ke_vol                       =   1.3398128783433E+18
(PID.TID 0000.0001) %MON vort_r_min                   =  -4.5765542410666E-06
(PID.TID 0000.0001) %MON vort_r_max                   =   2.9733874879709E-06
(PID.TID 0000.0001) %MON vort_a_mean                  =  -2.0549865324846E-05
(PID.TID 0000.0001) %MON vort_a_sd                    =   7.5259736330686E-05
(PID.TID 0000.0001) %MON vort_p_mean                  =  -2.4783275529369E-05
(PID.TID 0000.0001) %MON vort_p_sd                    =   1.2811911219361E-04
(PID.TID 0000.0001) %MON surfExpan_theta_mean         =  -7.0177269181873E-06
(PID.TID 0000.0001) %MON surfExpan_salt_mean          =   1.3156817220758E-06
(PID.TID 0000.0001) // =======================================================
(PID.TID 0000.0001) // End MONITOR dynamic field statistics
(PID.TID 0000.0001) // =======================================================
 cg2d: Sum(rhs),rhsMax =  -6.83070023192921E+01  3.66677230119183E+01
(PID.TID 0000.0001)      cg2d_init_res =   3.00970987024742E-01
(PID.TID 0000.0001)      cg2d_iters(min,last) =      -1      10
(PID.TID 0000.0001)      cg2d_last_res =   8.03933565238034E-08
(PID.TID 0000.0001) // =======================================================
(PID.TID 0000.0001) // Begin MONITOR dynamic field statistics
(PID.TID 0000.0001) // =======================================================
(PID.TID 0000.0001) %MON time_tsnumber                =                 72062
(PID.TID 0000.0001) %MON time_secondsf                =   6.4855800000000E+07
(PID.TID 0000.0001) %MON dynstat_eta_max              =   1.5546595389756E+00
(PID.TID 0000.0001) %MON dynstat_eta_min              =  -1.5830830869574E+00
(PID.TID 0000.0001) %MON dynstat_eta_mean             =   2.9103843193537E-02
(PID.TID 0000.0001) %MON dynstat_eta_sd               =   6.1184740430703E-01
(PID.TID 0000.0001) %MON dynstat_eta_del2             =   1.4059212178172E-03
(PID.TID 0000.0001) %MON dynstat_uvel_max             =   6.9810339727403E-01
(PID.TID 0000.0001) %MON dynstat_uvel_min             =  -7.8032222635179E-01
(PID.TID 0000.0001) %MON dynstat_uvel_mean            =  -3.3248153559034E-04
(PID.TID 0000.0001) %MON dynstat_uvel_sd              =   1.2990380937414E-02
(PID.TID 0000.0001) %MON dynstat_uvel_del2            =   9.6929326679872E-05
(PID.TID 0000.0001) %MON dynstat_vvel_max             =   6.1845080468562E-01
(PID.TID 0000.0001) %MON dynstat_vvel_min             =  -6.4656737041391E-01
(PID.TID 0000.0001) %MON dynstat_vvel_mean            =   5.4482507047871E-04
(PID.TID 0000.0001) %MON dynstat_vvel_sd              =   1.3828603722903E-02
(PID.TID 0000.0001) %MON dynstat_vvel_del2            =   1.0047234313589E-04
(PID.TID 0000.0001) %MON dynstat_wvel_max             =   1.1285627496679E-04
(PID.TID 0000.0001) %MON dynstat_wvel_min             =  -1.7985594249936E-04
(PID.TID 0000.0001) %MON dynstat_wvel_mean            =  -2.9467677645674E-07
(PID.TID 0000.0001) %MON dynstat_wvel_sd              =   7.9078594062670E-06
(PID.TID 0000.0001) %MON dynstat_wvel_del2            =   7.3642095643249E-08
(PID.TID 0000.0001) %MON dynstat_theta_max            =   3.0937201604555E+01
(PID.TID 0000.0001) %MON dynstat_theta_min            =  -3.0069328862216E+00
(PID.TID 0000.0001) %MON dynstat_theta_mean           =   3.9092264520698E+00
(PID.TID 0000.0001) %MON dynstat_theta_sd             =   4.5716656606574E+00
(PID.TID 0000.0001) %MON dynstat_theta_del2           =   2.6436662975314E-03
(PID.TID 0000.0001) %MON dynstat_salt_max             =   4.1347975216533E+01
(PID.TID 0000.0001) %MON dynstat_salt_min             =   1.8519000111357E+01
(PID.TID 0000.0001) %MON dynstat_salt_mean            =   3.4771945695464E+01
(PID.TID 0000.0001) %MON dynstat_salt_sd              =   5.3198323430717E-01
(PID.TID 0000.0001) %MON dynstat_salt_del2            =   1.0716137157095E-03
(PID.TID 0000.0001) %MON dynstat_sst_max              =   3.0937201604555E+01
(PID.TID 0000.0001) %MON dynstat_sst_min              =  -1.8980966118125E+00
(PID.TID 0000.0001) %MON dynstat_sst_mean             =   1.8112474091321E+01
(PID.TID 0000.0001) %MON dynstat_sst_sd               =   9.8106977382225E+00
(PID.TID 0000.0001) %MON dynstat_sst_del2             =   1.5088011812725E-02
(PID.TID 0000.0001) %MON dynstat_sss_max              =   4.1347975216533E+01
(PID.TID 0000.0001) %MON dynstat_sss_min              =   1.8752089892469E+01
(PID.TID 0000.0001) %MON dynstat_sss_mean             =   3.4623889676156E+01
(PID.TID 0000.0001) %MON dynstat_sss_sd               =   1.4832933146421E+00
(PID.TID 0000.0001) %MON dynstat_sss_del2             =   1.1988316642946E-02
(PID.TID 0000.0001) %MON forcing_qnet_max             =   1.9043763427734E+03
(PID.TID 0000.0001) %MON forcing_qnet_min             =  -1.3464466552734E+03
(PID.TID 0000.0001) %MON forcing_qnet_mean            =  -7.7450875044071E+00
(PID.TID 0000.0001) %MON forcing_qnet_sd              =   2.2940487582063E+02
(PID.TID 0000.0001) %MON forcing_qnet_del2            =   3.9221749599721E+00
(PID.TID 0000.0001) %MON forcing_qsw_max              =   0.0000000000000E+00
(PID.TID 0000.0001) %MON forcing_qsw_min              =  -4.0859052667004E+02
(PID.TID 0000.0001) %MON forcing_qsw_mean             =  -5.8431165052952E+01
(PID.TID 0000.0001) %MON forcing_qsw_sd               =   1.0311681671009E+02
(PID.TID 0000.0001) %MON forcing_qsw_del2             =   9.1986344822851E-01
(PID.TID 0000.0001) %MON forcing_empmr_max            =   5.8968435041606E-03
(PID.TID 0000.0001) %MON forcing_empmr_min            =  -8.4773749113083E-02
(PID.TID 0000.0001) %MON forcing_empmr_mean           =  -2.4792424306559E-04
(PID.TID 0000.0001) %MON forcing_empmr_sd             =   3.7326908275361E-03
(PID.TID 0000.0001) %MON forcing_empmr_del2           =   1.4727195941731E-04
(PID.TID 0000.0001) %MON forcing_fu_max               =   3.8891121919580E-01
(PID.TID 0000.0001) %MON forcing_fu_min               =  -3.7800801808458E-01
(PID.TID 0000.0001) %MON forcing_fu_mean              =  -2.1442009615169E-03
(PID.TID 0000.0001) %MON forcing_fu_sd                =   6.1644068864069E-02
(PID.TID 0000.0001) %MON forcing_fu_del2              =   6.1463938533059E-04
(PID.TID 0000.0001) %MON forcing_fv_max               =   3.2089296002600E-01
(PID.TID 0000.0001) %MON forcing_fv_min               =  -2.7270727568683E-01
(PID.TID 0000.0001) %MON forcing_fv_mean              =  -1.5595180215371E-02
(PID.TID 0000.0001) %MON forcing_fv_sd                =   6.0789809717859E-02
(PID.TID 0000.0001) %MON forcing_fv_del2              =   5.3327872779854E-04
(PID.TID 0000.0001) %MON trAdv_CFL_u_max              =   2.2889394831404E-03
(PID.TID 0000.0001) %MON trAdv_CFL_v_max              =   2.0934299810827E-03
(PID.TID 0000.0001) %MON trAdv_CFL_w_max              =   1.8250146244231E-03
(PID.TID 0000.0001) %MON advcfl_uvel_max              =   2.3280119155932E-03
(PID.TID 0000.0001) %MON advcfl_vvel_max              =   2.0182305681405E-03
(PID.TID 0000.0001) %MON advcfl_wvel_max              =   2.9486521430638E-03
(PID.TID 0000.0001) %MON advcfl_W_hf_max              =   1.8250146244231E-03
(PID.TID 0000.0001) %MON pe_b_mean                    =   4.9983751532732E-04
(PID.TID 0000.0001) %MON ke_max                       =   2.5851982823999E-01
(PID.TID 0000.0001) %MON ke_mean                      =   1.6643323068553E-04
(PID.TID 0000.0001) %MON ke_vol                       =   1.3398129574163E+18
(PID.TID 0000.0001) %MON vort_r_min                   =  -4.6158474397223E-06
(PID.TID 0000.0001) %MON vort_r_max                   =   2.9784526459037E-06
(PID.TID 0000.0001) %MON vort_a_mean                  =  -2.0549865324846E-05
(PID.TID 0000.0001) %MON vort_a_sd                    =   7.5259738860726E-05
(PID.TID 0000.0001) %MON vort_p_mean                  =  -2.4783273604744E-05
(PID.TID 0000.0001) %MON vort_p_sd                    =   1.2811914226749E-04
(PID.TID 0000.0001) %MON surfExpan_theta_mean         =  -6.9131637015872E-06
(PID.TID 0000.0001) %MON surfExpan_salt_mean          =   1.3170943130589E-06
(PID.TID 0000.0001) // =======================================================
(PID.TID 0000.0001) // End MONITOR dynamic field statistics
(PID.TID 0000.0001) // =======================================================
 cg2d: Sum(rhs),rhsMax =  -6.88879207104390E+01  3.66244500124603E+01
(PID.TID 0000.0001)      cg2d_init_res =   2.94896642748025E-01
(PID.TID 0000.0001)      cg2d_iters(min,last) =      -1      10
(PID.TID 0000.0001)      cg2d_last_res =   8.25151820431519E-08
(PID.TID 0000.0001) // =======================================================
(PID.TID 0000.0001) // Begin MONITOR dynamic field statistics
(PID.TID 0000.0001) // =======================================================
(PID.TID 0000.0001) %MON time_tsnumber                =                 72063
(PID.TID 0000.0001) %MON time_secondsf                =   6.4856700000000E+07
(PID.TID 0000.0001) %MON dynstat_eta_max              =   1.3807749648636E+00
(PID.TID 0000.0001) %MON dynstat_eta_min              =  -1.5812733771165E+00
(PID.TID 0000.0001) %MON dynstat_eta_mean             =   2.9316718789561E-02
(PID.TID 0000.0001) %MON dynstat_eta_sd               =   6.1172945976304E-01
(PID.TID 0000.0001) %MON dynstat_eta_del2             =   1.3782025133288E-03
(PID.TID 0000.0001) %MON dynstat_uvel_max             =   6.8141752645693E-01
(PID.TID 0000.0001) %MON dynstat_uvel_min             =  -7.9305858121602E-01
(PID.TID 0000.0001) %MON dynstat_uvel_mean            =  -3.2005383799418E-04
(PID.TID 0000.0001) %MON dynstat_uvel_sd              =   1.3022098667657E-02
(PID.TID 0000.0001) %MON dynstat_uvel_del2            =   9.6446290187965E-05
(PID.TID 0000.0001) %MON dynstat_vvel_max             =   5.7552314743566E-01
(PID.TID 0000.0001) %MON dynstat_vvel_min             =  -6.4050181341299E-01
(PID.TID 0000.0001) %MON dynstat_vvel_mean            =   5.4618764350200E-04
(PID.TID 0000.0001) %MON dynstat_vvel_sd              =   1.3801635763198E-02
(PID.TID 0000.0001) %MON dynstat_vvel_del2            =   9.9957426318433E-05
(PID.TID 0000.0001) %MON dynstat_wvel_max             =   1.1139447920991E-04
(PID.TID 0000.0001) %MON dynstat_wvel_min             =  -1.7995014390210E-04
(PID.TID 0000.0001) %MON dynstat_wvel_mean            =  -2.7573104703194E-07
(PID.TID 0000.0001) %MON dynstat_wvel_sd              =   7.8753981301382E-06
(PID.TID 0000.0001) %MON dynstat_wvel_del2            =   7.2862728244990E-08
(PID.TID 0000.0001) %MON dynstat_theta_max            =   3.0936991566378E+01
(PID.TID 0000.0001) %MON dynstat_theta_min            =  -3.0071116213981E+00
(PID.TID 0000.0001) %MON dynstat_theta_mean           =   3.9092283744641E+00
(PID.TID 0000.0001) %MON dynstat_theta_sd             =   4.5716715758708E+00
(PID.TID 0000.0001) %MON dynstat_theta_del2           =   2.6435593309793E-03
(PID.TID 0000.0001) %MON dynstat_salt_max             =   4.1347843556215E+01
(PID.TID 0000.0001) %MON dynstat_salt_min             =   1.8519010276881E+01
(PID.TID 0000.0001) %MON dynstat_salt_mean            =   3.4771943539712E+01
(PID.TID 0000.0001) %MON dynstat_salt_sd              =   5.3199732184798E-01
(PID.TID 0000.0001) %MON dynstat_salt_del2            =   1.0750274145696E-03
(PID.TID 0000.0001) %MON dynstat_sst_max              =   3.0936991566378E+01
(PID.TID 0000.0001) %MON dynstat_sst_min              =  -1.8982442276171E+00
(PID.TID 0000.0001) %MON dynstat_sst_mean             =   1.8112515547441E+01
(PID.TID 0000.0001) %MON dynstat_sst_sd               =   9.8107591006637E+00
(PID.TID 0000.0001) %MON dynstat_sst_del2             =   1.5086403014144E-02
(PID.TID 0000.0001) %MON dynstat_sss_max              =   4.1347843556215E+01
(PID.TID 0000.0001) %MON dynstat_sss_min              =   1.8752104896335E+01
(PID.TID 0000.0001) %MON dynstat_sss_mean             =   3.4623730556971E+01
(PID.TID 0000.0001) %MON dynstat_sss_sd               =   1.4836535155546E+00
(PID.TID 0000.0001) %MON dynstat_sss_del2             =   1.2036516954246E-02
(PID.TID 0000.0001) %MON forcing_qnet_max             =   1.8829797363281E+03
(PID.TID 0000.0001) %MON forcing_qnet_min             =  -1.9692546386719E+03
(PID.TID 0000.0001) %MON forcing_qnet_mean            =  -9.3972892844186E+00
(PID.TID 0000.0001) %MON forcing_qnet_sd              =   2.3127714585998E+02
(PID.TID 0000.0001) %MON forcing_qnet_del2            =   3.9528341265515E+00
(PID.TID 0000.0001) %MON forcing_qsw_max              =   0.0000000000000E+00
(PID.TID 0000.0001) %MON forcing_qsw_min              =  -4.1540249589338E+02
(PID.TID 0000.0001) %MON forcing_qsw_mean             =  -5.8810956903383E+01
(PID.TID 0000.0001) %MON forcing_qsw_sd               =   1.0439313245991E+02
(PID.TID 0000.0001) %MON forcing_qsw_del2             =   9.2922433377547E-01
(PID.TID 0000.0001) %MON forcing_empmr_max            =   5.8360304683447E-03
(PID.TID 0000.0001) %MON forcing_empmr_min            =  -8.3901099860668E-02
(PID.TID 0000.0001) %MON forcing_empmr_mean           =  -2.4480693542844E-04
(PID.TID 0000.0001) %MON forcing_empmr_sd             =   3.6923821062352E-03
(PID.TID 0000.0001) %MON forcing_empmr_del2           =   1.4573141206127E-04
(PID.TID 0000.0001) %MON forcing_fu_max               =   3.8687907323779E-01
(PID.TID 0000.0001) %MON forcing_fu_min               =  -3.7602734910041E-01
(PID.TID 0000.0001) %MON forcing_fu_mean              =  -2.1356519484920E-03
(PID.TID 0000.0001) %MON forcing_fu_sd                =   6.1547983867386E-02
(PID.TID 0000.0001) %MON forcing_fu_del2              =   6.1371115031890E-04
(PID.TID 0000.0001) %MON forcing_fv_max               =   3.1604205986825E-01
(PID.TID 0000.0001) %MON forcing_fv_min               =  -2.7004058237054E-01
(PID.TID 0000.0001) %MON forcing_fv_mean              =  -1.5618331556785E-02
(PID.TID 0000.0001) %MON forcing_fv_sd                =   6.0627347712479E-02
(PID.TID 0000.0001) %MON forcing_fv_del2              =   5.3270843699601E-04
(PID.TID 0000.0001) %MON trAdv_CFL_u_max              =   2.3152503065080E-03
(PID.TID 0000.0001) %MON trAdv_CFL_v_max              =   2.0675847311250E-03
(PID.TID 0000.0001) %MON trAdv_CFL_w_max              =   1.8295582429109E-03
(PID.TID 0000.0001) %MON advcfl_uvel_max              =   2.3046354969701E-03
(PID.TID 0000.0001) %MON advcfl_vvel_max              =   1.8781419638019E-03
(PID.TID 0000.0001) %MON advcfl_wvel_max              =   2.9182991255885E-03
(PID.TID 0000.0001) %MON advcfl_W_hf_max              =   1.8295582429109E-03
(PID.TID 0000.0001) %MON pe_b_mean                    =   4.9966180171171E-04
(PID.TID 0000.0001) %MON ke_max                       =   2.6121078758550E-01
(PID.TID 0000.0001) %MON ke_mean                      =   1.6646353704249E-04
(PID.TID 0000.0001) %MON ke_vol                       =   1.3398130358653E+18
(PID.TID 0000.0001) %MON vort_r_min                   =  -4.6376052594148E-06
(PID.TID 0000.0001) %MON vort_r_max                   =   2.9473385529411E-06
(PID.TID 0000.0001) %MON vort_a_mean                  =  -2.0549865324846E-05
(PID.TID 0000.0001) %MON vort_a_sd                    =   7.5259740544867E-05
(PID.TID 0000.0001) %MON vort_p_mean                  =  -2.4783271744461E-05
(PID.TID 0000.0001) %MON vort_p_sd                    =   1.2811917356732E-04
(PID.TID 0000.0001) %MON surfExpan_theta_mean         =  -6.7957479942232E-06
(PID.TID 0000.0001) %MON surfExpan_salt_mean          =   1.3156955403981E-06
(PID.TID 0000.0001) // =======================================================
(PID.TID 0000.0001) // End MONITOR dynamic field statistics
(PID.TID 0000.0001) // =======================================================
 Computing Diagnostic #     81  oceTAUX      Counter:       1   Parms: UU      U1      
           Vector  Mate for  oceTAUX      Diagnostic #     82  oceTAUY  exists 
 Computing Diagnostic #     82  oceTAUY      Counter:       1   Parms: VV      U1      
           Vector  Mate for  oceTAUY      Diagnostic #     81  oceTAUX  exists 
 Computing Diagnostic #     85  oceFWflx     Counter:       1   Parms: SM      U1      
 Computing Diagnostic #     86  oceSflux     Counter:       1   Parms: SM      U1      
 Computing Diagnostic #     87  oceQnet      Counter:       1   Parms: SM      U1      
 Computing Diagnostic #     88  oceQsw       Counter:       1   Parms: SM      U1      
 Computing Diagnostic #     27  SALT         Counter:       1   Parms: SMR     MR      
 Computing Diagnostic #     26  THETA        Counter:       1   Parms: SMR     MR      
 Computing Diagnostic #     45  UVELMASS     Counter:       1   Parms: UUr     MR      
           Vector  Mate for  UVELMASS     Diagnostic #     46  VVELMASS exists 
 Computing Diagnostic #     46  VVELMASS     Counter:       1   Parms: VVr     MR      
           Vector  Mate for  VVELMASS     Diagnostic #     45  UVELMASS exists 
 cg2d: Sum(rhs),rhsMax =  -6.94701149883062E+01  3.65772315474643E+01
(PID.TID 0000.0001)      cg2d_init_res =   2.88255681727684E-01
(PID.TID 0000.0001)      cg2d_iters(min,last) =      -1      10
(PID.TID 0000.0001)      cg2d_last_res =   8.46137873119399E-08
(PID.TID 0000.0001) // =======================================================
(PID.TID 0000.0001) // Begin MONITOR dynamic field statistics
(PID.TID 0000.0001) // =======================================================
(PID.TID 0000.0001) %MON time_tsnumber                =                 72064
(PID.TID 0000.0001) %MON time_secondsf                =   6.4857600000000E+07
(PID.TID 0000.0001) %MON dynstat_eta_max              =   1.2055842072404E+00
(PID.TID 0000.0001) %MON dynstat_eta_min              =  -1.5793052443813E+00
(PID.TID 0000.0001) %MON dynstat_eta_mean             =   2.9526367610345E-02
(PID.TID 0000.0001) %MON dynstat_eta_sd               =   6.1165388316760E-01
(PID.TID 0000.0001) %MON dynstat_eta_del2             =   1.3730052843393E-03
(PID.TID 0000.0001) %MON dynstat_uvel_max             =   6.5482769683506E-01
(PID.TID 0000.0001) %MON dynstat_uvel_min             =  -8.0346568747127E-01
(PID.TID 0000.0001) %MON dynstat_uvel_mean            =  -3.0972525637701E-04
(PID.TID 0000.0001) %MON dynstat_uvel_sd              =   1.3049402953415E-02
(PID.TID 0000.0001) %MON dynstat_uvel_del2            =   9.5819168851288E-05
(PID.TID 0000.0001) %MON dynstat_vvel_max             =   5.2523602380032E-01
(PID.TID 0000.0001) %MON dynstat_vvel_min             =  -6.3106761918284E-01
(PID.TID 0000.0001) %MON dynstat_vvel_mean            =   5.4419790356531E-04
(PID.TID 0000.0001) %MON dynstat_vvel_sd              =   1.3772851302553E-02
(PID.TID 0000.0001) %MON dynstat_vvel_del2            =   9.8967451921255E-05
(PID.TID 0000.0001) %MON dynstat_wvel_max             =   1.0976910374159E-04
(PID.TID 0000.0001) %MON dynstat_wvel_min             =  -1.8006368327837E-04
(PID.TID 0000.0001) %MON dynstat_wvel_mean            =  -2.5648769123788E-07
(PID.TID 0000.0001) %MON dynstat_wvel_sd              =   7.8450945981108E-06
(PID.TID 0000.0001) %MON dynstat_wvel_del2            =   7.2104282370433E-08
(PID.TID 0000.0001) %MON dynstat_theta_max            =   3.0936776108497E+01
(PID.TID 0000.0001) %MON dynstat_theta_min            =  -3.0072875204483E+00
(PID.TID 0000.0001) %MON dynstat_theta_mean           =   3.9092302977417E+00
(PID.TID 0000.0001) %MON dynstat_theta_sd             =   4.5716774474371E+00
(PID.TID 0000.0001) %MON dynstat_theta_del2           =   2.6434509278323E-03
(PID.TID 0000.0001) %MON dynstat_salt_max             =   4.1347726885491E+01
(PID.TID 0000.0001) %MON dynstat_salt_min             =   1.8519020428846E+01
(PID.TID 0000.0001) %MON dynstat_salt_mean            =   3.4771941417309E+01
(PID.TID 0000.0001) %MON dynstat_salt_sd              =   5.3201122585316E-01
(PID.TID 0000.0001) %MON dynstat_salt_del2            =   1.0783760006581E-03
(PID.TID 0000.0001) %MON dynstat_sst_max              =   3.0936776108497E+01
(PID.TID 0000.0001) %MON dynstat_sst_min              =  -1.8983899435392E+00
(PID.TID 0000.0001) %MON dynstat_sst_mean             =   1.8112556886842E+01
(PID.TID 0000.0001) %MON dynstat_sst_sd               =   9.8108192794550E+00
(PID.TID 0000.0001) %MON dynstat_sst_del2             =   1.5084741263339E-02
(PID.TID 0000.0001) %MON dynstat_sss_max              =   4.1347726885491E+01
(PID.TID 0000.0001) %MON dynstat_sss_min              =   1.8752119537259E+01
(PID.TID 0000.0001) %MON dynstat_sss_mean             =   3.4623573249547E+01
(PID.TID 0000.0001) %MON dynstat_sss_sd               =   1.4840093665250E+00
(PID.TID 0000.0001) %MON dynstat_sss_del2             =   1.2083762339577E-02
(PID.TID 0000.0001) %MON forcing_qnet_max             =   1.8608095703125E+03
(PID.TID 0000.0001) %MON forcing_qnet_min             =  -1.1123065185547E+03
(PID.TID 0000.0001) %MON forcing_qnet_mean            =  -9.7336650031576E+00
(PID.TID 0000.0001) %MON forcing_qnet_sd              =   2.3033744097968E+02
(PID.TID 0000.0001) %MON forcing_qnet_del2            =   3.7323938092486E+00
(PID.TID 0000.0001) %MON forcing_qsw_max              =   0.0000000000000E+00
(PID.TID 0000.0001) %MON forcing_qsw_min              =  -4.2054285992261E+02
(PID.TID 0000.0001) %MON forcing_qsw_mean             =  -5.9059916857603E+01
(PID.TID 0000.0001) %MON forcing_qsw_sd               =   1.0547782766608E+02
(PID.TID 0000.0001) %MON forcing_qsw_del2             =   9.3746727053357E-01
(PID.TID 0000.0001) %MON forcing_empmr_max            =   5.7759052142501E-03
(PID.TID 0000.0001) %MON forcing_empmr_min            =  -8.3036839962006E-02
(PID.TID 0000.0001) %MON forcing_empmr_mean           =  -2.4109614390147E-04
(PID.TID 0000.0001) %MON forcing_empmr_sd             =   3.6533733074720E-03
(PID.TID 0000.0001) %MON forcing_empmr_del2           =   1.4421486683724E-04
(PID.TID 0000.0001) %MON forcing_fu_max               =   3.8425436666886E-01
(PID.TID 0000.0001) %MON forcing_fu_min               =  -3.7469945942496E-01
(PID.TID 0000.0001) %MON forcing_fu_mean              =  -2.0866803087531E-03
(PID.TID 0000.0001) %MON forcing_fu_sd                =   6.1583115264111E-02
(PID.TID 0000.0001) %MON forcing_fu_del2              =   6.1223822943324E-04
(PID.TID 0000.0001) %MON forcing_fv_max               =   3.1503310592810E-01
(PID.TID 0000.0001) %MON forcing_fv_min               =  -2.6745164837429E-01
(PID.TID 0000.0001) %MON forcing_fv_mean              =  -1.5623616397204E-02
(PID.TID 0000.0001) %MON forcing_fv_sd                =   6.0532447055608E-02
(PID.TID 0000.0001) %MON forcing_fv_del2              =   5.3249658252995E-04
(PID.TID 0000.0001) %MON trAdv_CFL_u_max              =   2.3475540670900E-03
(PID.TID 0000.0001) %MON trAdv_CFL_v_max              =   2.0021626501894E-03
(PID.TID 0000.0001) %MON trAdv_CFL_w_max              =   1.8289297976688E-03
(PID.TID 0000.0001) %MON advcfl_uvel_max              =   2.3348786430184E-03
(PID.TID 0000.0001) %MON advcfl_vvel_max              =   1.8450563324786E-03
(PID.TID 0000.0001) %MON advcfl_wvel_max              =   2.8882379117219E-03
(PID.TID 0000.0001) %MON advcfl_W_hf_max              =   1.8289297976688E-03
(PID.TID 0000.0001) %MON pe_b_mean                    =   4.9955503534472E-04
(PID.TID 0000.0001) %MON ke_max                       =   2.6241830206200E-01
(PID.TID 0000.0001) %MON ke_mean                      =   1.6641834419713E-04
(PID.TID 0000.0001) %MON ke_vol                       =   1.3398131133279E+18
(PID.TID 0000.0001) %MON vort_r_min                   =  -4.6409464266165E-06
(PID.TID 0000.0001) %MON vort_r_max                   =   2.8818748150207E-06
(PID.TID 0000.0001) %MON vort_a_mean                  =  -2.0549865324846E-05
(PID.TID 0000.0001) %MON vort_a_sd                    =   7.5259741417615E-05
(PID.TID 0000.0001) %MON vort_p_mean                  =  -2.4783269954070E-05
(PID.TID 0000.0001) %MON vort_p_sd                    =   1.2811920418312E-04
(PID.TID 0000.0001) %MON surfExpan_theta_mean         =  -6.6753286985787E-06
(PID.TID 0000.0001) %MON surfExpan_salt_mean          =   1.3115542749752E-06
(PID.TID 0000.0001) // =======================================================
(PID.TID 0000.0001) // End MONITOR dynamic field statistics
(PID.TID 0000.0001) // =======================================================
 cg2d: Sum(rhs),rhsMax =  -7.00530174060944E+01  3.65272645383213E+01
(PID.TID 0000.0001)      cg2d_init_res =   2.80146805614426E-01
(PID.TID 0000.0001)      cg2d_iters(min,last) =      -1      10
(PID.TID 0000.0001)      cg2d_last_res =   8.35225006563807E-08
(PID.TID 0000.0001) // =======================================================
(PID.TID 0000.0001) // Begin MONITOR dynamic field statistics
(PID.TID 0000.0001) // =======================================================
(PID.TID 0000.0001) %MON time_tsnumber                =                 72065
(PID.TID 0000.0001) %MON time_secondsf                =   6.4858500000000E+07
(PID.TID 0000.0001) %MON dynstat_eta_max              =   1.0471559632719E+00
(PID.TID 0000.0001) %MON dynstat_eta_min              =  -1.5772218179228E+00
(PID.TID 0000.0001) %MON dynstat_eta_mean             =   2.9733440816741E-02
(PID.TID 0000.0001) %MON dynstat_eta_sd               =   6.1161807856081E-01
(PID.TID 0000.0001) %MON dynstat_eta_del2             =   1.3886435509616E-03
(PID.TID 0000.0001) %MON dynstat_uvel_max             =   6.1925612948012E-01
(PID.TID 0000.0001) %MON dynstat_uvel_min             =  -8.1129257510175E-01
(PID.TID 0000.0001) %MON dynstat_uvel_mean            =  -3.0156235718359E-04
(PID.TID 0000.0001) %MON dynstat_uvel_sd              =   1.3071644051332E-02
(PID.TID 0000.0001) %MON dynstat_uvel_del2            =   9.5065584482268E-05
(PID.TID 0000.0001) %MON dynstat_vvel_max             =   4.6872762168451E-01
(PID.TID 0000.0001) %MON dynstat_vvel_min             =  -6.1829164165259E-01
(PID.TID 0000.0001) %MON dynstat_vvel_mean            =   5.3911746636168E-04
(PID.TID 0000.0001) %MON dynstat_vvel_sd              =   1.3743508827480E-02
(PID.TID 0000.0001) %MON dynstat_vvel_del2            =   9.7561739232913E-05
(PID.TID 0000.0001) %MON dynstat_wvel_max             =   1.0797844008872E-04
(PID.TID 0000.0001) %MON dynstat_wvel_min             =  -1.8017134408461E-04
(PID.TID 0000.0001) %MON dynstat_wvel_mean            =  -2.3770505638989E-07
(PID.TID 0000.0001) %MON dynstat_wvel_sd              =   7.8166094024443E-06
(PID.TID 0000.0001) %MON dynstat_wvel_del2            =   7.1380501671661E-08
(PID.TID 0000.0001) %MON dynstat_theta_max            =   3.0936556286092E+01
(PID.TID 0000.0001) %MON dynstat_theta_min            =  -3.0074651265252E+00
(PID.TID 0000.0001) %MON dynstat_theta_mean           =   3.9092323385724E+00
(PID.TID 0000.0001) %MON dynstat_theta_sd             =   4.5716836702940E+00
(PID.TID 0000.0001) %MON dynstat_theta_del2           =   2.6433423884989E-03
(PID.TID 0000.0001) %MON dynstat_salt_max             =   4.1347624085749E+01
(PID.TID 0000.0001) %MON dynstat_salt_min             =   1.8519030565082E+01
(PID.TID 0000.0001) %MON dynstat_salt_mean            =   3.4771939328391E+01
(PID.TID 0000.0001) %MON dynstat_salt_sd              =   5.3202492870053E-01
(PID.TID 0000.0001) %MON dynstat_salt_del2            =   1.0816603603121E-03
(PID.TID 0000.0001) %MON dynstat_sst_max              =   3.0936556286092E+01
(PID.TID 0000.0001) %MON dynstat_sst_min              =  -1.8985303330746E+00
(PID.TID 0000.0001) %MON dynstat_sst_mean             =   1.8112606648484E+01
(PID.TID 0000.0001) %MON dynstat_sst_sd               =   9.8108793433741E+00
(PID.TID 0000.0001) %MON dynstat_sst_del2             =   1.5083059839911E-02
(PID.TID 0000.0001) %MON dynstat_sss_max              =   4.1347624085749E+01
(PID.TID 0000.0001) %MON dynstat_sss_min              =   1.8752133914754E+01
(PID.TID 0000.0001) %MON dynstat_sss_mean             =   3.4623417823153E+01
(PID.TID 0000.0001) %MON dynstat_sss_sd               =   1.4843603747436E+00
(PID.TID 0000.0001) %MON dynstat_sss_del2             =   1.2130064572595E-02
(PID.TID 0000.0001) %MON forcing_qnet_max             =   1.8389091796875E+03
(PID.TID 0000.0001) %MON forcing_qnet_min             =  -1.0974271240234E+03
(PID.TID 0000.0001) %MON forcing_qnet_mean            =  -1.2047190485458E+01
(PID.TID 0000.0001) %MON forcing_qnet_sd              =   2.3279233063168E+02
(PID.TID 0000.0001) %MON forcing_qnet_del2            =   3.6256495624454E+00
(PID.TID 0000.0001) %MON forcing_qsw_max              =   0.0000000000000E+00
(PID.TID 0000.0001) %MON forcing_qsw_min              =  -4.2687140828968E+02
(PID.TID 0000.0001) %MON forcing_qsw_mean             =  -6.0179302072996E+01
(PID.TID 0000.0001) %MON forcing_qsw_sd               =   1.0778386031980E+02
(PID.TID 0000.0001) %MON forcing_qsw_del2             =   9.4664607741702E-01
(PID.TID 0000.0001) %MON forcing_empmr_max            =   5.7164696045220E-03
(PID.TID 0000.0001) %MON forcing_empmr_min            =  -8.2180969417095E-02
(PID.TID 0000.0001) %MON forcing_empmr_mean           =  -2.3813418735513E-04
(PID.TID 0000.0001) %MON forcing_empmr_sd             =   3.6159723165910E-03
(PID.TID 0000.0001) %MON forcing_empmr_del2           =   1.4273422659415E-04
(PID.TID 0000.0001) %MON forcing_fu_max               =   3.8008114801327E-01
(PID.TID 0000.0001) %MON forcing_fu_min               =  -3.7382850460291E-01
(PID.TID 0000.0001) %MON forcing_fu_mean              =  -2.0570520522227E-03
(PID.TID 0000.0001) %MON forcing_fu_sd                =   6.1564223972000E-02
(PID.TID 0000.0001) %MON forcing_fu_del2              =   6.1097269313174E-04
(PID.TID 0000.0001) %MON forcing_fv_max               =   3.1529095562226E-01
(PID.TID 0000.0001) %MON forcing_fv_min               =  -2.6512624334090E-01
(PID.TID 0000.0001) %MON forcing_fv_mean              =  -1.5656505087906E-02
(PID.TID 0000.0001) %MON forcing_fv_sd                =   6.0382629386630E-02
(PID.TID 0000.0001) %MON forcing_fv_del2              =   5.3115935400873E-04
(PID.TID 0000.0001) %MON trAdv_CFL_u_max              =   2.3725079084572E-03
(PID.TID 0000.0001) %MON trAdv_CFL_v_max              =   1.8995845558898E-03
(PID.TID 0000.0001) %MON trAdv_CFL_w_max              =   1.8231193877803E-03
(PID.TID 0000.0001) %MON advcfl_uvel_max              =   2.3576236501229E-03
(PID.TID 0000.0001) %MON advcfl_vvel_max              =   1.8077031273240E-03
(PID.TID 0000.0001) %MON advcfl_wvel_max              =   2.8584685014642E-03
(PID.TID 0000.0001) %MON advcfl_W_hf_max              =   1.8231193877803E-03
(PID.TID 0000.0001) %MON pe_b_mean                    =   4.9951300657703E-04
(PID.TID 0000.0001) %MON ke_max                       =   2.6196418814387E-01
(PID.TID 0000.0001) %MON ke_mean                      =   1.6630581862359E-04
(PID.TID 0000.0001) %MON ke_vol                       =   1.3398131896163E+18
(PID.TID 0000.0001) %MON vort_r_min                   =  -4.6251434266062E-06
(PID.TID 0000.0001) %MON vort_r_max                   =   2.7842867438650E-06
(PID.TID 0000.0001) %MON vort_a_mean                  =  -2.0549865324846E-05
(PID.TID 0000.0001) %MON vort_a_sd                    =   7.5259741514371E-05
(PID.TID 0000.0001) %MON vort_p_mean                  =  -2.4783268232130E-05
(PID.TID 0000.0001) %MON vort_p_sd                    =   1.2811923245038E-04
(PID.TID 0000.0001) %MON surfExpan_theta_mean         =  -6.5600836392605E-06
(PID.TID 0000.0001) %MON surfExpan_salt_mean          =   1.3059448490764E-06
(PID.TID 0000.0001) // =======================================================
(PID.TID 0000.0001) // End MONITOR dynamic field statistics
(PID.TID 0000.0001) // =======================================================
 cg2d: Sum(rhs),rhsMax =  -7.06384776410884E+01  3.64755561327995E+01
(PID.TID 0000.0001)      cg2d_init_res =   2.70510249908647E-01
(PID.TID 0000.0001)      cg2d_iters(min,last) =      -1      10
(PID.TID 0000.0001)      cg2d_last_res =   7.54222859524013E-08
(PID.TID 0000.0001) // =======================================================
(PID.TID 0000.0001) // Begin MONITOR dynamic field statistics
(PID.TID 0000.0001) // =======================================================
(PID.TID 0000.0001) %MON time_tsnumber                =                 72066
(PID.TID 0000.0001) %MON time_secondsf                =   6.4859400000000E+07
(PID.TID 0000.0001) %MON dynstat_eta_max              =   1.0467983425375E+00
(PID.TID 0000.0001) %MON dynstat_eta_min              =  -1.5750630172719E+00
(PID.TID 0000.0001) %MON dynstat_eta_mean             =   2.9939491949930E-02
(PID.TID 0000.0001) %MON dynstat_eta_sd               =   6.1161781713947E-01
(PID.TID 0000.0001) %MON dynstat_eta_del2             =   1.4210007289735E-03
(PID.TID 0000.0001) %MON dynstat_uvel_max             =   5.7574617229701E-01
(PID.TID 0000.0001) %MON dynstat_uvel_min             =  -8.1631501426474E-01
(PID.TID 0000.0001) %MON dynstat_uvel_mean            =  -2.9556213119712E-04
(PID.TID 0000.0001) %MON dynstat_uvel_sd              =   1.3088334063730E-02
(PID.TID 0000.0001) %MON dynstat_uvel_del2            =   9.4206929005813E-05
(PID.TID 0000.0001) %MON dynstat_vvel_max             =   4.0716884373352E-01
(PID.TID 0000.0001) %MON dynstat_vvel_min             =  -6.0222714625848E-01
(PID.TID 0000.0001) %MON dynstat_vvel_mean            =   5.3127500170627E-04
(PID.TID 0000.0001) %MON dynstat_vvel_sd              =   1.3714791804769E-02
(PID.TID 0000.0001) %MON dynstat_vvel_del2            =   9.5823755536638E-05
(PID.TID 0000.0001) %MON dynstat_wvel_max             =   1.0602148724424E-04
(PID.TID 0000.0001) %MON dynstat_wvel_min             =  -1.8028561925438E-04
(PID.TID 0000.0001) %MON dynstat_wvel_mean            =  -2.2162335951338E-07
(PID.TID 0000.0001) %MON dynstat_wvel_sd              =   7.7890241513317E-06
(PID.TID 0000.0001) %MON dynstat_wvel_del2            =   7.0711107017892E-08
(PID.TID 0000.0001) %MON dynstat_theta_max            =   3.0936331925312E+01
(PID.TID 0000.0001) %MON dynstat_theta_min            =  -3.0076493712852E+00
(PID.TID 0000.0001) %MON dynstat_theta_mean           =   3.9092344437544E+00
(PID.TID 0000.0001) %MON dynstat_theta_sd             =   4.5716901014202E+00
(PID.TID 0000.0001) %MON dynstat_theta_del2           =   2.6432349246347E-03
(PID.TID 0000.0001) %MON dynstat_salt_max             =   4.1347533726858E+01
(PID.TID 0000.0001) %MON dynstat_salt_min             =   1.8519040683998E+01
(PID.TID 0000.0001) %MON dynstat_salt_mean            =   3.4771937257379E+01
(PID.TID 0000.0001) %MON dynstat_salt_sd              =   5.3203842240116E-01
(PID.TID 0000.0001) %MON dynstat_salt_del2            =   1.0848826572721E-03
(PID.TID 0000.0001) %MON dynstat_sst_max              =   3.0936331925312E+01
(PID.TID 0000.0001) %MON dynstat_sst_min              =  -1.8986631726805E+00
(PID.TID 0000.0001) %MON dynstat_sst_mean             =   1.8112659899429E+01
(PID.TID 0000.0001) %MON dynstat_sst_sd               =   9.8109407664870E+00
(PID.TID 0000.0001) %MON dynstat_sst_del2             =   1.5081435684284E-02
(PID.TID 0000.0001) %MON dynstat_sss_max              =   4.1347533726858E+01
(PID.TID 0000.0001) %MON dynstat_sss_min              =   1.8752148155512E+01
(PID.TID 0000.0001) %MON dynstat_sss_mean             =   3.4623263201814E+01
(PID.TID 0000.0001) %MON dynstat_sss_sd               =   1.4847061650231E+00
(PID.TID 0000.0001) %MON dynstat_sss_del2             =   1.2175463005960E-02
(PID.TID 0000.0001) %MON forcing_qnet_max             =   1.8172751464844E+03
(PID.TID 0000.0001) %MON forcing_qnet_min             =  -1.0816490478516E+03
(PID.TID 0000.0001) %MON forcing_qnet_mean            =  -1.3099019886817E+01
(PID.TID 0000.0001) %MON forcing_qnet_sd              =   2.3327034819760E+02
(PID.TID 0000.0001) %MON forcing_qnet_del2            =   3.4850562685409E+00
(PID.TID 0000.0001) %MON forcing_qsw_max              =   0.0000000000000E+00
(PID.TID 0000.0001) %MON forcing_qsw_min              =  -4.3023316848132E+02
(PID.TID 0000.0001) %MON forcing_qsw_mean             =  -6.0803418617214E+01
(PID.TID 0000.0001) %MON forcing_qsw_sd               =   1.0880944030255E+02
(PID.TID 0000.0001) %MON forcing_qsw_del2             =   9.5789044758319E-01
(PID.TID 0000.0001) %MON forcing_empmr_max            =   5.6575257331133E-03
(PID.TID 0000.0001) %MON forcing_empmr_min            =  -8.1335172057152E-02
(PID.TID 0000.0001) %MON forcing_empmr_mean           =  -2.3695880316703E-04
(PID.TID 0000.0001) %MON forcing_empmr_sd             =   3.5786771721620E-03
(PID.TID 0000.0001) %MON forcing_empmr_del2           =   1.4125171973067E-04
(PID.TID 0000.0001) %MON forcing_fu_max               =   3.6004687208539E-01
(PID.TID 0000.0001) %MON forcing_fu_min               =  -3.7169024100722E-01
(PID.TID 0000.0001) %MON forcing_fu_mean              =  -2.1159537502967E-03
(PID.TID 0000.0001) %MON forcing_fu_sd                =   6.1186432605049E-02
(PID.TID 0000.0001) %MON forcing_fu_del2              =   6.0800959276382E-04
(PID.TID 0000.0001) %MON forcing_fv_max               =   3.1324507833222E-01
(PID.TID 0000.0001) %MON forcing_fv_min               =  -2.6299070181315E-01
(PID.TID 0000.0001) %MON forcing_fv_mean              =  -1.5607111492843E-02
(PID.TID 0000.0001) %MON forcing_fv_sd                =   6.0192854275513E-02
(PID.TID 0000.0001) %MON forcing_fv_del2              =   5.3030462720923E-04
(PID.TID 0000.0001) %MON trAdv_CFL_u_max              =   2.3894175888955E-03
(PID.TID 0000.0001) %MON trAdv_CFL_v_max              =   1.7686780326866E-03
(PID.TID 0000.0001) %MON trAdv_CFL_w_max              =   1.8121388456263E-03
(PID.TID 0000.0001) %MON advcfl_uvel_max              =   2.3722189043078E-03
(PID.TID 0000.0001) %MON advcfl_vvel_max              =   1.7607352619891E-03
(PID.TID 0000.0001) %MON advcfl_wvel_max              =   2.8290494628575E-03
(PID.TID 0000.0001) %MON advcfl_W_hf_max              =   1.8121388456263E-03
(PID.TID 0000.0001) %MON pe_b_mean                    =   4.9952893246139E-04
(PID.TID 0000.0001) %MON ke_max                       =   2.5970577235259E-01
(PID.TID 0000.0001) %MON ke_mean                      =   1.6613504449515E-04
(PID.TID 0000.0001) %MON ke_vol                       =   1.3398132649675E+18
(PID.TID 0000.0001) %MON vort_r_min                   =  -4.5896406394312E-06
(PID.TID 0000.0001) %MON vort_r_max                   =   2.6571568735008E-06
(PID.TID 0000.0001) %MON vort_a_mean                  =  -2.0549865324846E-05
(PID.TID 0000.0001) %MON vort_a_sd                    =   7.5259740878574E-05
(PID.TID 0000.0001) %MON vort_p_mean                  =  -2.4783266570027E-05
(PID.TID 0000.0001) %MON vort_p_sd                    =   1.2811925708257E-04
(PID.TID 0000.0001) %MON surfExpan_theta_mean         =  -6.4940439584232E-06
(PID.TID 0000.0001) %MON surfExpan_salt_mean          =   1.2974661490265E-06
(PID.TID 0000.0001) // =======================================================
(PID.TID 0000.0001) // End MONITOR dynamic field statistics
(PID.TID 0000.0001) // =======================================================
 cg2d: Sum(rhs),rhsMax =  -7.12201501830295E+01  3.64234445929337E+01
(PID.TID 0000.0001)      cg2d_init_res =   2.59643621810723E-01
(PID.TID 0000.0001)      cg2d_iters(min,last) =      -1      10
(PID.TID 0000.0001)      cg2d_last_res =   5.53437035180696E-08
(PID.TID 0000.0001) // =======================================================
(PID.TID 0000.0001) // Begin MONITOR dynamic field statistics
(PID.TID 0000.0001) // =======================================================
(PID.TID 0000.0001) %MON time_tsnumber                =                 72067
(PID.TID 0000.0001) %MON time_secondsf                =   6.4860300000000E+07
(PID.TID 0000.0001) %MON dynstat_eta_max              =   1.0449810317520E+00
(PID.TID 0000.0001) %MON dynstat_eta_min              =  -1.5728810624776E+00
(PID.TID 0000.0001) %MON dynstat_eta_mean             =   3.0142902815981E-02
(PID.TID 0000.0001) %MON dynstat_eta_sd               =   6.1164467218391E-01
(PID.TID 0000.0001) %MON dynstat_eta_del2             =   1.4646849431474E-03
(PID.TID 0000.0001) %MON dynstat_uvel_max             =   5.6033798328811E-01
(PID.TID 0000.0001) %MON dynstat_uvel_min             =  -8.1834042097079E-01
(PID.TID 0000.0001) %MON dynstat_uvel_mean            =  -2.9161013843977E-04
(PID.TID 0000.0001) %MON dynstat_uvel_sd              =   1.3099969436069E-02
(PID.TID 0000.0001) %MON dynstat_uvel_del2            =   9.3269812955900E-05
(PID.TID 0000.0001) %MON dynstat_vvel_max             =   3.5622428533231E-01
(PID.TID 0000.0001) %MON dynstat_vvel_min             =  -5.8295345277287E-01
(PID.TID 0000.0001) %MON dynstat_vvel_mean            =   5.2094332215213E-04
(PID.TID 0000.0001) %MON dynstat_vvel_sd              =   1.3687886091400E-02
(PID.TID 0000.0001) %MON dynstat_vvel_del2            =   9.3855312002549E-05
(PID.TID 0000.0001) %MON dynstat_wvel_max             =   1.0432545602148E-04
(PID.TID 0000.0001) %MON dynstat_wvel_min             =  -1.8040137085396E-04
(PID.TID 0000.0001) %MON dynstat_wvel_mean            =  -2.0630252606126E-07
(PID.TID 0000.0001) %MON dynstat_wvel_sd              =   7.7635778237688E-06
(PID.TID 0000.0001) %MON dynstat_wvel_del2            =   7.0108759574953E-08
(PID.TID 0000.0001) %MON dynstat_theta_max            =   3.0936102867233E+01
(PID.TID 0000.0001) %MON dynstat_theta_min            =  -3.0078451971359E+00
(PID.TID 0000.0001) %MON dynstat_theta_mean           =   3.9092365949759E+00
(PID.TID 0000.0001) %MON dynstat_theta_sd             =   4.5716967002401E+00
(PID.TID 0000.0001) %MON dynstat_theta_del2           =   2.6431351269444E-03
(PID.TID 0000.0001) %MON dynstat_salt_max             =   4.1347454463370E+01
(PID.TID 0000.0001) %MON dynstat_salt_min             =   1.8519050783787E+01
(PID.TID 0000.0001) %MON dynstat_salt_mean            =   3.4771935225086E+01
(PID.TID 0000.0001) %MON dynstat_salt_sd              =   5.3205171767451E-01
(PID.TID 0000.0001) %MON dynstat_salt_del2            =   1.0880397841728E-03
(PID.TID 0000.0001) %MON dynstat_sst_max              =   3.0936102867233E+01
(PID.TID 0000.0001) %MON dynstat_sst_min              =  -1.8987863531042E+00
(PID.TID 0000.0001) %MON dynstat_sst_mean             =   1.8112714434728E+01
(PID.TID 0000.0001) %MON dynstat_sst_sd               =   9.8110034641190E+00
(PID.TID 0000.0001) %MON dynstat_sst_del2             =   1.5079906488608E-02
(PID.TID 0000.0001) %MON dynstat_sss_max              =   4.1347454463370E+01
(PID.TID 0000.0001) %MON dynstat_sss_min              =   1.8752162187552E+01
(PID.TID 0000.0001) %MON dynstat_sss_mean             =   3.4623110203483E+01
(PID.TID 0000.0001) %MON dynstat_sss_sd               =   1.4850468070007E+00
(PID.TID 0000.0001) %MON dynstat_sss_del2             =   1.2219901885062E-02
(PID.TID 0000.0001) %MON forcing_qnet_max             =   1.7959039306641E+03
(PID.TID 0000.0001) %MON forcing_qnet_min             =  -1.1489512939453E+03
(PID.TID 0000.0001) %MON forcing_qnet_mean            =  -1.4191397315891E+01
(PID.TID 0000.0001) %MON forcing_qnet_sd              =   2.3442634418003E+02
(PID.TID 0000.0001) %MON forcing_qnet_del2            =   3.5314991845751E+00
(PID.TID 0000.0001) %MON forcing_qsw_max              =   0.0000000000000E+00
(PID.TID 0000.0001) %MON forcing_qsw_min              =  -4.3389406010199E+02
(PID.TID 0000.0001) %MON forcing_qsw_mean             =  -6.1318057052587E+01
(PID.TID 0000.0001) %MON forcing_qsw_sd               =   1.0957898759012E+02
(PID.TID 0000.0001) %MON forcing_qsw_del2             =   9.6746762990516E-01
(PID.TID 0000.0001) %MON forcing_empmr_max            =   5.5992705747485E-03
(PID.TID 0000.0001) %MON forcing_empmr_min            =  -8.0496922135353E-02
(PID.TID 0000.0001) %MON forcing_empmr_mean           =  -2.3392249595896E-04
(PID.TID 0000.0001) %MON forcing_empmr_sd             =   3.5419898565722E-03
(PID.TID 0000.0001) %MON forcing_empmr_del2           =   1.3978569274407E-04
(PID.TID 0000.0001) %MON forcing_fu_max               =   3.7231266236607E-01
(PID.TID 0000.0001) %MON forcing_fu_min               =  -3.7277284486128E-01
(PID.TID 0000.0001) %MON forcing_fu_mean              =  -2.0674194735157E-03
(PID.TID 0000.0001) %MON forcing_fu_sd                =   6.1276637716691E-02
(PID.TID 0000.0001) %MON forcing_fu_del2              =   6.0870567620251E-04
(PID.TID 0000.0001) %MON forcing_fv_max               =   3.1145580650542E-01
(PID.TID 0000.0001) %MON forcing_fv_min               =  -2.6114328917221E-01
(PID.TID 0000.0001) %MON forcing_fv_mean              =  -1.5564440011980E-02
(PID.TID 0000.0001) %MON forcing_fv_sd                =   6.0122314927526E-02
(PID.TID 0000.0001) %MON forcing_fv_del2              =   5.2966382474162E-04
(PID.TID 0000.0001) %MON trAdv_CFL_u_max              =   2.3976725298541E-03
(PID.TID 0000.0001) %MON trAdv_CFL_v_max              =   1.7143336362408E-03
(PID.TID 0000.0001) %MON trAdv_CFL_w_max              =   1.7960532155762E-03
(PID.TID 0000.0001) %MON advcfl_uvel_max              =   2.3781047547369E-03
(PID.TID 0000.0001) %MON advcfl_vvel_max              =   1.7043846441870E-03
(PID.TID 0000.0001) %MON advcfl_wvel_max              =   2.7998929438384E-03
(PID.TID 0000.0001) %MON advcfl_W_hf_max              =   1.7960532155762E-03
(PID.TID 0000.0001) %MON pe_b_mean                    =   4.9958894849180E-04
(PID.TID 0000.0001) %MON ke_max                       =   2.5554863288434E-01
(PID.TID 0000.0001) %MON ke_mean                      =   1.6592687857543E-04
(PID.TID 0000.0001) %MON ke_vol                       =   1.3398133399468E+18
(PID.TID 0000.0001) %MON vort_r_min                   =  -4.5340691013680E-06
(PID.TID 0000.0001) %MON vort_r_max                   =   2.5033813612154E-06
(PID.TID 0000.0001) %MON vort_a_mean                  =  -2.0549865324846E-05
(PID.TID 0000.0001) %MON vort_a_sd                    =   7.5259739570445E-05
(PID.TID 0000.0001) %MON vort_p_mean                  =  -2.4783264945683E-05
(PID.TID 0000.0001) %MON vort_p_sd                    =   1.2811927734305E-04
(PID.TID 0000.0001) %MON surfExpan_theta_mean         =  -6.4015314659359E-06
(PID.TID 0000.0001) %MON surfExpan_salt_mean          =   1.2870008040052E-06
(PID.TID 0000.0001) // =======================================================
(PID.TID 0000.0001) // End MONITOR dynamic field statistics
(PID.TID 0000.0001) // =======================================================
 Computing Diagnostic #     81  oceTAUX      Counter:       1   Parms: UU      U1      
           Vector  Mate for  oceTAUX      Diagnostic #     82  oceTAUY  exists 
 Computing Diagnostic #     82  oceTAUY      Counter:       1   Parms: VV      U1      
           Vector  Mate for  oceTAUY      Diagnostic #     81  oceTAUX  exists 
 Computing Diagnostic #     85  oceFWflx     Counter:       1   Parms: SM      U1      
 Computing Diagnostic #     86  oceSflux     Counter:       1   Parms: SM      U1      
 Computing Diagnostic #     87  oceQnet      Counter:       1   Parms: SM      U1      
 Computing Diagnostic #     88  oceQsw       Counter:       1   Parms: SM      U1      
 Computing Diagnostic #     27  SALT         Counter:       1   Parms: SMR     MR      
 Computing Diagnostic #     26  THETA        Counter:       1   Parms: SMR     MR      
 Computing Diagnostic #     45  UVELMASS     Counter:       1   Parms: UUr     MR      
           Vector  Mate for  UVELMASS     Diagnostic #     46  VVELMASS exists 
 Computing Diagnostic #     46  VVELMASS     Counter:       1   Parms: VVr     MR      
           Vector  Mate for  VVELMASS     Diagnostic #     45  UVELMASS exists 
 cg2d: Sum(rhs),rhsMax =  -7.17985807504368E+01  3.63719652378521E+01
(PID.TID 0000.0001)      cg2d_init_res =   2.48185942775361E-01
(PID.TID 0000.0001)      cg2d_iters(min,last) =      -1      10
(PID.TID 0000.0001)      cg2d_last_res =   4.43297418897597E-08
(PID.TID 0000.0001) // =======================================================
(PID.TID 0000.0001) // Begin MONITOR dynamic field statistics
(PID.TID 0000.0001) // =======================================================
(PID.TID 0000.0001) %MON time_tsnumber                =                 72068
(PID.TID 0000.0001) %MON time_secondsf                =   6.4861200000000E+07
(PID.TID 0000.0001) %MON dynstat_eta_max              =   1.0655330818826E+00
(PID.TID 0000.0001) %MON dynstat_eta_min              =  -1.7229290466818E+00
(PID.TID 0000.0001) %MON dynstat_eta_mean             =   3.0344766512152E-02
(PID.TID 0000.0001) %MON dynstat_eta_sd               =   6.1169225586524E-01
(PID.TID 0000.0001) %MON dynstat_eta_del2             =   1.5141757580535E-03
(PID.TID 0000.0001) %MON dynstat_uvel_max             =   5.5163196282694E-01
(PID.TID 0000.0001) %MON dynstat_uvel_min             =  -8.1721214077341E-01
(PID.TID 0000.0001) %MON dynstat_uvel_mean            =  -2.8964329950535E-04
(PID.TID 0000.0001) %MON dynstat_uvel_sd              =   1.3106535102523E-02
(PID.TID 0000.0001) %MON dynstat_uvel_del2            =   9.2276825443304E-05
(PID.TID 0000.0001) %MON dynstat_vvel_max             =   3.4149288587247E-01
(PID.TID 0000.0001) %MON dynstat_vvel_min             =  -5.6057585374153E-01
(PID.TID 0000.0001) %MON dynstat_vvel_mean            =   5.0839835401532E-04
(PID.TID 0000.0001) %MON dynstat_vvel_sd              =   1.3663686280294E-02
(PID.TID 0000.0001) %MON dynstat_vvel_del2            =   9.1771776256398E-05
(PID.TID 0000.0001) %MON dynstat_wvel_max             =   1.0400343720485E-04
(PID.TID 0000.0001) %MON dynstat_wvel_min             =  -1.8050584346056E-04
(PID.TID 0000.0001) %MON dynstat_wvel_mean            =  -1.9379463097429E-07
(PID.TID 0000.0001) %MON dynstat_wvel_sd              =   7.7405715889601E-06
(PID.TID 0000.0001) %MON dynstat_wvel_del2            =   6.9583629118905E-08
(PID.TID 0000.0001) %MON dynstat_theta_max            =   3.0935868924265E+01
(PID.TID 0000.0001) %MON dynstat_theta_min            =  -3.0080572793624E+00
(PID.TID 0000.0001) %MON dynstat_theta_mean           =   3.9092388065039E+00
(PID.TID 0000.0001) %MON dynstat_theta_sd             =   4.5717035031159E+00
(PID.TID 0000.0001) %MON dynstat_theta_del2           =   2.6430352218953E-03
(PID.TID 0000.0001) %MON dynstat_salt_max             =   4.1347384685536E+01
(PID.TID 0000.0001) %MON dynstat_salt_min             =   1.8519060862968E+01
(PID.TID 0000.0001) %MON dynstat_salt_mean            =   3.4771933218557E+01
(PID.TID 0000.0001) %MON dynstat_salt_sd              =   5.3206483388773E-01
(PID.TID 0000.0001) %MON dynstat_salt_del2            =   1.0911350488882E-03
(PID.TID 0000.0001) %MON dynstat_sst_max              =   3.0935868924265E+01
(PID.TID 0000.0001) %MON dynstat_sst_min              =  -1.8988990422796E+00
(PID.TID 0000.0001) %MON dynstat_sst_mean             =   1.8112773580212E+01
(PID.TID 0000.0001) %MON dynstat_sst_sd               =   9.8110681420080E+00
(PID.TID 0000.0001) %MON dynstat_sst_del2             =   1.5078385699024E-02
(PID.TID 0000.0001) %MON dynstat_sss_max              =   4.1347384685536E+01
(PID.TID 0000.0001) %MON dynstat_sss_min              =   1.8752175983685E+01
(PID.TID 0000.0001) %MON dynstat_sss_mean             =   3.4622959174621E+01
(PID.TID 0000.0001) %MON dynstat_sss_sd               =   1.4853831993907E+00
(PID.TID 0000.0001) %MON dynstat_sss_del2             =   1.2263446024840E-02
(PID.TID 0000.0001) %MON forcing_qnet_max             =   1.7757868652344E+03
(PID.TID 0000.0001) %MON forcing_qnet_min             =  -1.6454316406250E+03
(PID.TID 0000.0001) %MON forcing_qnet_mean            =  -1.5225185273389E+01
(PID.TID 0000.0001) %MON forcing_qnet_sd              =   2.3530363613425E+02
(PID.TID 0000.0001) %MON forcing_qnet_del2            =   3.5710621311818E+00
(PID.TID 0000.0001) %MON forcing_qsw_max              =   0.0000000000000E+00
(PID.TID 0000.0001) %MON forcing_qsw_min              =  -4.3580298219661E+02
(PID.TID 0000.0001) %MON forcing_qsw_mean             =  -6.1728267047575E+01
(PID.TID 0000.0001) %MON forcing_qsw_sd               =   1.1008142350940E+02
(PID.TID 0000.0001) %MON forcing_qsw_del2             =   9.7524707656929E-01
(PID.TID 0000.0001) %MON forcing_empmr_max            =   5.5416058748960E-03
(PID.TID 0000.0001) %MON forcing_empmr_min            =  -7.9668745398521E-02
(PID.TID 0000.0001) %MON forcing_empmr_mean           =  -2.3214325059547E-04
(PID.TID 0000.0001) %MON forcing_empmr_sd             =   3.5056985317590E-03
(PID.TID 0000.0001) %MON forcing_empmr_del2           =   1.3833075809881E-04
(PID.TID 0000.0001) %MON forcing_fu_max               =   3.6861875473563E-01
(PID.TID 0000.0001) %MON forcing_fu_min               =  -3.5314743943464E-01
(PID.TID 0000.0001) %MON forcing_fu_mean              =  -2.0333022203152E-03
(PID.TID 0000.0001) %MON forcing_fu_sd                =   6.1019093940667E-02
(PID.TID 0000.0001) %MON forcing_fu_del2              =   6.0443126310810E-04
(PID.TID 0000.0001) %MON forcing_fv_max               =   3.0334085037056E-01
(PID.TID 0000.0001) %MON forcing_fv_min               =  -2.5929897782614E-01
(PID.TID 0000.0001) %MON forcing_fv_mean              =  -1.5567399428050E-02
(PID.TID 0000.0001) %MON forcing_fv_sd                =   5.9992094296084E-02
(PID.TID 0000.0001) %MON forcing_fv_del2              =   5.2784455102498E-04
(PID.TID 0000.0001) %MON trAdv_CFL_u_max              =   2.3967598669800E-03
(PID.TID 0000.0001) %MON trAdv_CFL_v_max              =   1.6505625872481E-03
(PID.TID 0000.0001) %MON trAdv_CFL_w_max              =   1.7749581754226E-03
(PID.TID 0000.0001) %MON advcfl_uvel_max              =   2.3748259621546E-03
(PID.TID 0000.0001) %MON advcfl_vvel_max              =   1.6389591183901E-03
(PID.TID 0000.0001) %MON advcfl_wvel_max              =   2.7710867964703E-03
(PID.TID 0000.0001) %MON advcfl_W_hf_max              =   1.7749581754226E-03
(PID.TID 0000.0001) %MON pe_b_mean                    =   4.9968273409456E-04
(PID.TID 0000.0001) %MON ke_max                       =   2.4945707690868E-01
(PID.TID 0000.0001) %MON ke_mean                      =   1.6569234529723E-04
(PID.TID 0000.0001) %MON ke_vol                       =   1.3398134139653E+18
(PID.TID 0000.0001) %MON vort_r_min                   =  -4.4582601373775E-06
(PID.TID 0000.0001) %MON vort_r_max                   =   2.3261223907681E-06
(PID.TID 0000.0001) %MON vort_a_mean                  =  -2.0549865324846E-05
(PID.TID 0000.0001) %MON vort_a_sd                    =   7.5259737634603E-05
(PID.TID 0000.0001) %MON vort_p_mean                  =  -2.4783263361229E-05
(PID.TID 0000.0001) %MON vort_p_sd                    =   1.2811929308289E-04
(PID.TID 0000.0001) %MON surfExpan_theta_mean         =  -6.3545460116010E-06
(PID.TID 0000.0001) %MON surfExpan_salt_mean          =   1.2759761708527E-06
(PID.TID 0000.0001) // =======================================================
(PID.TID 0000.0001) // End MONITOR dynamic field statistics
(PID.TID 0000.0001) // =======================================================
 cg2d: Sum(rhs),rhsMax =  -7.23682546782201E+01  3.63224852462058E+01
(PID.TID 0000.0001)      cg2d_init_res =   2.36715390560906E-01
(PID.TID 0000.0001)      cg2d_iters(min,last) =      -1      10
(PID.TID 0000.0001)      cg2d_last_res =   6.01725754535127E-08
(PID.TID 0000.0001) // =======================================================
(PID.TID 0000.0001) // Begin MONITOR dynamic field statistics
(PID.TID 0000.0001) // =======================================================
(PID.TID 0000.0001) %MON time_tsnumber                =                 72069
(PID.TID 0000.0001) %MON time_secondsf                =   6.4862100000000E+07
(PID.TID 0000.0001) %MON dynstat_eta_max              =   1.1137228067842E+00
(PID.TID 0000.0001) %MON dynstat_eta_min              =  -1.8657214893476E+00
(PID.TID 0000.0001) %MON dynstat_eta_mean             =   3.0543923831636E-02
(PID.TID 0000.0001) %MON dynstat_eta_sd               =   6.1175129071323E-01
(PID.TID 0000.0001) %MON dynstat_eta_del2             =   1.5645564676345E-03
(PID.TID 0000.0001) %MON dynstat_uvel_max             =   5.3622468597283E-01
(PID.TID 0000.0001) %MON dynstat_uvel_min             =  -8.1281297036627E-01
(PID.TID 0000.0001) %MON dynstat_uvel_mean            =  -2.8959451208829E-04
(PID.TID 0000.0001) %MON dynstat_uvel_sd              =   1.3108306710376E-02
(PID.TID 0000.0001) %MON dynstat_uvel_del2            =   9.1255843228720E-05
(PID.TID 0000.0001) %MON dynstat_vvel_max             =   3.2734558123731E-01
(PID.TID 0000.0001) %MON dynstat_vvel_min             =  -5.3522526357268E-01
(PID.TID 0000.0001) %MON dynstat_vvel_mean            =   4.9392432826900E-04
(PID.TID 0000.0001) %MON dynstat_vvel_sd              =   1.3643002201437E-02
(PID.TID 0000.0001) %MON dynstat_vvel_del2            =   8.9696664021901E-05
(PID.TID 0000.0001) %MON dynstat_wvel_max             =   1.0370375805759E-04
(PID.TID 0000.0001) %MON dynstat_wvel_min             =  -1.8059267977355E-04
(PID.TID 0000.0001) %MON dynstat_wvel_mean            =  -1.8199079196773E-07
(PID.TID 0000.0001) %MON dynstat_wvel_sd              =   7.7211368471559E-06
(PID.TID 0000.0001) %MON dynstat_wvel_del2            =   6.9141542833143E-08
(PID.TID 0000.0001) %MON dynstat_theta_max            =   3.0935629908280E+01
(PID.TID 0000.0001) %MON dynstat_theta_min            =  -3.0082897212093E+00
(PID.TID 0000.0001) %MON dynstat_theta_mean           =   3.9092412145560E+00
(PID.TID 0000.0001) %MON dynstat_theta_sd             =   4.5717111521485E+00
(PID.TID 0000.0001) %MON dynstat_theta_del2           =   2.6429453354621E-03
(PID.TID 0000.0001) %MON dynstat_salt_max             =   4.1347323041978E+01
(PID.TID 0000.0001) %MON dynstat_salt_min             =   1.8519070920693E+01
(PID.TID 0000.0001) %MON dynstat_salt_mean            =   3.4771931259309E+01
(PID.TID 0000.0001) %MON dynstat_salt_sd              =   5.3207775908761E-01
(PID.TID 0000.0001) %MON dynstat_salt_del2            =   1.0941712606385E-03
(PID.TID 0000.0001) %MON dynstat_sst_max              =   3.0935629908280E+01
(PID.TID 0000.0001) %MON dynstat_sst_min              =  -1.8989983325592E+00
(PID.TID 0000.0001) %MON dynstat_sst_mean             =   1.8112849744006E+01
(PID.TID 0000.0001) %MON dynstat_sst_sd               =   9.8111416331313E+00
(PID.TID 0000.0001) %MON dynstat_sst_del2             =   1.5077084511201E-02
(PID.TID 0000.0001) %MON dynstat_sss_max              =   4.1347323041978E+01
(PID.TID 0000.0001) %MON dynstat_sss_min              =   1.8752189603082E+01
(PID.TID 0000.0001) %MON dynstat_sss_mean             =   3.4622812110600E+01
(PID.TID 0000.0001) %MON dynstat_sss_sd               =   1.4857151314341E+00
(PID.TID 0000.0001) %MON dynstat_sss_del2             =   1.2306121323849E-02
(PID.TID 0000.0001) %MON forcing_qnet_max             =   1.7549234619141E+03
(PID.TID 0000.0001) %MON forcing_qnet_min             =  -3.9776630859375E+03
(PID.TID 0000.0001) %MON forcing_qnet_mean            =  -1.8861802463285E+01
(PID.TID 0000.0001) %MON forcing_qnet_sd              =   2.4282789101701E+02
(PID.TID 0000.0001) %MON forcing_qnet_del2            =   4.5329336526591E+00
(PID.TID 0000.0001) %MON forcing_qsw_max              =   0.0000000000000E+00
(PID.TID 0000.0001) %MON forcing_qsw_min              =  -4.3612304950013E+02
(PID.TID 0000.0001) %MON forcing_qsw_mean             =  -6.3224663795935E+01
(PID.TID 0000.0001) %MON forcing_qsw_sd               =   1.1119385185059E+02
(PID.TID 0000.0001) %MON forcing_qsw_del2             =   1.0018554037020E+00
(PID.TID 0000.0001) %MON forcing_empmr_max            =   5.4844338446856E-03
(PID.TID 0000.0001) %MON forcing_empmr_min            =  -7.8848116099834E-02
(PID.TID 0000.0001) %MON forcing_empmr_mean           =  -2.2903091740777E-04
(PID.TID 0000.0001) %MON forcing_empmr_sd             =   3.4698435343157E-03
(PID.TID 0000.0001) %MON forcing_empmr_del2           =   1.3689198218420E-04
(PID.TID 0000.0001) %MON forcing_fu_max               =   3.5452171305744E-01
(PID.TID 0000.0001) %MON forcing_fu_min               =  -3.2947961836958E-01
(PID.TID 0000.0001) %MON forcing_fu_mean              =  -2.0448366722479E-03
(PID.TID 0000.0001) %MON forcing_fu_sd                =   6.0429697231285E-02
(PID.TID 0000.0001) %MON forcing_fu_del2              =   5.9963480756134E-04
(PID.TID 0000.0001) %MON forcing_fv_max               =   3.0330363590792E-01
(PID.TID 0000.0001) %MON forcing_fv_min               =  -2.5755497295241E-01
(PID.TID 0000.0001) %MON forcing_fv_mean              =  -1.5554082467127E-02
(PID.TID 0000.0001) %MON forcing_fv_sd                =   5.9808644312306E-02
(PID.TID 0000.0001) %MON forcing_fv_del2              =   5.2633445090352E-04
(PID.TID 0000.0001) %MON trAdv_CFL_u_max              =   2.3862767309074E-03
(PID.TID 0000.0001) %MON trAdv_CFL_v_max              =   1.5777223822794E-03
(PID.TID 0000.0001) %MON trAdv_CFL_w_max              =   1.7489958777854E-03
(PID.TID 0000.0001) %MON advcfl_uvel_max              =   2.3620419326798E-03
(PID.TID 0000.0001) %MON advcfl_vvel_max              =   1.5648414398699E-03
(PID.TID 0000.0001) %MON advcfl_wvel_max              =   2.7425431686899E-03
(PID.TID 0000.0001) %MON advcfl_W_hf_max              =   1.7489958777854E-03
(PID.TID 0000.0001) %MON pe_b_mean                    =   4.9979507853444E-04
(PID.TID 0000.0001) %MON ke_max                       =   2.4146132814956E-01
(PID.TID 0000.0001) %MON ke_mean                      =   1.6544492029533E-04
(PID.TID 0000.0001) %MON ke_vol                       =   1.3398134874208E+18
(PID.TID 0000.0001) %MON vort_r_min                   =  -4.3622556530631E-06
(PID.TID 0000.0001) %MON vort_r_max                   =   2.2493457553546E-06
(PID.TID 0000.0001) %MON vort_a_mean                  =  -2.0549865324846E-05
(PID.TID 0000.0001) %MON vort_a_sd                    =   7.5259735120463E-05
(PID.TID 0000.0001) %MON vort_p_mean                  =  -2.4783261800259E-05
(PID.TID 0000.0001) %MON vort_p_sd                    =   1.2811930449762E-04
(PID.TID 0000.0001) %MON surfExpan_theta_mean         =  -6.2883040043225E-06
(PID.TID 0000.0001) %MON surfExpan_salt_mean          =   1.2626141522733E-06
(PID.TID 0000.0001) // =======================================================
(PID.TID 0000.0001) // End MONITOR dynamic field statistics
(PID.TID 0000.0001) // =======================================================
 cg2d: Sum(rhs),rhsMax =  -7.29309566103869E+01  3.62758242032182E+01
(PID.TID 0000.0001)      cg2d_init_res =   2.25873646604465E-01
(PID.TID 0000.0001)      cg2d_iters(min,last) =      -1      10
(PID.TID 0000.0001)      cg2d_last_res =   7.56791132437475E-08
(PID.TID 0000.0001) // =======================================================
(PID.TID 0000.0001) // Begin MONITOR dynamic field statistics
(PID.TID 0000.0001) // =======================================================
(PID.TID 0000.0001) %MON time_tsnumber                =                 72070
(PID.TID 0000.0001) %MON time_secondsf                =   6.4863000000000E+07
(PID.TID 0000.0001) %MON dynstat_eta_max              =   1.1574687797626E+00
(PID.TID 0000.0001) %MON dynstat_eta_min              =  -1.9759163032553E+00
(PID.TID 0000.0001) %MON dynstat_eta_mean             =   3.0741876385445E-02
(PID.TID 0000.0001) %MON dynstat_eta_sd               =   6.1181445382639E-01
(PID.TID 0000.0001) %MON dynstat_eta_del2             =   1.6117803641239E-03
(PID.TID 0000.0001) %MON dynstat_uvel_max             =   5.1452150894743E-01
(PID.TID 0000.0001) %MON dynstat_uvel_min             =  -8.0506778697287E-01
(PID.TID 0000.0001) %MON dynstat_uvel_mean            =  -2.9139357690131E-04
(PID.TID 0000.0001) %MON dynstat_uvel_sd              =   1.3106270799824E-02
(PID.TID 0000.0001) %MON dynstat_uvel_del2            =   9.0234606842112E-05
(PID.TID 0000.0001) %MON dynstat_vvel_max             =   3.1344685127320E-01
(PID.TID 0000.0001) %MON dynstat_vvel_min             =  -5.0705749095196E-01
(PID.TID 0000.0001) %MON dynstat_vvel_mean            =   4.7777603969952E-04
(PID.TID 0000.0001) %MON dynstat_vvel_sd              =   1.3626429913909E-02
(PID.TID 0000.0001) %MON dynstat_vvel_del2            =   8.7751625581441E-05
(PID.TID 0000.0001) %MON dynstat_wvel_max             =   1.0342818510001E-04
(PID.TID 0000.0001) %MON dynstat_wvel_min             =  -1.8067643562468E-04
(PID.TID 0000.0001) %MON dynstat_wvel_mean            =  -1.7232231972528E-07
(PID.TID 0000.0001) %MON dynstat_wvel_sd              =   7.7054847033227E-06
(PID.TID 0000.0001) %MON dynstat_wvel_del2            =   6.8780017605995E-08
(PID.TID 0000.0001) %MON dynstat_theta_max            =   3.0935385631008E+01
(PID.TID 0000.0001) %MON dynstat_theta_min            =  -3.0085458804371E+00
(PID.TID 0000.0001) %MON dynstat_theta_mean           =   3.9092436725997E+00
(PID.TID 0000.0001) %MON dynstat_theta_sd             =   4.5717190513162E+00
(PID.TID 0000.0001) %MON dynstat_theta_del2           =   2.6428455208327E-03
(PID.TID 0000.0001) %MON dynstat_salt_max             =   4.1347268216807E+01
(PID.TID 0000.0001) %MON dynstat_salt_min             =   1.8519080957017E+01
(PID.TID 0000.0001) %MON dynstat_salt_mean            =   3.4771929316581E+01
(PID.TID 0000.0001) %MON dynstat_salt_sd              =   5.3209047890042E-01
(PID.TID 0000.0001) %MON dynstat_salt_del2            =   1.0971453220932E-03
(PID.TID 0000.0001) %MON dynstat_sst_max              =   3.0935385631008E+01
(PID.TID 0000.0001) %MON dynstat_sst_min              =  -1.8990826534598E+00
(PID.TID 0000.0001) %MON dynstat_sst_mean             =   1.8112926273890E+01
(PID.TID 0000.0001) %MON dynstat_sst_sd               =   9.8112192340148E+00
(PID.TID 0000.0001) %MON dynstat_sst_del2             =   1.5075532313237E-02
(PID.TID 0000.0001) %MON dynstat_sss_max              =   4.1347268216807E+01
(PID.TID 0000.0001) %MON dynstat_sss_min              =   1.8752203082719E+01
(PID.TID 0000.0001) %MON dynstat_sss_mean             =   3.4622665157693E+01
(PID.TID 0000.0001) %MON dynstat_sss_sd               =   1.4860415838337E+00
(PID.TID 0000.0001) %MON dynstat_sss_del2             =   1.2347904205946E-02
(PID.TID 0000.0001) %MON forcing_qnet_max             =   1.7352910156250E+03
(PID.TID 0000.0001) %MON forcing_qnet_min             =  -1.0237218627930E+03
(PID.TID 0000.0001) %MON forcing_qnet_mean            =  -1.9741821373201E+01
(PID.TID 0000.0001) %MON forcing_qnet_sd              =   2.3430074888414E+02
(PID.TID 0000.0001) %MON forcing_qnet_del2            =   3.3186956729402E+00
(PID.TID 0000.0001) %MON forcing_qsw_max              =   0.0000000000000E+00
(PID.TID 0000.0001) %MON forcing_qsw_min              =  -4.3451073927101E+02
(PID.TID 0000.0001) %MON forcing_qsw_mean             =  -6.4020543032335E+01
(PID.TID 0000.0001) %MON forcing_qsw_sd               =   1.1147499368351E+02
(PID.TID 0000.0001) %MON forcing_qsw_del2             =   1.0100848546452E+00
(PID.TID 0000.0001) %MON forcing_empmr_max            =   5.4279495961964E-03
(PID.TID 0000.0001) %MON forcing_empmr_min            =  -7.8035883605480E-02
(PID.TID 0000.0001) %MON forcing_empmr_mean           =  -2.2764543688043E-04
(PID.TID 0000.0001) %MON forcing_empmr_sd             =   3.4342197163869E-03
(PID.TID 0000.0001) %MON forcing_empmr_del2           =   1.3547018785382E-04
(PID.TID 0000.0001) %MON forcing_fu_max               =   3.4823215738503E-01
(PID.TID 0000.0001) %MON forcing_fu_min               =  -3.4745100388521E-01
(PID.TID 0000.0001) %MON forcing_fu_mean              =  -2.0658839936629E-03
(PID.TID 0000.0001) %MON forcing_fu_sd                =   6.0412942784885E-02
(PID.TID 0000.0001) %MON forcing_fu_del2              =   5.9920119502211E-04
(PID.TID 0000.0001) %MON forcing_fv_max               =   2.9236846243877E-01
(PID.TID 0000.0001) %MON forcing_fv_min               =  -2.5697541769749E-01
(PID.TID 0000.0001) %MON forcing_fv_mean              =  -1.5510383269210E-02
(PID.TID 0000.0001) %MON forcing_fv_sd                =   5.9745440346451E-02
(PID.TID 0000.0001) %MON forcing_fv_del2              =   5.2484071280383E-04
(PID.TID 0000.0001) %MON trAdv_CFL_u_max              =   2.3659403246369E-03
(PID.TID 0000.0001) %MON trAdv_CFL_v_max              =   1.4962542319262E-03
(PID.TID 0000.0001) %MON trAdv_CFL_w_max              =   1.7183567522177E-03
(PID.TID 0000.0001) %MON advcfl_uvel_max              =   2.3395343588363E-03
(PID.TID 0000.0001) %MON advcfl_vvel_max              =   1.4824871474519E-03
(PID.TID 0000.0001) %MON advcfl_wvel_max              =   2.7142916036689E-03
(PID.TID 0000.0001) %MON advcfl_W_hf_max              =   1.7183567522177E-03
(PID.TID 0000.0001) %MON pe_b_mean                    =   4.9991416901779E-04
(PID.TID 0000.0001) %MON ke_max                       =   2.3166079088577E-01
(PID.TID 0000.0001) %MON ke_mean                      =   1.6520396486431E-04
(PID.TID 0000.0001) %MON ke_vol                       =   1.3398135598916E+18
(PID.TID 0000.0001) %MON vort_r_min                   =  -4.2463143180273E-06
(PID.TID 0000.0001) %MON vort_r_max                   =   2.2017625546431E-06
(PID.TID 0000.0001) %MON vort_a_mean                  =  -2.0549865324846E-05
(PID.TID 0000.0001) %MON vort_a_sd                    =   7.5259732097240E-05
(PID.TID 0000.0001) %MON vort_p_mean                  =  -2.4783260265112E-05
(PID.TID 0000.0001) %MON vort_p_sd                    =   1.2811931213091E-04
(PID.TID 0000.0001) %MON surfExpan_theta_mean         =  -6.2628430775287E-06
(PID.TID 0000.0001) %MON surfExpan_salt_mean          =   1.2490134378656E-06
(PID.TID 0000.0001) // =======================================================
(PID.TID 0000.0001) // End MONITOR dynamic field statistics
(PID.TID 0000.0001) // =======================================================
 cg2d: Sum(rhs),rhsMax =  -7.30557961214522E+01  3.64445647651925E+01
(PID.TID 0000.0001)      cg2d_init_res =   2.14729753204649E-01
(PID.TID 0000.0001)      cg2d_iters(min,last) =      -1      10
(PID.TID 0000.0001)      cg2d_last_res =   8.36676864705442E-08
(PID.TID 0000.0001) // =======================================================
(PID.TID 0000.0001) // Begin MONITOR dynamic field statistics
(PID.TID 0000.0001) // =======================================================
(PID.TID 0000.0001) %MON time_tsnumber                =                 72071
(PID.TID 0000.0001) %MON time_secondsf                =   6.4863900000000E+07
(PID.TID 0000.0001) %MON dynstat_eta_max              =   1.1963352244710E+00
(PID.TID 0000.0001) %MON dynstat_eta_min              =  -2.0532743105588E+00
(PID.TID 0000.0001) %MON dynstat_eta_mean             =   3.0937742407562E-02
(PID.TID 0000.0001) %MON dynstat_eta_sd               =   6.1187353013217E-01
(PID.TID 0000.0001) %MON dynstat_eta_del2             =   1.6526870420265E-03
(PID.TID 0000.0001) %MON dynstat_uvel_max             =   4.8700353298732E-01
(PID.TID 0000.0001) %MON dynstat_uvel_min             =  -7.9394532176210E-01
(PID.TID 0000.0001) %MON dynstat_uvel_mean            =  -2.9500738003720E-04
(PID.TID 0000.0001) %MON dynstat_uvel_sd              =   1.3100929018737E-02
(PID.TID 0000.0001) %MON dynstat_uvel_del2            =   8.9238108824875E-05
(PID.TID 0000.0001) %MON dynstat_vvel_max             =   2.9876564512533E-01
(PID.TID 0000.0001) %MON dynstat_vvel_min             =  -4.7625248705812E-01
(PID.TID 0000.0001) %MON dynstat_vvel_mean            =   4.6018789390000E-04
(PID.TID 0000.0001) %MON dynstat_vvel_sd              =   1.3614286293974E-02
(PID.TID 0000.0001) %MON dynstat_vvel_del2            =   8.6048204072916E-05
(PID.TID 0000.0001) %MON dynstat_wvel_max             =   1.0317814217127E-04
(PID.TID 0000.0001) %MON dynstat_wvel_min             =  -1.8075474238148E-04
(PID.TID 0000.0001) %MON dynstat_wvel_mean            =  -1.6283867121177E-07
(PID.TID 0000.0001) %MON dynstat_wvel_sd              =   7.6934096485761E-06
(PID.TID 0000.0001) %MON dynstat_wvel_del2            =   6.8494560663664E-08
(PID.TID 0000.0001) %MON dynstat_theta_max            =   3.0935136761507E+01
(PID.TID 0000.0001) %MON dynstat_theta_min            =  -3.0088282495216E+00
(PID.TID 0000.0001) %MON dynstat_theta_mean           =   3.9092461642229E+00
(PID.TID 0000.0001) %MON dynstat_theta_sd             =   4.5717271319682E+00
(PID.TID 0000.0001) %MON dynstat_theta_del2           =   2.6427431969599E-03
(PID.TID 0000.0001) %MON dynstat_salt_max             =   4.1347218765927E+01
(PID.TID 0000.0001) %MON dynstat_salt_min             =   1.8519090972170E+01
(PID.TID 0000.0001) %MON dynstat_salt_mean            =   3.4771927404122E+01
(PID.TID 0000.0001) %MON dynstat_salt_sd              =   5.3210301073205E-01
(PID.TID 0000.0001) %MON dynstat_salt_del2            =   1.1000589404462E-03
(PID.TID 0000.0001) %MON dynstat_sst_max              =   3.0935136761507E+01
(PID.TID 0000.0001) %MON dynstat_sst_min              =  -1.8991506691151E+00
(PID.TID 0000.0001) %MON dynstat_sst_mean             =   1.8113004837739E+01
(PID.TID 0000.0001) %MON dynstat_sst_sd               =   9.8112998364220E+00
(PID.TID 0000.0001) %MON dynstat_sst_del2             =   1.5073901011389E-02
(PID.TID 0000.0001) %MON dynstat_sss_max              =   4.1347218765927E+01
(PID.TID 0000.0001) %MON dynstat_sss_min              =   1.8752216420806E+01
(PID.TID 0000.0001) %MON dynstat_sss_mean             =   3.4622519960105E+01
(PID.TID 0000.0001) %MON dynstat_sss_sd               =   1.4863631779503E+00
(PID.TID 0000.0001) %MON dynstat_sss_del2             =   1.2388813154132E-02
(PID.TID 0000.0001) %MON forcing_qnet_max             =   1.7158927001953E+03
(PID.TID 0000.0001) %MON forcing_qnet_min             =  -1.0089200439453E+03
(PID.TID 0000.0001) %MON forcing_qnet_mean            =  -2.0610475570491E+01
(PID.TID 0000.0001) %MON forcing_qnet_sd              =   2.3399591463468E+02
(PID.TID 0000.0001) %MON forcing_qnet_del2            =   3.3453116217299E+00
(PID.TID 0000.0001) %MON forcing_qsw_max              =   0.0000000000000E+00
(PID.TID 0000.0001) %MON forcing_qsw_min              =  -4.3114404739139E+02
(PID.TID 0000.0001) %MON forcing_qsw_mean             =  -6.4700983008930E+01
(PID.TID 0000.0001) %MON forcing_qsw_sd               =   1.1149777552911E+02
(PID.TID 0000.0001) %MON forcing_qsw_del2             =   1.0158320288576E+00
(PID.TID 0000.0001) %MON forcing_empmr_max            =   5.3720567375422E-03
(PID.TID 0000.0001) %MON forcing_empmr_min            =  -7.7232040464878E-02
(PID.TID 0000.0001) %MON forcing_empmr_mean           =  -2.2524592543379E-04
(PID.TID 0000.0001) %MON forcing_empmr_sd             =   3.3990974336820E-03
(PID.TID 0000.0001) %MON forcing_empmr_del2           =   1.3404712774940E-04
(PID.TID 0000.0001) %MON forcing_fu_max               =   3.5341277314044E-01
(PID.TID 0000.0001) %MON forcing_fu_min               =  -3.6475077739596E-01
(PID.TID 0000.0001) %MON forcing_fu_mean              =  -2.1645400027924E-03
(PID.TID 0000.0001) %MON forcing_fu_sd                =   6.0444458418030E-02
(PID.TID 0000.0001) %MON forcing_fu_del2              =   5.9950025224261E-04
(PID.TID 0000.0001) %MON forcing_fv_max               =   2.8674354844227E-01
(PID.TID 0000.0001) %MON forcing_fv_min               =  -2.5589477903403E-01
(PID.TID 0000.0001) %MON forcing_fv_mean              =  -1.5450331666884E-02
(PID.TID 0000.0001) %MON forcing_fv_sd                =   5.9693391036465E-02
(PID.TID 0000.0001) %MON forcing_fv_del2              =   5.2347553135615E-04
(PID.TID 0000.0001) %MON trAdv_CFL_u_max              =   2.3355957448862E-03
(PID.TID 0000.0001) %MON trAdv_CFL_v_max              =   1.4066808825001E-03
(PID.TID 0000.0001) %MON trAdv_CFL_w_max              =   1.6832692399142E-03
(PID.TID 0000.0001) %MON advcfl_uvel_max              =   2.3072123731146E-03
(PID.TID 0000.0001) %MON advcfl_vvel_max              =   1.3924223655194E-03
(PID.TID 0000.0001) %MON advcfl_wvel_max              =   2.6863318422566E-03
(PID.TID 0000.0001) %MON advcfl_W_hf_max              =   1.6832692399142E-03
(PID.TID 0000.0001) %MON pe_b_mean                    =   5.0002654017432E-04
(PID.TID 0000.0001) %MON ke_max                       =   2.2536634388411E-01
(PID.TID 0000.0001) %MON ke_mean                      =   1.6497952674522E-04
(PID.TID 0000.0001) %MON ke_vol                       =   1.3398136319239E+18
(PID.TID 0000.0001) %MON vort_r_min                   =  -4.1109148945992E-06
(PID.TID 0000.0001) %MON vort_r_max                   =   2.1538548545005E-06
(PID.TID 0000.0001) %MON vort_a_mean                  =  -2.0549865324846E-05
(PID.TID 0000.0001) %MON vort_a_sd                    =   7.5259728615632E-05
(PID.TID 0000.0001) %MON vort_p_mean                  =  -2.4783258742279E-05
(PID.TID 0000.0001) %MON vort_p_sd                    =   1.2811931658136E-04
(PID.TID 0000.0001) %MON surfExpan_theta_mean         =  -6.2151130860929E-06
(PID.TID 0000.0001) %MON surfExpan_salt_mean          =   1.2354582024799E-06
(PID.TID 0000.0001) // =======================================================
(PID.TID 0000.0001) // End MONITOR dynamic field statistics
(PID.TID 0000.0001) // =======================================================
 Computing Diagnostic #     81  oceTAUX      Counter:       1   Parms: UU      U1      
           Vector  Mate for  oceTAUX      Diagnostic #     82  oceTAUY  exists 
 Computing Diagnostic #     82  oceTAUY      Counter:       1   Parms: VV      U1      
           Vector  Mate for  oceTAUY      Diagnostic #     81  oceTAUX  exists 
 Computing Diagnostic #     85  oceFWflx     Counter:       1   Parms: SM      U1      
 Computing Diagnostic #     86  oceSflux     Counter:       1   Parms: SM      U1      
 Computing Diagnostic #     87  oceQnet      Counter:       1   Parms: SM      U1      
 Computing Diagnostic #     88  oceQsw       Counter:       1   Parms: SM      U1      
 Computing Diagnostic #     27  SALT         Counter:       1   Parms: SMR     MR      
 Computing Diagnostic #     26  THETA        Counter:       1   Parms: SMR     MR      
 Computing Diagnostic #     45  UVELMASS     Counter:       1   Parms: UUr     MR      
           Vector  Mate for  UVELMASS     Diagnostic #     46  VVELMASS exists 
 Computing Diagnostic #     46  VVELMASS     Counter:       1   Parms: VVr     MR      
           Vector  Mate for  VVELMASS     Diagnostic #     45  UVELMASS exists 
 cg2d: Sum(rhs),rhsMax =  -7.19519950491891E+01  3.72360968605310E+01
(PID.TID 0000.0001)      cg2d_init_res =   2.01487617218863E-01
(PID.TID 0000.0001)      cg2d_iters(min,last) =      -1      10
(PID.TID 0000.0001)      cg2d_last_res =   8.55770709317117E-08
(PID.TID 0000.0001) // =======================================================
(PID.TID 0000.0001) // Begin MONITOR dynamic field statistics
(PID.TID 0000.0001) // =======================================================
(PID.TID 0000.0001) %MON time_tsnumber                =                 72072
(PID.TID 0000.0001) %MON time_secondsf                =   6.4864800000000E+07
(PID.TID 0000.0001) %MON dynstat_eta_max              =   1.2299066314961E+00
(PID.TID 0000.0001) %MON dynstat_eta_min              =  -2.0980676350786E+00
(PID.TID 0000.0001) %MON dynstat_eta_mean             =   3.1132081944997E-02
(PID.TID 0000.0001) %MON dynstat_eta_sd               =   6.1192287207625E-01
(PID.TID 0000.0001) %MON dynstat_eta_del2             =   1.6849293825478E-03
(PID.TID 0000.0001) %MON dynstat_uvel_max             =   4.5421998796163E-01
(PID.TID 0000.0001) %MON dynstat_uvel_min             =  -7.7945905863964E-01
(PID.TID 0000.0001) %MON dynstat_uvel_mean            =  -3.0034206126291E-04
(PID.TID 0000.0001) %MON dynstat_uvel_sd              =   1.3092651977800E-02
(PID.TID 0000.0001) %MON dynstat_uvel_del2            =   8.8288639707920E-05
(PID.TID 0000.0001) %MON dynstat_vvel_max             =   2.8342996563522E-01
(PID.TID 0000.0001) %MON dynstat_vvel_min             =  -4.4301354313204E-01
(PID.TID 0000.0001) %MON dynstat_vvel_mean            =   4.4136096298162E-04
(PID.TID 0000.0001) %MON dynstat_vvel_sd              =   1.3606681302591E-02
(PID.TID 0000.0001) %MON dynstat_vvel_del2            =   8.4677229460846E-05
(PID.TID 0000.0001) %MON dynstat_wvel_max             =   1.0295470749622E-04
(PID.TID 0000.0001) %MON dynstat_wvel_min             =  -1.8082535214565E-04
(PID.TID 0000.0001) %MON dynstat_wvel_mean            =  -1.5399288919843E-07
(PID.TID 0000.0001) %MON dynstat_wvel_sd              =   7.6838938485485E-06
(PID.TID 0000.0001) %MON dynstat_wvel_del2            =   6.8271188100743E-08
(PID.TID 0000.0001) %MON dynstat_theta_max            =   3.0934881970016E+01
(PID.TID 0000.0001) %MON dynstat_theta_min            =  -3.0091383340043E+00
(PID.TID 0000.0001) %MON dynstat_theta_mean           =   3.9092486926089E+00
(PID.TID 0000.0001) %MON dynstat_theta_sd             =   4.5717354281533E+00
(PID.TID 0000.0001) %MON dynstat_theta_del2           =   2.6426430398816E-03
(PID.TID 0000.0001) %MON dynstat_salt_max             =   4.1347173508827E+01
(PID.TID 0000.0001) %MON dynstat_salt_min             =   1.8519100966999E+01
(PID.TID 0000.0001) %MON dynstat_salt_mean            =   3.4771925518383E+01
(PID.TID 0000.0001) %MON dynstat_salt_sd              =   5.3211537235787E-01
(PID.TID 0000.0001) %MON dynstat_salt_del2            =   1.1029144201742E-03
(PID.TID 0000.0001) %MON dynstat_sst_max              =   3.0934881970016E+01
(PID.TID 0000.0001) %MON dynstat_sst_min              =  -1.8992024291809E+00
(PID.TID 0000.0001) %MON dynstat_sst_mean             =   1.8113085614672E+01
(PID.TID 0000.0001) %MON dynstat_sst_sd               =   9.8113843870142E+00
(PID.TID 0000.0001) %MON dynstat_sst_del2             =   1.5072317420188E-02
(PID.TID 0000.0001) %MON dynstat_sss_max              =   4.1347173508827E+01
(PID.TID 0000.0001) %MON dynstat_sss_min              =   1.8752229702371E+01
(PID.TID 0000.0001) %MON dynstat_sss_mean             =   3.4622376416360E+01
(PID.TID 0000.0001) %MON dynstat_sss_sd               =   1.4866803391032E+00
(PID.TID 0000.0001) %MON dynstat_sss_del2             =   1.2428880790227E-02
(PID.TID 0000.0001) %MON forcing_qnet_max             =   1.6957640380859E+03
(PID.TID 0000.0001) %MON forcing_qnet_min             =  -9.9637603759766E+02
(PID.TID 0000.0001) %MON forcing_qnet_mean            =  -2.1403790175608E+01
(PID.TID 0000.0001) %MON forcing_qnet_sd              =   2.3335734164417E+02
(PID.TID 0000.0001) %MON forcing_qnet_del2            =   3.3763197584568E+00
(PID.TID 0000.0001) %MON forcing_qsw_max              =   0.0000000000000E+00
(PID.TID 0000.0001) %MON forcing_qsw_min              =  -4.3105352295218E+02
(PID.TID 0000.0001) %MON forcing_qsw_mean             =  -6.5259055996763E+01
(PID.TID 0000.0001) %MON forcing_qsw_sd               =   1.1126253874174E+02
(PID.TID 0000.0001) %MON forcing_qsw_del2             =   1.0189682880269E+00
(PID.TID 0000.0001) %MON forcing_empmr_max            =   5.3167534060776E-03
(PID.TID 0000.0001) %MON forcing_empmr_min            =  -7.6437421143055E-02
(PID.TID 0000.0001) %MON forcing_empmr_mean           =  -2.2349046805056E-04
(PID.TID 0000.0001) %MON forcing_empmr_sd             =   3.3643589353834E-03
(PID.TID 0000.0001) %MON forcing_empmr_del2           =   1.3266721591581E-04
(PID.TID 0000.0001) %MON forcing_fu_max               =   3.5332590409281E-01
(PID.TID 0000.0001) %MON forcing_fu_min               =  -3.6797971745843E-01
(PID.TID 0000.0001) %MON forcing_fu_mean              =  -2.2019490064899E-03
(PID.TID 0000.0001) %MON forcing_fu_sd                =   6.0201280520341E-02
(PID.TID 0000.0001) %MON forcing_fu_del2              =   5.9758526130476E-04
(PID.TID 0000.0001) %MON forcing_fv_max               =   2.7851641525209E-01
(PID.TID 0000.0001) %MON forcing_fv_min               =  -2.5459281121347E-01
(PID.TID 0000.0001) %MON forcing_fv_mean              =  -1.5412427747345E-02
(PID.TID 0000.0001) %MON forcing_fv_sd                =   5.9586060323396E-02
(PID.TID 0000.0001) %MON forcing_fv_del2              =   5.2151773988279E-04
(PID.TID 0000.0001) %MON trAdv_CFL_u_max              =   2.2952213787736E-03
(PID.TID 0000.0001) %MON trAdv_CFL_v_max              =   1.3096039611318E-03
(PID.TID 0000.0001) %MON trAdv_CFL_w_max              =   1.6439714755174E-03
(PID.TID 0000.0001) %MON advcfl_uvel_max              =   2.2651151598680E-03
(PID.TID 0000.0001) %MON advcfl_vvel_max              =   1.2952414579407E-03
(PID.TID 0000.0001) %MON advcfl_wvel_max              =   2.6586929093237E-03
(PID.TID 0000.0001) %MON advcfl_W_hf_max              =   1.6439714755174E-03
(PID.TID 0000.0001) %MON pe_b_mean                    =   5.0012302570844E-04
(PID.TID 0000.0001) %MON ke_max                       =   2.2521391576895E-01
(PID.TID 0000.0001) %MON ke_mean                      =   1.6477749549201E-04
(PID.TID 0000.0001) %MON ke_vol                       =   1.3398137031969E+18
(PID.TID 0000.0001) %MON vort_r_min                   =  -3.9567565661631E-06
(PID.TID 0000.0001) %MON vort_r_max                   =   2.1057156312656E-06
(PID.TID 0000.0001) %MON vort_a_mean                  =  -2.0549865324846E-05
(PID.TID 0000.0001) %MON vort_a_sd                    =   7.5259724730963E-05
(PID.TID 0000.0001) %MON vort_p_mean                  =  -2.4783257238183E-05
(PID.TID 0000.0001) %MON vort_p_sd                    =   1.2811931852578E-04
(PID.TID 0000.0001) %MON surfExpan_theta_mean         =  -6.1783947886168E-06
(PID.TID 0000.0001) %MON surfExpan_salt_mean          =   1.2224869725497E-06
(PID.TID 0000.0001) // =======================================================
(PID.TID 0000.0001) // End MONITOR dynamic field statistics
(PID.TID 0000.0001) // =======================================================
 cg2d: Sum(rhs),rhsMax =  -7.19586744864593E+01  3.74625823137651E+01
(PID.TID 0000.0001)      cg2d_init_res =   1.92909865752016E-01
(PID.TID 0000.0001)      cg2d_iters(min,last) =      -1      10
(PID.TID 0000.0001)      cg2d_last_res =   8.63944157391045E-08
(PID.TID 0000.0001) // =======================================================
(PID.TID 0000.0001) // Begin MONITOR dynamic field statistics
(PID.TID 0000.0001) // =======================================================
(PID.TID 0000.0001) %MON time_tsnumber                =                 72073
(PID.TID 0000.0001) %MON time_secondsf                =   6.4865700000000E+07
(PID.TID 0000.0001) %MON dynstat_eta_max              =   1.2577956980830E+00
(PID.TID 0000.0001) %MON dynstat_eta_min              =  -2.1110465577768E+00
(PID.TID 0000.0001) %MON dynstat_eta_mean             =   3.1324347864094E-02
(PID.TID 0000.0001) %MON dynstat_eta_sd               =   6.1195675055139E-01
(PID.TID 0000.0001) %MON dynstat_eta_del2             =   1.7068670175507E-03
(PID.TID 0000.0001) %MON dynstat_uvel_max             =   4.1678113883307E-01
(PID.TID 0000.0001) %MON dynstat_uvel_min             =  -7.6166724470184E-01
(PID.TID 0000.0001) %MON dynstat_uvel_mean            =  -3.0734845910979E-04
(PID.TID 0000.0001) %MON dynstat_uvel_sd              =   1.3081956094480E-02
(PID.TID 0000.0001) %MON dynstat_uvel_del2            =   8.7407946437571E-05
(PID.TID 0000.0001) %MON dynstat_vvel_max             =   2.7076597306609E-01
(PID.TID 0000.0001) %MON dynstat_vvel_min             =  -4.0756480424258E-01
(PID.TID 0000.0001) %MON dynstat_vvel_mean            =   4.2149971939891E-04
(PID.TID 0000.0001) %MON dynstat_vvel_sd              =   1.3603539575411E-02
(PID.TID 0000.0001) %MON dynstat_vvel_del2            =   8.3699929997222E-05
(PID.TID 0000.0001) %MON dynstat_wvel_max             =   1.0749285860661E-04
(PID.TID 0000.0001) %MON dynstat_wvel_min             =  -1.8088580684582E-04
(PID.TID 0000.0001) %MON dynstat_wvel_mean            =  -1.4467864227782E-07
(PID.TID 0000.0001) %MON dynstat_wvel_sd              =   7.6763783083314E-06
(PID.TID 0000.0001) %MON dynstat_wvel_del2            =   6.8098402268577E-08
(PID.TID 0000.0001) %MON dynstat_theta_max            =   3.0934622163430E+01
(PID.TID 0000.0001) %MON dynstat_theta_min            =  -3.0094767955457E+00
(PID.TID 0000.0001) %MON dynstat_theta_mean           =   3.9092514182893E+00
(PID.TID 0000.0001) %MON dynstat_theta_sd             =   4.5717447395355E+00
(PID.TID 0000.0001) %MON dynstat_theta_del2           =   2.6425456364021E-03
(PID.TID 0000.0001) %MON dynstat_salt_max             =   4.1347131267053E+01
(PID.TID 0000.0001) %MON dynstat_salt_min             =   1.8519110942778E+01
(PID.TID 0000.0001) %MON dynstat_salt_mean            =   3.4771923665973E+01
(PID.TID 0000.0001) %MON dynstat_salt_sd              =   5.3212755713319E-01
(PID.TID 0000.0001) %MON dynstat_salt_del2            =   1.1057124360606E-03
(PID.TID 0000.0001) %MON dynstat_sst_max              =   3.0934622163430E+01
(PID.TID 0000.0001) %MON dynstat_sst_min              =  -1.8992359957242E+00
(PID.TID 0000.0001) %MON dynstat_sst_mean             =   1.8113181126915E+01
(PID.TID 0000.0001) %MON dynstat_sst_sd               =   9.8114828196558E+00
(PID.TID 0000.0001) %MON dynstat_sst_del2             =   1.5070796521852E-02
(PID.TID 0000.0001) %MON dynstat_sss_max              =   4.1347131267053E+01
(PID.TID 0000.0001) %MON dynstat_sss_min              =   1.8752242861608E+01
(PID.TID 0000.0001) %MON dynstat_sss_mean             =   3.4622235086435E+01
(PID.TID 0000.0001) %MON dynstat_sss_sd               =   1.4869928984897E+00
(PID.TID 0000.0001) %MON dynstat_sss_del2             =   1.2468118121538E-02
(PID.TID 0000.0001) %MON forcing_qnet_max             =   1.6758798828125E+03
(PID.TID 0000.0001) %MON forcing_qnet_min             =  -9.8296148681641E+02
(PID.TID 0000.0001) %MON forcing_qnet_mean            =  -2.5093610121545E+01
(PID.TID 0000.0001) %MON forcing_qnet_sd              =   2.3239179539980E+02
(PID.TID 0000.0001) %MON forcing_qnet_del2            =   3.4587666180555E+00
(PID.TID 0000.0001) %MON forcing_qsw_max              =   0.0000000000000E+00
(PID.TID 0000.0001) %MON forcing_qsw_min              =  -4.3352552567921E+02
(PID.TID 0000.0001) %MON forcing_qsw_mean             =  -6.7103659971540E+01
(PID.TID 0000.0001) %MON forcing_qsw_sd               =   1.1146091086733E+02
(PID.TID 0000.0001) %MON forcing_qsw_del2             =   1.0087195013183E+00
(PID.TID 0000.0001) %MON forcing_empmr_max            =   5.2619427442551E-03
(PID.TID 0000.0001) %MON forcing_empmr_min            =  -7.5650356709957E-02
(PID.TID 0000.0001) %MON forcing_empmr_mean           =  -2.2110580696170E-04
(PID.TID 0000.0001) %MON forcing_empmr_sd             =   3.3298922796815E-03
(PID.TID 0000.0001) %MON forcing_empmr_del2           =   1.3129446890015E-04
(PID.TID 0000.0001) %MON forcing_fu_max               =   3.4713589529049E-01
(PID.TID 0000.0001) %MON forcing_fu_min               =  -3.6958483536495E-01
(PID.TID 0000.0001) %MON forcing_fu_mean              =  -2.2755144083082E-03
(PID.TID 0000.0001) %MON forcing_fu_sd                =   5.9820097092510E-02
(PID.TID 0000.0001) %MON forcing_fu_del2              =   5.9462609866617E-04
(PID.TID 0000.0001) %MON forcing_fv_max               =   2.7201954247380E-01
(PID.TID 0000.0001) %MON forcing_fv_min               =  -2.5430960845234E-01
(PID.TID 0000.0001) %MON forcing_fv_mean              =  -1.5386146808792E-02
(PID.TID 0000.0001) %MON forcing_fv_sd                =   5.9487265342553E-02
(PID.TID 0000.0001) %MON forcing_fv_del2              =   5.1956574516805E-04
(PID.TID 0000.0001) %MON trAdv_CFL_u_max              =   2.2449316687453E-03
(PID.TID 0000.0001) %MON trAdv_CFL_v_max              =   1.2056960453070E-03
(PID.TID 0000.0001) %MON trAdv_CFL_w_max              =   1.6007542322637E-03
(PID.TID 0000.0001) %MON advcfl_uvel_max              =   2.2134119856918E-03
(PID.TID 0000.0001) %MON advcfl_vvel_max              =   1.1915997590511E-03
(PID.TID 0000.0001) %MON advcfl_wvel_max              =   2.6313167551289E-03
(PID.TID 0000.0001) %MON advcfl_W_hf_max              =   1.6007542322637E-03
(PID.TID 0000.0001) %MON pe_b_mean                    =   5.0019423251923E-04
(PID.TID 0000.0001) %MON ke_max                       =   2.2395899770254E-01
(PID.TID 0000.0001) %MON ke_mean                      =   1.6460325338258E-04
(PID.TID 0000.0001) %MON ke_vol                       =   1.3398137739145E+18
(PID.TID 0000.0001) %MON vort_r_min                   =  -3.7847509550426E-06
(PID.TID 0000.0001) %MON vort_r_max                   =   2.1182332189638E-06
(PID.TID 0000.0001) %MON vort_a_mean                  =  -2.0549865324846E-05
(PID.TID 0000.0001) %MON vort_a_sd                    =   7.5259720501831E-05
(PID.TID 0000.0001) %MON vort_p_mean                  =  -2.4783255750830E-05
(PID.TID 0000.0001) %MON vort_p_sd                    =   1.2811931856621E-04
(PID.TID 0000.0001) %MON surfExpan_theta_mean         =  -6.1147066223361E-06
(PID.TID 0000.0001) %MON surfExpan_salt_mean          =   1.2102600957047E-06
(PID.TID 0000.0001) // =======================================================
(PID.TID 0000.0001) // End MONITOR dynamic field statistics
(PID.TID 0000.0001) // =======================================================
 cg2d: Sum(rhs),rhsMax =  -7.30139616749183E+01  3.71452664931676E+01
(PID.TID 0000.0001)      cg2d_init_res =   1.88591761297292E-01
(PID.TID 0000.0001)      cg2d_iters(min,last) =      -1      10
(PID.TID 0000.0001)      cg2d_last_res =   8.73408524886906E-08
(PID.TID 0000.0001) // =======================================================
(PID.TID 0000.0001) // Begin MONITOR dynamic field statistics
(PID.TID 0000.0001) // =======================================================
(PID.TID 0000.0001) %MON time_tsnumber                =                 72074
(PID.TID 0000.0001) %MON time_secondsf                =   6.4866600000000E+07
(PID.TID 0000.0001) %MON dynstat_eta_max              =   1.2796509173834E+00
(PID.TID 0000.0001) %MON dynstat_eta_min              =  -2.0934035169527E+00
(PID.TID 0000.0001) %MON dynstat_eta_mean             =   3.1514510457276E-02
(PID.TID 0000.0001) %MON dynstat_eta_sd               =   6.1197231839519E-01
(PID.TID 0000.0001) %MON dynstat_eta_del2             =   1.7175209829532E-03
(PID.TID 0000.0001) %MON dynstat_uvel_max             =   3.7534605589772E-01
(PID.TID 0000.0001) %MON dynstat_uvel_min             =  -7.4067196633647E-01
(PID.TID 0000.0001) %MON dynstat_uvel_mean            =  -3.1592091115892E-04
(PID.TID 0000.0001) %MON dynstat_uvel_sd              =   1.3069521339908E-02
(PID.TID 0000.0001) %MON dynstat_uvel_del2            =   8.6614812615372E-05
(PID.TID 0000.0001) %MON dynstat_vvel_max             =   2.6840058883866E-01
(PID.TID 0000.0001) %MON dynstat_vvel_min             =  -3.7015303654413E-01
(PID.TID 0000.0001) %MON dynstat_vvel_mean            =   4.0081352781943E-04
(PID.TID 0000.0001) %MON dynstat_vvel_sd              =   1.3604609395036E-02
(PID.TID 0000.0001) %MON dynstat_vvel_del2            =   8.3141612855349E-05
(PID.TID 0000.0001) %MON dynstat_wvel_max             =   1.1333934174886E-04
(PID.TID 0000.0001) %MON dynstat_wvel_min             =  -1.8094038561206E-04
(PID.TID 0000.0001) %MON dynstat_wvel_mean            =  -1.3516572504210E-07
(PID.TID 0000.0001) %MON dynstat_wvel_sd              =   7.6694919273083E-06
(PID.TID 0000.0001) %MON dynstat_wvel_del2            =   6.7958554959143E-08
(PID.TID 0000.0001) %MON dynstat_theta_max            =   3.0934355926048E+01
(PID.TID 0000.0001) %MON dynstat_theta_min            =  -3.0098434137923E+00
(PID.TID 0000.0001) %MON dynstat_theta_mean           =   3.9092542167658E+00
(PID.TID 0000.0001) %MON dynstat_theta_sd             =   4.5717544320438E+00
(PID.TID 0000.0001) %MON dynstat_theta_del2           =   2.6424548329856E-03
(PID.TID 0000.0001) %MON dynstat_salt_max             =   4.1347091044603E+01
(PID.TID 0000.0001) %MON dynstat_salt_min             =   1.8519120902299E+01
(PID.TID 0000.0001) %MON dynstat_salt_mean            =   3.4771921848837E+01
(PID.TID 0000.0001) %MON dynstat_salt_sd              =   5.3213954533305E-01
(PID.TID 0000.0001) %MON dynstat_salt_del2            =   1.1084546061552E-03
(PID.TID 0000.0001) %MON dynstat_sst_max              =   3.0934355926048E+01
(PID.TID 0000.0001) %MON dynstat_sst_min              =  -1.8992508438705E+00
(PID.TID 0000.0001) %MON dynstat_sst_mean             =   1.8113283663128E+01
(PID.TID 0000.0001) %MON dynstat_sst_sd               =   9.8115874023838E+00
(PID.TID 0000.0001) %MON dynstat_sst_del2             =   1.5069405161998E-02
(PID.TID 0000.0001) %MON dynstat_sss_max              =   4.1347091044603E+01
(PID.TID 0000.0001) %MON dynstat_sss_min              =   1.8752255922541E+01
(PID.TID 0000.0001) %MON dynstat_sss_mean             =   3.4622096659121E+01
(PID.TID 0000.0001) %MON dynstat_sss_sd               =   1.4873002657996E+00
(PID.TID 0000.0001) %MON dynstat_sss_del2             =   1.2506552241340E-02
(PID.TID 0000.0001) %MON forcing_qnet_max             =   1.6571824951172E+03
(PID.TID 0000.0001) %MON forcing_qnet_min             =  -2.1116821289062E+03
(PID.TID 0000.0001) %MON forcing_qnet_mean            =  -2.6607270134833E+01
(PID.TID 0000.0001) %MON forcing_qnet_sd              =   2.3272568335509E+02
(PID.TID 0000.0001) %MON forcing_qnet_del2            =   4.0156825695925E+00
(PID.TID 0000.0001) %MON forcing_qsw_max              =   0.0000000000000E+00
(PID.TID 0000.0001) %MON forcing_qsw_min              =  -4.3496050302547E+02
(PID.TID 0000.0001) %MON forcing_qsw_mean             =  -6.7969343558880E+01
(PID.TID 0000.0001) %MON forcing_qsw_sd               =   1.1125723517997E+02
(PID.TID 0000.0001) %MON forcing_qsw_del2             =   1.0099632951569E+00
(PID.TID 0000.0001) %MON forcing_empmr_max            =   5.2077220752835E-03
(PID.TID 0000.0001) %MON forcing_empmr_min            =  -7.4870847165585E-02
(PID.TID 0000.0001) %MON forcing_empmr_mean           =  -2.1868698215931E-04
(PID.TID 0000.0001) %MON forcing_empmr_sd             =   3.2958834997396E-03
(PID.TID 0000.0001) %MON forcing_empmr_del2           =   1.2993501415965E-04
(PID.TID 0000.0001) %MON forcing_fu_max               =   3.3836655423764E-01
(PID.TID 0000.0001) %MON forcing_fu_min               =  -3.6391261428737E-01
(PID.TID 0000.0001) %MON forcing_fu_mean              =  -2.3320133188786E-03
(PID.TID 0000.0001) %MON forcing_fu_sd                =   5.9534595436284E-02
(PID.TID 0000.0001) %MON forcing_fu_del2              =   5.9165076037772E-04
(PID.TID 0000.0001) %MON forcing_fv_max               =   2.8639285360042E-01
(PID.TID 0000.0001) %MON forcing_fv_min               =  -2.5411530064328E-01
(PID.TID 0000.0001) %MON forcing_fv_mean              =  -1.5342093313803E-02
(PID.TID 0000.0001) %MON forcing_fv_sd                =   5.9528181644377E-02
(PID.TID 0000.0001) %MON forcing_fv_del2              =   5.2069543791454E-04
(PID.TID 0000.0001) %MON trAdv_CFL_u_max              =   2.1849769412716E-03
(PID.TID 0000.0001) %MON trAdv_CFL_v_max              =   1.1720338104392E-03
(PID.TID 0000.0001) %MON trAdv_CFL_w_max              =   1.5539570055512E-03
(PID.TID 0000.0001) %MON advcfl_uvel_max              =   2.1523995145634E-03
(PID.TID 0000.0001) %MON advcfl_vvel_max              =   1.1149425049869E-03
(PID.TID 0000.0001) %MON advcfl_wvel_max              =   2.6042033796725E-03
(PID.TID 0000.0001) %MON advcfl_W_hf_max              =   1.5539570055512E-03
(PID.TID 0000.0001) %MON pe_b_mean                    =   5.0023550848884E-04
(PID.TID 0000.0001) %MON ke_max                       =   2.2167346745201E-01
(PID.TID 0000.0001) %MON ke_mean                      =   1.6446195643394E-04
(PID.TID 0000.0001) %MON ke_vol                       =   1.3398138438775E+18
(PID.TID 0000.0001) %MON vort_r_min                   =  -3.5960248234855E-06
(PID.TID 0000.0001) %MON vort_r_max                   =   2.2118008470715E-06
(PID.TID 0000.0001) %MON vort_a_mean                  =  -2.0549865324846E-05
(PID.TID 0000.0001) %MON vort_a_sd                    =   7.5259715993763E-05
(PID.TID 0000.0001) %MON vort_p_mean                  =  -2.4783254287387E-05
(PID.TID 0000.0001) %MON vort_p_sd                    =   1.2811931723100E-04
(PID.TID 0000.0001) %MON surfExpan_theta_mean         =  -6.0457320221287E-06
(PID.TID 0000.0001) %MON surfExpan_salt_mean          =   1.1972193191586E-06
(PID.TID 0000.0001) // =======================================================
(PID.TID 0000.0001) // End MONITOR dynamic field statistics
(PID.TID 0000.0001) // =======================================================
 cg2d: Sum(rhs),rhsMax =  -7.51373804413354E+01  3.63125230151712E+01
(PID.TID 0000.0001)      cg2d_init_res =   1.88524934528263E-01
(PID.TID 0000.0001)      cg2d_iters(min,last) =      -1      10
(PID.TID 0000.0001)      cg2d_last_res =   8.86254240394273E-08
(PID.TID 0000.0001) // =======================================================
(PID.TID 0000.0001) // Begin MONITOR dynamic field statistics
(PID.TID 0000.0001) // =======================================================
(PID.TID 0000.0001) %MON time_tsnumber                =                 72075
(PID.TID 0000.0001) %MON time_secondsf                =   6.4867500000000E+07
(PID.TID 0000.0001) %MON dynstat_eta_max              =   1.2951636683857E+00
(PID.TID 0000.0001) %MON dynstat_eta_min              =  -2.0467338761127E+00
(PID.TID 0000.0001) %MON dynstat_eta_mean             =   3.1703969983879E-02
(PID.TID 0000.0001) %MON dynstat_eta_sd               =   6.1196867243417E-01
(PID.TID 0000.0001) %MON dynstat_eta_del2             =   1.7165350372200E-03
(PID.TID 0000.0001) %MON dynstat_uvel_max             =   3.3061441383650E-01
(PID.TID 0000.0001) %MON dynstat_uvel_min             =  -7.1661757167156E-01
(PID.TID 0000.0001) %MON dynstat_uvel_mean            =  -3.2592781045658E-04
(PID.TID 0000.0001) %MON dynstat_uvel_sd              =   1.3055702565971E-02
(PID.TID 0000.0001) %MON dynstat_uvel_del2            =   8.5923176371738E-05
(PID.TID 0000.0001) %MON dynstat_vvel_max             =   2.6415374299491E-01
(PID.TID 0000.0001) %MON dynstat_vvel_min             =  -3.3104453809399E-01
(PID.TID 0000.0001) %MON dynstat_vvel_mean            =   3.7948683371965E-04
(PID.TID 0000.0001) %MON dynstat_vvel_sd              =   1.3609288700181E-02
(PID.TID 0000.0001) %MON dynstat_vvel_del2            =   8.2988995799417E-05
(PID.TID 0000.0001) %MON dynstat_wvel_max             =   1.1799474894069E-04
(PID.TID 0000.0001) %MON dynstat_wvel_min             =  -1.8098465596591E-04
(PID.TID 0000.0001) %MON dynstat_wvel_mean            =  -1.2642935482978E-07
(PID.TID 0000.0001) %MON dynstat_wvel_sd              =   7.6632547866321E-06
(PID.TID 0000.0001) %MON dynstat_wvel_del2            =   6.7840155698857E-08
(PID.TID 0000.0001) %MON dynstat_theta_max            =   3.0934084212503E+01
(PID.TID 0000.0001) %MON dynstat_theta_min            =  -3.0102373365549E+00
(PID.TID 0000.0001) %MON dynstat_theta_mean           =   3.9092570398382E+00
(PID.TID 0000.0001) %MON dynstat_theta_sd             =   4.5717642758399E+00
(PID.TID 0000.0001) %MON dynstat_theta_del2           =   2.6423559721983E-03
(PID.TID 0000.0001) %MON dynstat_salt_max             =   4.1347052088814E+01
(PID.TID 0000.0001) %MON dynstat_salt_min             =   1.8519130848073E+01
(PID.TID 0000.0001) %MON dynstat_salt_mean            =   3.4771920041943E+01
(PID.TID 0000.0001) %MON dynstat_salt_sd              =   5.3215135556278E-01
(PID.TID 0000.0001) %MON dynstat_salt_del2            =   1.1111387523222E-03
(PID.TID 0000.0001) %MON dynstat_sst_max              =   3.0934084212503E+01
(PID.TID 0000.0001) %MON dynstat_sst_min              =  -1.8992467394053E+00
(PID.TID 0000.0001) %MON dynstat_sst_mean             =   1.8113386369989E+01
(PID.TID 0000.0001) %MON dynstat_sst_sd               =   9.8116943455744E+00
(PID.TID 0000.0001) %MON dynstat_sst_del2             =   1.5067808612866E-02
(PID.TID 0000.0001) %MON dynstat_sss_max              =   4.1347052088814E+01
(PID.TID 0000.0001) %MON dynstat_sss_min              =   1.8752268881649E+01
(PID.TID 0000.0001) %MON dynstat_sss_mean             =   3.4621958401648E+01
(PID.TID 0000.0001) %MON dynstat_sss_sd               =   1.4876027692967E+00
(PID.TID 0000.0001) %MON dynstat_sss_del2             =   1.2544149141078E-02
(PID.TID 0000.0001) %MON forcing_qnet_max             =   1.6377701416016E+03
(PID.TID 0000.0001) %MON forcing_qnet_min             =  -9.5857944704135E+02
(PID.TID 0000.0001) %MON forcing_qnet_mean            =  -2.7119583557313E+01
(PID.TID 0000.0001) %MON forcing_qnet_sd              =   2.2922183384091E+02
(PID.TID 0000.0001) %MON forcing_qnet_del2            =   3.3818148124726E+00
(PID.TID 0000.0001) %MON forcing_qsw_max              =   0.0000000000000E+00
(PID.TID 0000.0001) %MON forcing_qsw_min              =  -4.3461913493418E+02
(PID.TID 0000.0001) %MON forcing_qsw_mean             =  -6.8683006961651E+01
(PID.TID 0000.0001) %MON forcing_qsw_sd               =   1.1088080892871E+02
(PID.TID 0000.0001) %MON forcing_qsw_del2             =   1.0088430051926E+00
(PID.TID 0000.0001) %MON forcing_empmr_max            =   5.1540923304856E-03
(PID.TID 0000.0001) %MON forcing_empmr_min            =  -7.4100561439991E-02
(PID.TID 0000.0001) %MON forcing_empmr_mean           =  -2.1787845559291E-04
(PID.TID 0000.0001) %MON forcing_empmr_sd             =   3.2622884430546E-03
(PID.TID 0000.0001) %MON forcing_empmr_del2           =   1.2861720111244E-04
(PID.TID 0000.0001) %MON forcing_fu_max               =   3.2966355110422E-01
(PID.TID 0000.0001) %MON forcing_fu_min               =  -3.3892413455398E-01
(PID.TID 0000.0001) %MON forcing_fu_mean              =  -2.3367645288061E-03
(PID.TID 0000.0001) %MON forcing_fu_sd                =   5.9106493366721E-02
(PID.TID 0000.0001) %MON forcing_fu_del2              =   5.8726343625958E-04
(PID.TID 0000.0001) %MON forcing_fv_max               =   2.9176843971987E-01
(PID.TID 0000.0001) %MON forcing_fv_min               =  -2.5369533523530E-01
(PID.TID 0000.0001) %MON forcing_fv_mean              =  -1.5346002305443E-02
(PID.TID 0000.0001) %MON forcing_fv_sd                =   5.9464717416632E-02
(PID.TID 0000.0001) %MON forcing_fv_del2              =   5.1999026302674E-04
(PID.TID 0000.0001) %MON trAdv_CFL_u_max              =   2.1157410032911E-03
(PID.TID 0000.0001) %MON trAdv_CFL_v_max              =   1.1743092676531E-03
(PID.TID 0000.0001) %MON trAdv_CFL_w_max              =   1.5039264384563E-03
(PID.TID 0000.0001) %MON advcfl_uvel_max              =   2.0824972234641E-03
(PID.TID 0000.0001) %MON advcfl_vvel_max              =   1.1236454865690E-03
(PID.TID 0000.0001) %MON advcfl_wvel_max              =   2.5774108326953E-03
(PID.TID 0000.0001) %MON advcfl_W_hf_max              =   1.5039264384563E-03
(PID.TID 0000.0001) %MON pe_b_mean                    =   5.0024549380589E-04
(PID.TID 0000.0001) %MON ke_max                       =   2.1844867967986E-01
(PID.TID 0000.0001) %MON ke_mean                      =   1.6435043978432E-04
(PID.TID 0000.0001) %MON ke_vol                       =   1.3398139130752E+18
(PID.TID 0000.0001) %MON vort_r_min                   =  -3.3919049963740E-06
(PID.TID 0000.0001) %MON vort_r_max                   =   2.2998409154747E-06
(PID.TID 0000.0001) %MON vort_a_mean                  =  -2.0549865324846E-05
(PID.TID 0000.0001) %MON vort_a_sd                    =   7.5259711267667E-05
(PID.TID 0000.0001) %MON vort_p_mean                  =  -2.4783252851197E-05
(PID.TID 0000.0001) %MON vort_p_sd                    =   1.2811931498866E-04
(PID.TID 0000.0001) %MON surfExpan_theta_mean         =  -5.9953557171662E-06
(PID.TID 0000.0001) %MON surfExpan_salt_mean          =   1.1859742491250E-06
(PID.TID 0000.0001) // =======================================================
(PID.TID 0000.0001) // End MONITOR dynamic field statistics
(PID.TID 0000.0001) // =======================================================
 Computing Diagnostic #     81  oceTAUX      Counter:       1   Parms: UU      U1      
           Vector  Mate for  oceTAUX      Diagnostic #     82  oceTAUY  exists 
 Computing Diagnostic #     82  oceTAUY      Counter:       1   Parms: VV      U1      
           Vector  Mate for  oceTAUY      Diagnostic #     81  oceTAUX  exists 
 Computing Diagnostic #     85  oceFWflx     Counter:       1   Parms: SM      U1      
 Computing Diagnostic #     86  oceSflux     Counter:       1   Parms: SM      U1      
 Computing Diagnostic #     87  oceQnet      Counter:       1   Parms: SM      U1      
 Computing Diagnostic #     88  oceQsw       Counter:       1   Parms: SM      U1      
 Computing Diagnostic #     27  SALT         Counter:       1   Parms: SMR     MR      
 Computing Diagnostic #     26  THETA        Counter:       1   Parms: SMR     MR      
 Computing Diagnostic #     45  UVELMASS     Counter:       1   Parms: UUr     MR      
           Vector  Mate for  UVELMASS     Diagnostic #     46  VVELMASS exists 
 Computing Diagnostic #     46  VVELMASS     Counter:       1   Parms: VVr     MR      
           Vector  Mate for  VVELMASS     Diagnostic #     45  UVELMASS exists 
 cg2d: Sum(rhs),rhsMax =  -7.60518893321665E+01  3.60869195090333E+01
(PID.TID 0000.0001)      cg2d_init_res =   1.86977079638857E-01
(PID.TID 0000.0001)      cg2d_iters(min,last) =      -1      10
(PID.TID 0000.0001)      cg2d_last_res =   8.75215807943300E-08
(PID.TID 0000.0001) // =======================================================
(PID.TID 0000.0001) // Begin MONITOR dynamic field statistics
(PID.TID 0000.0001) // =======================================================
(PID.TID 0000.0001) %MON time_tsnumber                =                 72076
(PID.TID 0000.0001) %MON time_secondsf                =   6.4868400000000E+07
(PID.TID 0000.0001) %MON dynstat_eta_max              =   1.3040746409678E+00
(PID.TID 0000.0001) %MON dynstat_eta_min              =  -1.9729950867185E+00
(PID.TID 0000.0001) %MON dynstat_eta_mean             =   3.1890475273356E-02
(PID.TID 0000.0001) %MON dynstat_eta_sd               =   6.1194366500928E-01
(PID.TID 0000.0001) %MON dynstat_eta_del2             =   1.7041335997736E-03
(PID.TID 0000.0001) %MON dynstat_uvel_max             =   3.1438701814127E-01
(PID.TID 0000.0001) %MON dynstat_uvel_min             =  -6.8968820238387E-01
(PID.TID 0000.0001) %MON dynstat_uvel_mean            =  -3.3724368617966E-04
(PID.TID 0000.0001) %MON dynstat_uvel_sd              =   1.3040966765508E-02
(PID.TID 0000.0001) %MON dynstat_uvel_del2            =   8.5344594191626E-05
(PID.TID 0000.0001) %MON dynstat_vvel_max             =   2.5804250295586E-01
(PID.TID 0000.0001) %MON dynstat_vvel_min             =  -3.1704679202829E-01
(PID.TID 0000.0001) %MON dynstat_vvel_mean            =   3.5774662689324E-04
(PID.TID 0000.0001) %MON dynstat_vvel_sd              =   1.3617065885126E-02
(PID.TID 0000.0001) %MON dynstat_vvel_del2            =   8.3195282372509E-05
(PID.TID 0000.0001) %MON dynstat_wvel_max             =   1.2144315262086E-04
(PID.TID 0000.0001) %MON dynstat_wvel_min             =  -1.8103474575636E-04
(PID.TID 0000.0001) %MON dynstat_wvel_mean            =  -1.1610453108576E-07
(PID.TID 0000.0001) %MON dynstat_wvel_sd              =   7.6559251680631E-06
(PID.TID 0000.0001) %MON dynstat_wvel_del2            =   6.7721694498573E-08
(PID.TID 0000.0001) %MON dynstat_theta_max            =   3.0933805607802E+01
(PID.TID 0000.0001) %MON dynstat_theta_min            =  -3.0106570141313E+00
(PID.TID 0000.0001) %MON dynstat_theta_mean           =   3.9092599074675E+00
(PID.TID 0000.0001) %MON dynstat_theta_sd             =   4.5717744294681E+00
(PID.TID 0000.0001) %MON dynstat_theta_del2           =   2.6422550749060E-03
(PID.TID 0000.0001) %MON dynstat_salt_max             =   4.1347013899993E+01
(PID.TID 0000.0001) %MON dynstat_salt_min             =   1.8519140782936E+01
(PID.TID 0000.0001) %MON dynstat_salt_mean            =   3.4771918280027E+01
(PID.TID 0000.0001) %MON dynstat_salt_sd              =   5.3216296060788E-01
(PID.TID 0000.0001) %MON dynstat_salt_del2            =   1.1137665859202E-03
(PID.TID 0000.0001) %MON dynstat_sst_max              =   3.0933805607802E+01
(PID.TID 0000.0001) %MON dynstat_sst_min              =  -1.8992237409795E+00
(PID.TID 0000.0001) %MON dynstat_sst_mean             =   1.8113493471266E+01
(PID.TID 0000.0001) %MON dynstat_sst_sd               =   9.8118066823429E+00
(PID.TID 0000.0001) %MON dynstat_sst_del2             =   1.5066163369580E-02
(PID.TID 0000.0001) %MON dynstat_sss_max              =   4.1347013899993E+01
(PID.TID 0000.0001) %MON dynstat_sss_min              =   1.8752281744086E+01
(PID.TID 0000.0001) %MON dynstat_sss_mean             =   3.4621823185953E+01
(PID.TID 0000.0001) %MON dynstat_sss_sd               =   1.4878998347096E+00
(PID.TID 0000.0001) %MON dynstat_sss_del2             =   1.2580936831520E-02
(PID.TID 0000.0001) %MON forcing_qnet_max             =   1.6195234375000E+03
(PID.TID 0000.0001) %MON forcing_qnet_min             =  -9.4860741899840E+02
(PID.TID 0000.0001) %MON forcing_qnet_mean            =  -2.8453510927496E+01
(PID.TID 0000.0001) %MON forcing_qnet_sd              =   2.2657349017643E+02
(PID.TID 0000.0001) %MON forcing_qnet_del2            =   3.3976883971326E+00
(PID.TID 0000.0001) %MON forcing_qsw_max              =   0.0000000000000E+00
(PID.TID 0000.0001) %MON forcing_qsw_min              =  -4.3250308754911E+02
(PID.TID 0000.0001) %MON forcing_qsw_mean             =  -6.9197605126127E+01
(PID.TID 0000.0001) %MON forcing_qsw_sd               =   1.1036791731883E+02
(PID.TID 0000.0001) %MON forcing_qsw_del2             =   1.0053983807222E+00
(PID.TID 0000.0001) %MON forcing_empmr_max            =   5.1010525785387E-03
(PID.TID 0000.0001) %MON forcing_empmr_min            =  -7.3336996138096E-02
(PID.TID 0000.0001) %MON forcing_empmr_mean           =  -2.1448108289885E-04
(PID.TID 0000.0001) %MON forcing_empmr_sd             =   3.2286454510319E-03
(PID.TID 0000.0001) %MON forcing_empmr_del2           =   1.2723267105584E-04
(PID.TID 0000.0001) %MON forcing_fu_max               =   3.2032546697968E-01
(PID.TID 0000.0001) %MON forcing_fu_min               =  -3.5397124001726E-01
(PID.TID 0000.0001) %MON forcing_fu_mean              =  -2.4559885004886E-03
(PID.TID 0000.0001) %MON forcing_fu_sd                =   5.8788469962806E-02
(PID.TID 0000.0001) %MON forcing_fu_del2              =   5.8622722178510E-04
(PID.TID 0000.0001) %MON forcing_fv_max               =   2.9117034794217E-01
(PID.TID 0000.0001) %MON forcing_fv_min               =  -2.5326209088798E-01
(PID.TID 0000.0001) %MON forcing_fv_mean              =  -1.5340678100317E-02
(PID.TID 0000.0001) %MON forcing_fv_sd                =   5.9417252736298E-02
(PID.TID 0000.0001) %MON forcing_fv_del2              =   5.1876749145219E-04
(PID.TID 0000.0001) %MON trAdv_CFL_u_max              =   2.0377356434711E-03
(PID.TID 0000.0001) %MON trAdv_CFL_v_max              =   1.1762902878564E-03
(PID.TID 0000.0001) %MON trAdv_CFL_w_max              =   1.4510287282661E-03
(PID.TID 0000.0001) %MON advcfl_uvel_max              =   2.0042402297926E-03
(PID.TID 0000.0001) %MON advcfl_vvel_max              =   1.1321354773796E-03
(PID.TID 0000.0001) %MON advcfl_wvel_max              =   2.5508520395859E-03
(PID.TID 0000.0001) %MON advcfl_W_hf_max              =   1.4510287282661E-03
(PID.TID 0000.0001) %MON pe_b_mean                    =   5.0022049488365E-04
(PID.TID 0000.0001) %MON ke_max                       =   2.1439083619246E-01
(PID.TID 0000.0001) %MON ke_mean                      =   1.6426804887352E-04
(PID.TID 0000.0001) %MON ke_vol                       =   1.3398139820170E+18
(PID.TID 0000.0001) %MON vort_r_min                   =  -3.1739052849926E-06
(PID.TID 0000.0001) %MON vort_r_max                   =   2.3816380563003E-06
(PID.TID 0000.0001) %MON vort_a_mean                  =  -2.0549865324846E-05
(PID.TID 0000.0001) %MON vort_a_sd                    =   7.5259706390123E-05
(PID.TID 0000.0001) %MON vort_p_mean                  =  -2.4783251434893E-05
(PID.TID 0000.0001) %MON vort_p_sd                    =   1.2811931218832E-04
(PID.TID 0000.0001) %MON surfExpan_theta_mean         =  -5.8711633772752E-06
(PID.TID 0000.0001) %MON surfExpan_salt_mean          =   1.1722927853647E-06
(PID.TID 0000.0001) // =======================================================
(PID.TID 0000.0001) // End MONITOR dynamic field statistics
(PID.TID 0000.0001) // =======================================================
 cg2d: Sum(rhs),rhsMax =  -7.65266936688176E+01  3.60708617800461E+01
(PID.TID 0000.0001)      cg2d_init_res =   1.86018623771515E-01
(PID.TID 0000.0001)      cg2d_iters(min,last) =      -1      10
(PID.TID 0000.0001)      cg2d_last_res =   8.52725329666132E-08
(PID.TID 0000.0001) // =======================================================
(PID.TID 0000.0001) // Begin MONITOR dynamic field statistics
(PID.TID 0000.0001) // =======================================================
(PID.TID 0000.0001) %MON time_tsnumber                =                 72077
(PID.TID 0000.0001) %MON time_secondsf                =   6.4869300000000E+07
(PID.TID 0000.0001) %MON dynstat_eta_max              =   1.3061794633216E+00
(PID.TID 0000.0001) %MON dynstat_eta_min              =  -1.8744637570178E+00
(PID.TID 0000.0001) %MON dynstat_eta_mean             =   3.2075293691663E-02
(PID.TID 0000.0001) %MON dynstat_eta_sd               =   6.1190023574587E-01
(PID.TID 0000.0001) %MON dynstat_eta_del2             =   1.6811029046272E-03
(PID.TID 0000.0001) %MON dynstat_uvel_max             =   3.3715864007782E-01
(PID.TID 0000.0001) %MON dynstat_uvel_min             =  -6.6010465549102E-01
(PID.TID 0000.0001) %MON dynstat_uvel_mean            =  -3.4963587520357E-04
(PID.TID 0000.0001) %MON dynstat_uvel_sd              =   1.3025757957192E-02
(PID.TID 0000.0001) %MON dynstat_uvel_del2            =   8.4883836837888E-05
(PID.TID 0000.0001) %MON dynstat_vvel_max             =   2.5011135082207E-01
(PID.TID 0000.0001) %MON dynstat_vvel_min             =  -3.1890270022075E-01
(PID.TID 0000.0001) %MON dynstat_vvel_mean            =   3.3580818054788E-04
(PID.TID 0000.0001) %MON dynstat_vvel_sd              =   1.3627132185764E-02
(PID.TID 0000.0001) %MON dynstat_vvel_del2            =   8.3686459779737E-05
(PID.TID 0000.0001) %MON dynstat_wvel_max             =   1.2368444495876E-04
(PID.TID 0000.0001) %MON dynstat_wvel_min             =  -1.8107606017470E-04
(PID.TID 0000.0001) %MON dynstat_wvel_mean            =  -1.0681758691914E-07
(PID.TID 0000.0001) %MON dynstat_wvel_sd              =   7.6483745531567E-06
(PID.TID 0000.0001) %MON dynstat_wvel_del2            =   6.7601689545395E-08
(PID.TID 0000.0001) %MON dynstat_theta_max            =   3.0933521076215E+01
(PID.TID 0000.0001) %MON dynstat_theta_min            =  -3.0111006058056E+00
(PID.TID 0000.0001) %MON dynstat_theta_mean           =   3.9092629616951E+00
(PID.TID 0000.0001) %MON dynstat_theta_sd             =   4.5717854974154E+00
(PID.TID 0000.0001) %MON dynstat_theta_del2           =   2.6421517219119E-03
(PID.TID 0000.0001) %MON dynstat_salt_max             =   4.1346975947710E+01
(PID.TID 0000.0001) %MON dynstat_salt_min             =   1.8519150709964E+01
(PID.TID 0000.0001) %MON dynstat_salt_mean            =   3.4771916547570E+01
(PID.TID 0000.0001) %MON dynstat_salt_sd              =   5.3217437781223E-01
(PID.TID 0000.0001) %MON dynstat_salt_del2            =   1.1163398237806E-03
(PID.TID 0000.0001) %MON dynstat_sst_max              =   3.0933521076215E+01
(PID.TID 0000.0001) %MON dynstat_sst_min              =  -1.8991833250922E+00
(PID.TID 0000.0001) %MON dynstat_sst_mean             =   1.8113613771139E+01
(PID.TID 0000.0001) %MON dynstat_sst_sd               =   9.8119308008046E+00
(PID.TID 0000.0001) %MON dynstat_sst_del2             =   1.5064494738455E-02
(PID.TID 0000.0001) %MON dynstat_sss_max              =   4.1346975947710E+01
(PID.TID 0000.0001) %MON dynstat_sss_min              =   1.8752294590057E+01
(PID.TID 0000.0001) %MON dynstat_sss_mean             =   3.4621689992680E+01
(PID.TID 0000.0001) %MON dynstat_sss_sd               =   1.4881917463031E+00
(PID.TID 0000.0001) %MON dynstat_sss_del2             =   1.2616944309782E-02
(PID.TID 0000.0001) %MON forcing_qnet_max             =   1.6005712890625E+03
(PID.TID 0000.0001) %MON forcing_qnet_min             =  -9.3867242715976E+02
(PID.TID 0000.0001) %MON forcing_qnet_mean            =  -3.1782314673349E+01
(PID.TID 0000.0001) %MON forcing_qnet_sd              =   2.2445471171000E+02
(PID.TID 0000.0001) %MON forcing_qnet_del2            =   3.3991552911878E+00
(PID.TID 0000.0001) %MON forcing_qsw_max              =   0.0000000000000E+00
(PID.TID 0000.0001) %MON forcing_qsw_min              =  -4.3117342309429E+02
(PID.TID 0000.0001) %MON forcing_qsw_mean             =  -7.0942753219636E+01
(PID.TID 0000.0001) %MON forcing_qsw_sd               =   1.1057371924322E+02
(PID.TID 0000.0001) %MON forcing_qsw_del2             =   1.0084070243654E+00
(PID.TID 0000.0001) %MON forcing_empmr_max            =   5.0485050305724E-03
(PID.TID 0000.0001) %MON forcing_empmr_min            =  -7.2582662105560E-02
(PID.TID 0000.0001) %MON forcing_empmr_mean           =  -2.1254118105360E-04
(PID.TID 0000.0001) %MON forcing_empmr_sd             =   3.1955741604147E-03
(PID.TID 0000.0001) %MON forcing_empmr_del2           =   1.2590283620616E-04
(PID.TID 0000.0001) %MON forcing_fu_max               =   3.0356925160511E-01
(PID.TID 0000.0001) %MON forcing_fu_min               =  -3.6188916502544E-01
(PID.TID 0000.0001) %MON forcing_fu_mean              =  -2.5443399750515E-03
(PID.TID 0000.0001) %MON forcing_fu_sd                =   5.8566303660929E-02
(PID.TID 0000.0001) %MON forcing_fu_del2              =   5.8434047901644E-04
(PID.TID 0000.0001) %MON forcing_fv_max               =   2.9020443617294E-01
(PID.TID 0000.0001) %MON forcing_fv_min               =  -2.5267246161180E-01
(PID.TID 0000.0001) %MON forcing_fv_mean              =  -1.5338938537285E-02
(PID.TID 0000.0001) %MON forcing_fv_sd                =   5.9329984376882E-02
(PID.TID 0000.0001) %MON forcing_fv_del2              =   5.1715989958231E-04
(PID.TID 0000.0001) %MON trAdv_CFL_u_max              =   1.9515926088467E-03
(PID.TID 0000.0001) %MON trAdv_CFL_v_max              =   1.1780016843512E-03
(PID.TID 0000.0001) %MON trAdv_CFL_w_max              =   1.3956898118827E-03
(PID.TID 0000.0001) %MON advcfl_uvel_max              =   1.9182701717030E-03
(PID.TID 0000.0001) %MON advcfl_vvel_max              =   1.1402950181535E-03
(PID.TID 0000.0001) %MON advcfl_wvel_max              =   2.5246143341064E-03
(PID.TID 0000.0001) %MON advcfl_W_hf_max              =   1.3956898118827E-03
(PID.TID 0000.0001) %MON pe_b_mean                    =   5.0016541270729E-04
(PID.TID 0000.0001) %MON ke_max                       =   2.0961591583751E-01
(PID.TID 0000.0001) %MON ke_mean                      =   1.6421003328382E-04
(PID.TID 0000.0001) %MON ke_vol                       =   1.3398140498838E+18
(PID.TID 0000.0001) %MON vort_r_min                   =  -2.9437105351489E-06
(PID.TID 0000.0001) %MON vort_r_max                   =   2.4565266992651E-06
(PID.TID 0000.0001) %MON vort_a_mean                  =  -2.0549865324846E-05
(PID.TID 0000.0001) %MON vort_a_sd                    =   7.5259701429369E-05
(PID.TID 0000.0001) %MON vort_p_mean                  =  -2.4783250055469E-05
(PID.TID 0000.0001) %MON vort_p_sd                    =   1.2811930925348E-04
(PID.TID 0000.0001) %MON surfExpan_theta_mean         =  -5.7738222922977E-06
(PID.TID 0000.0001) %MON surfExpan_salt_mean          =   1.1591688706835E-06
(PID.TID 0000.0001) // =======================================================
(PID.TID 0000.0001) // End MONITOR dynamic field statistics
(PID.TID 0000.0001) // =======================================================
 cg2d: Sum(rhs),rhsMax =  -7.69436527287922E+01  3.60799071489469E+01
(PID.TID 0000.0001)      cg2d_init_res =   1.86269595071288E-01
(PID.TID 0000.0001)      cg2d_iters(min,last) =      -1      10
(PID.TID 0000.0001)      cg2d_last_res =   8.22383334458368E-08
(PID.TID 0000.0001) // =======================================================
(PID.TID 0000.0001) // Begin MONITOR dynamic field statistics
(PID.TID 0000.0001) // =======================================================
(PID.TID 0000.0001) %MON time_tsnumber                =                 72078
(PID.TID 0000.0001) %MON time_secondsf                =   6.4870200000000E+07
(PID.TID 0000.0001) %MON dynstat_eta_max              =   1.3013334275785E+00
(PID.TID 0000.0001) %MON dynstat_eta_min              =  -1.7536914781975E+00
(PID.TID 0000.0001) %MON dynstat_eta_mean             =   3.2258144580239E-02
(PID.TID 0000.0001) %MON dynstat_eta_sd               =   6.1184061527005E-01
(PID.TID 0000.0001) %MON dynstat_eta_del2             =   1.6487239081924E-03
(PID.TID 0000.0001) %MON dynstat_uvel_max             =   3.5764992623085E-01
(PID.TID 0000.0001) %MON dynstat_uvel_min             =  -6.5521531972333E-01
(PID.TID 0000.0001) %MON dynstat_uvel_mean            =  -3.6287269267973E-04
(PID.TID 0000.0001) %MON dynstat_uvel_sd              =   1.3010358889621E-02
(PID.TID 0000.0001) %MON dynstat_uvel_del2            =   8.4540174780675E-05
(PID.TID 0000.0001) %MON dynstat_vvel_max             =   2.4043098734564E-01
(PID.TID 0000.0001) %MON dynstat_vvel_min             =  -3.3234947225916E-01
(PID.TID 0000.0001) %MON dynstat_vvel_mean            =   3.1389824164679E-04
(PID.TID 0000.0001) %MON dynstat_vvel_sd              =   1.3638749781585E-02
(PID.TID 0000.0001) %MON dynstat_vvel_del2            =   8.4372382141055E-05
(PID.TID 0000.0001) %MON dynstat_wvel_max             =   1.2473261094577E-04
(PID.TID 0000.0001) %MON dynstat_wvel_min             =  -1.8113084944616E-04
(PID.TID 0000.0001) %MON dynstat_wvel_mean            =  -9.7649537325729E-08
(PID.TID 0000.0001) %MON dynstat_wvel_sd              =   7.6396463635950E-06
(PID.TID 0000.0001) %MON dynstat_wvel_del2            =   6.7465771526654E-08
(PID.TID 0000.0001) %MON dynstat_theta_max            =   3.0933229257745E+01
(PID.TID 0000.0001) %MON dynstat_theta_min            =  -3.0115659588940E+00
(PID.TID 0000.0001) %MON dynstat_theta_mean           =   3.9092660914415E+00
(PID.TID 0000.0001) %MON dynstat_theta_sd             =   4.5717969336037E+00
(PID.TID 0000.0001) %MON dynstat_theta_del2           =   2.6420494807619E-03
(PID.TID 0000.0001) %MON dynstat_salt_max             =   4.1346938041314E+01
(PID.TID 0000.0001) %MON dynstat_salt_min             =   1.8519160632385E+01
(PID.TID 0000.0001) %MON dynstat_salt_mean            =   3.4771914852609E+01
(PID.TID 0000.0001) %MON dynstat_salt_sd              =   5.3218564061224E-01
(PID.TID 0000.0001) %MON dynstat_salt_del2            =   1.1188589321350E-03
(PID.TID 0000.0001) %MON dynstat_sst_max              =   3.0933229257745E+01
(PID.TID 0000.0001) %MON dynstat_sst_min              =  -1.8991249849782E+00
(PID.TID 0000.0001) %MON dynstat_sst_mean             =   1.8113739993036E+01
(PID.TID 0000.0001) %MON dynstat_sst_sd               =   9.8120594944549E+00
(PID.TID 0000.0001) %MON dynstat_sst_del2             =   1.5062826155610E-02
(PID.TID 0000.0001) %MON dynstat_sss_max              =   4.1346938041314E+01
(PID.TID 0000.0001) %MON dynstat_sss_min              =   1.8752307277700E+01
(PID.TID 0000.0001) %MON dynstat_sss_mean             =   3.4621559490823E+01
(PID.TID 0000.0001) %MON dynstat_sss_sd               =   1.4884794159204E+00
(PID.TID 0000.0001) %MON dynstat_sss_del2             =   1.2652174792612E-02
(PID.TID 0000.0001) %MON forcing_qnet_max             =   1.5827636718750E+03
(PID.TID 0000.0001) %MON forcing_qnet_min             =  -9.2889289278852E+02
(PID.TID 0000.0001) %MON forcing_qnet_mean            =  -3.3351559047519E+01
(PID.TID 0000.0001) %MON forcing_qnet_sd              =   2.2198012713722E+02
(PID.TID 0000.0001) %MON forcing_qnet_del2            =   3.2602913105426E+00
(PID.TID 0000.0001) %MON forcing_qsw_max              =   0.0000000000000E+00
(PID.TID 0000.0001) %MON forcing_qsw_min              =  -4.2857547605342E+02
(PID.TID 0000.0001) %MON forcing_qsw_mean             =  -7.1724230747616E+01
(PID.TID 0000.0001) %MON forcing_qsw_sd               =   1.1048844061354E+02
(PID.TID 0000.0001) %MON forcing_qsw_del2             =   1.0045495311149E+00
(PID.TID 0000.0001) %MON forcing_empmr_max            =   4.9964492209256E-03
(PID.TID 0000.0001) %MON forcing_empmr_min            =  -7.1835033595562E-02
(PID.TID 0000.0001) %MON forcing_empmr_mean           =  -2.1027852186165E-04
(PID.TID 0000.0001) %MON forcing_empmr_sd             =   3.1629709394234E-03
(PID.TID 0000.0001) %MON forcing_empmr_del2           =   1.2459497189058E-04
(PID.TID 0000.0001) %MON forcing_fu_max               =   2.9383573580305E-01
(PID.TID 0000.0001) %MON forcing_fu_min               =  -3.6071096281613E-01
(PID.TID 0000.0001) %MON forcing_fu_mean              =  -2.6204231980468E-03
(PID.TID 0000.0001) %MON forcing_fu_sd                =   5.8298247378096E-02
(PID.TID 0000.0001) %MON forcing_fu_del2              =   5.8230579424596E-04
(PID.TID 0000.0001) %MON forcing_fv_max               =   2.8627103443619E-01
(PID.TID 0000.0001) %MON forcing_fv_min               =  -2.5299304089808E-01
(PID.TID 0000.0001) %MON forcing_fv_mean              =  -1.5358236461100E-02
(PID.TID 0000.0001) %MON forcing_fv_sd                =   5.9278904225202E-02
(PID.TID 0000.0001) %MON forcing_fv_del2              =   5.1565405696040E-04
(PID.TID 0000.0001) %MON trAdv_CFL_u_max              =   1.8905835213926E-03
(PID.TID 0000.0001) %MON trAdv_CFL_v_max              =   1.1794484200515E-03
(PID.TID 0000.0001) %MON trAdv_CFL_w_max              =   1.3383249980180E-03
(PID.TID 0000.0001) %MON advcfl_uvel_max              =   1.8901913890600E-03
(PID.TID 0000.0001) %MON advcfl_vvel_max              =   1.1480052036013E-03
(PID.TID 0000.0001) %MON advcfl_wvel_max              =   2.4986098641935E-03
(PID.TID 0000.0001) %MON advcfl_W_hf_max              =   1.3383249980180E-03
(PID.TID 0000.0001) %MON pe_b_mean                    =   5.0008386315058E-04
(PID.TID 0000.0001) %MON ke_max                       =   2.0424444943291E-01
(PID.TID 0000.0001) %MON ke_mean                      =   1.6417055729922E-04
(PID.TID 0000.0001) %MON ke_vol                       =   1.3398141171367E+18
(PID.TID 0000.0001) %MON vort_r_min                   =  -2.7031544495026E-06
(PID.TID 0000.0001) %MON vort_r_max                   =   2.5238981404322E-06
(PID.TID 0000.0001) %MON vort_a_mean                  =  -2.0549865324846E-05
(PID.TID 0000.0001) %MON vort_a_sd                    =   7.5259696450986E-05
(PID.TID 0000.0001) %MON vort_p_mean                  =  -2.4783248704510E-05
(PID.TID 0000.0001) %MON vort_p_sd                    =   1.2811930649799E-04
(PID.TID 0000.0001) %MON surfExpan_theta_mean         =  -5.6628839620157E-06
(PID.TID 0000.0001) %MON surfExpan_salt_mean          =   1.1460489470901E-06
(PID.TID 0000.0001) // =======================================================
(PID.TID 0000.0001) // End MONITOR dynamic field statistics
(PID.TID 0000.0001) // =======================================================
 cg2d: Sum(rhs),rhsMax =  -7.73245704391140E+01  3.61031619419016E+01
(PID.TID 0000.0001)      cg2d_init_res =   1.87355379085556E-01
(PID.TID 0000.0001)      cg2d_iters(min,last) =      -1      10
(PID.TID 0000.0001)      cg2d_last_res =   7.79019188185630E-08
(PID.TID 0000.0001) // =======================================================
(PID.TID 0000.0001) // Begin MONITOR dynamic field statistics
(PID.TID 0000.0001) // =======================================================
(PID.TID 0000.0001) %MON time_tsnumber                =                 72079
(PID.TID 0000.0001) %MON time_secondsf                =   6.4871100000000E+07
(PID.TID 0000.0001) %MON dynstat_eta_max              =   1.2894552242436E+00
(PID.TID 0000.0001) %MON dynstat_eta_min              =  -1.6134593216471E+00
(PID.TID 0000.0001) %MON dynstat_eta_mean             =   3.2438736405672E-02
(PID.TID 0000.0001) %MON dynstat_eta_sd               =   6.1176807484864E-01
(PID.TID 0000.0001) %MON dynstat_eta_del2             =   1.6087133313651E-03
(PID.TID 0000.0001) %MON dynstat_uvel_max             =   3.7692827342512E-01
(PID.TID 0000.0001) %MON dynstat_uvel_min             =  -6.6843358472404E-01
(PID.TID 0000.0001) %MON dynstat_uvel_mean            =  -3.7670126134691E-04
(PID.TID 0000.0001) %MON dynstat_uvel_sd              =   1.2994921524976E-02
(PID.TID 0000.0001) %MON dynstat_uvel_del2            =   8.4307975226155E-05
(PID.TID 0000.0001) %MON dynstat_vvel_max             =   2.2909570469738E-01
(PID.TID 0000.0001) %MON dynstat_vvel_min             =  -3.6600223858261E-01
(PID.TID 0000.0001) %MON dynstat_vvel_mean            =   2.9225497771946E-04
(PID.TID 0000.0001) %MON dynstat_vvel_sd              =   1.3651097770197E-02
(PID.TID 0000.0001) %MON dynstat_vvel_del2            =   8.5157912058158E-05
(PID.TID 0000.0001) %MON dynstat_wvel_max             =   1.2461425647185E-04
(PID.TID 0000.0001) %MON dynstat_wvel_min             =  -1.8117747563069E-04
(PID.TID 0000.0001) %MON dynstat_wvel_mean            =  -8.8769747718345E-08
(PID.TID 0000.0001) %MON dynstat_wvel_sd              =   7.6296555512006E-06
(PID.TID 0000.0001) %MON dynstat_wvel_del2            =   6.7304427255511E-08
(PID.TID 0000.0001) %MON dynstat_theta_max            =   3.0932931141423E+01
(PID.TID 0000.0001) %MON dynstat_theta_min            =  -3.0120509659292E+00
(PID.TID 0000.0001) %MON dynstat_theta_mean           =   3.9092692345969E+00
(PID.TID 0000.0001) %MON dynstat_theta_sd             =   4.5718084818816E+00
(PID.TID 0000.0001) %MON dynstat_theta_del2           =   2.6419449990807E-03
(PID.TID 0000.0001) %MON dynstat_salt_max             =   4.1346900232956E+01
(PID.TID 0000.0001) %MON dynstat_salt_min             =   1.8519170553185E+01
(PID.TID 0000.0001) %MON dynstat_salt_mean            =   3.4771913183054E+01
(PID.TID 0000.0001) %MON dynstat_salt_sd              =   5.3219675830428E-01
(PID.TID 0000.0001) %MON dynstat_salt_del2            =   1.1213259226961E-03
(PID.TID 0000.0001) %MON dynstat_sst_max              =   3.0932931141423E+01
(PID.TID 0000.0001) %MON dynstat_sst_min              =  -1.8990496163203E+00
(PID.TID 0000.0001) %MON dynstat_sst_mean             =   1.8113867782846E+01
(PID.TID 0000.0001) %MON dynstat_sst_sd               =   9.8121904853291E+00
(PID.TID 0000.0001) %MON dynstat_sst_del2             =   1.5061084889662E-02
(PID.TID 0000.0001) %MON dynstat_sss_max              =   4.1346900232956E+01
(PID.TID 0000.0001) %MON dynstat_sss_min              =   1.8752319879433E+01
(PID.TID 0000.0001) %MON dynstat_sss_mean             =   3.4621430831877E+01
(PID.TID 0000.0001) %MON dynstat_sss_sd               =   1.4887629595161E+00
(PID.TID 0000.0001) %MON dynstat_sss_del2             =   1.2686658523045E-02
(PID.TID 0000.0001) %MON forcing_qnet_max             =   2.7145039062500E+03
(PID.TID 0000.0001) %MON forcing_qnet_min             =  -9.1920701984799E+02
(PID.TID 0000.0001) %MON forcing_qnet_mean            =  -3.3879875436084E+01
(PID.TID 0000.0001) %MON forcing_qnet_sd              =   2.2376395312374E+02
(PID.TID 0000.0001) %MON forcing_qnet_del2            =   3.7665999356577E+00
(PID.TID 0000.0001) %MON forcing_qsw_max              =   0.0000000000000E+00
(PID.TID 0000.0001) %MON forcing_qsw_min              =  -4.2422842353642E+02
(PID.TID 0000.0001) %MON forcing_qsw_mean             =  -7.2300124077822E+01
(PID.TID 0000.0001) %MON forcing_qsw_sd               =   1.1034318723482E+02
(PID.TID 0000.0001) %MON forcing_qsw_del2             =   9.9887077856993E-01
(PID.TID 0000.0001) %MON forcing_empmr_max            =   4.9449843354523E-03
(PID.TID 0000.0001) %MON forcing_empmr_min            =  -7.1095801889896E-02
(PID.TID 0000.0001) %MON forcing_empmr_mean           =  -2.0768059924842E-04
(PID.TID 0000.0001) %MON forcing_empmr_sd             =   3.1310679469247E-03
(PID.TID 0000.0001) %MON forcing_empmr_del2           =   1.2331876635726E-04
(PID.TID 0000.0001) %MON forcing_fu_max               =   2.8996602505105E-01
(PID.TID 0000.0001) %MON forcing_fu_min               =  -3.5837855822554E-01
(PID.TID 0000.0001) %MON forcing_fu_mean              =  -2.7019550760697E-03
(PID.TID 0000.0001) %MON forcing_fu_sd                =   5.7968572787238E-02
(PID.TID 0000.0001) %MON forcing_fu_del2              =   5.8003401506063E-04
(PID.TID 0000.0001) %MON forcing_fv_max               =   2.8450376036824E-01
(PID.TID 0000.0001) %MON forcing_fv_min               =  -2.5347459987549E-01
(PID.TID 0000.0001) %MON forcing_fv_mean              =  -1.5378835684986E-02
(PID.TID 0000.0001) %MON forcing_fv_sd                =   5.9240892023551E-02
(PID.TID 0000.0001) %MON forcing_fv_del2              =   5.1503907808983E-04
(PID.TID 0000.0001) %MON trAdv_CFL_u_max              =   1.9295830448887E-03
(PID.TID 0000.0001) %MON trAdv_CFL_v_max              =   1.1806433562697E-03
(PID.TID 0000.0001) %MON trAdv_CFL_w_max              =   1.2793732417319E-03
(PID.TID 0000.0001) %MON advcfl_uvel_max              =   1.9283239691914E-03
(PID.TID 0000.0001) %MON advcfl_vvel_max              =   1.1943988112212E-03
(PID.TID 0000.0001) %MON advcfl_wvel_max              =   2.4728974570399E-03
(PID.TID 0000.0001) %MON advcfl_W_hf_max              =   1.3088696982544E-03
(PID.TID 0000.0001) %MON pe_b_mean                    =   4.9998115792531E-04
(PID.TID 0000.0001) %MON ke_max                       =   1.9839638598517E-01
(PID.TID 0000.0001) %MON ke_mean                      =   1.6414110148774E-04
(PID.TID 0000.0001) %MON ke_vol                       =   1.3398141836737E+18
(PID.TID 0000.0001) %MON vort_r_min                   =  -2.4542064375388E-06
(PID.TID 0000.0001) %MON vort_r_max                   =   2.5832068957798E-06
(PID.TID 0000.0001) %MON vort_a_mean                  =  -2.0549865324846E-05
(PID.TID 0000.0001) %MON vort_a_sd                    =   7.5259691521501E-05
(PID.TID 0000.0001) %MON vort_p_mean                  =  -2.4783247383678E-05
(PID.TID 0000.0001) %MON vort_p_sd                    =   1.2811930425396E-04
(PID.TID 0000.0001) %MON surfExpan_theta_mean         =  -5.5406703272479E-06
(PID.TID 0000.0001) %MON surfExpan_salt_mean          =   1.1323940491445E-06
(PID.TID 0000.0001) // =======================================================
(PID.TID 0000.0001) // End MONITOR dynamic field statistics
(PID.TID 0000.0001) // =======================================================
 Computing Diagnostic #     81  oceTAUX      Counter:       1   Parms: UU      U1      
           Vector  Mate for  oceTAUX      Diagnostic #     82  oceTAUY  exists 
 Computing Diagnostic #     82  oceTAUY      Counter:       1   Parms: VV      U1      
           Vector  Mate for  oceTAUY      Diagnostic #     81  oceTAUX  exists 
 Computing Diagnostic #     85  oceFWflx     Counter:       1   Parms: SM      U1      
 Computing Diagnostic #     86  oceSflux     Counter:       1   Parms: SM      U1      
 Computing Diagnostic #     87  oceQnet      Counter:       1   Parms: SM      U1      
 Computing Diagnostic #     88  oceQsw       Counter:       1   Parms: SM      U1      
 Computing Diagnostic #     27  SALT         Counter:       1   Parms: SMR     MR      
 Computing Diagnostic #     26  THETA        Counter:       1   Parms: SMR     MR      
 Computing Diagnostic #     45  UVELMASS     Counter:       1   Parms: UUr     MR      
           Vector  Mate for  UVELMASS     Diagnostic #     46  VVELMASS exists 
 Computing Diagnostic #     46  VVELMASS     Counter:       1   Parms: VVr     MR      
           Vector  Mate for  VVELMASS     Diagnostic #     45  UVELMASS exists 
 cg2d: Sum(rhs),rhsMax =  -7.77122607737306E+01  3.61208780965374E+01
(PID.TID 0000.0001)      cg2d_init_res =   1.89023043031812E-01
(PID.TID 0000.0001)      cg2d_iters(min,last) =      -1      10
(PID.TID 0000.0001)      cg2d_last_res =   7.15858482706561E-08
(PID.TID 0000.0001) // =======================================================
(PID.TID 0000.0001) // Begin MONITOR dynamic field statistics
(PID.TID 0000.0001) // =======================================================
(PID.TID 0000.0001) %MON time_tsnumber                =                 72080
(PID.TID 0000.0001) %MON time_secondsf                =   6.4872000000000E+07
(PID.TID 0000.0001) %MON dynstat_eta_max              =   1.2705296391622E+00
(PID.TID 0000.0001) %MON dynstat_eta_min              =  -1.5615975539479E+00
(PID.TID 0000.0001) %MON dynstat_eta_mean             =   3.2617375708380E-02
(PID.TID 0000.0001) %MON dynstat_eta_sd               =   6.1168602262156E-01
(PID.TID 0000.0001) %MON dynstat_eta_del2             =   1.5631299324246E-03
(PID.TID 0000.0001) %MON dynstat_uvel_max             =   3.9304912338993E-01
(PID.TID 0000.0001) %MON dynstat_uvel_min             =  -6.8004187258041E-01
(PID.TID 0000.0001) %MON dynstat_uvel_mean            =  -3.9085167456060E-04
(PID.TID 0000.0001) %MON dynstat_uvel_sd              =   1.2979657436147E-02
(PID.TID 0000.0001) %MON dynstat_uvel_del2            =   8.4177132611161E-05
(PID.TID 0000.0001) %MON dynstat_vvel_max             =   2.4377020369743E-01
(PID.TID 0000.0001) %MON dynstat_vvel_min             =  -3.9327958697971E-01
(PID.TID 0000.0001) %MON dynstat_vvel_mean            =   2.7114860787806E-04
(PID.TID 0000.0001) %MON dynstat_vvel_sd              =   1.3663385881083E-02
(PID.TID 0000.0001) %MON dynstat_vvel_del2            =   8.5951379309664E-05
(PID.TID 0000.0001) %MON dynstat_wvel_max             =   1.2336786920917E-04
(PID.TID 0000.0001) %MON dynstat_wvel_min             =  -1.8123025941363E-04
(PID.TID 0000.0001) %MON dynstat_wvel_mean            =  -8.1005631659386E-08
(PID.TID 0000.0001) %MON dynstat_wvel_sd              =   7.6178070114530E-06
(PID.TID 0000.0001) %MON dynstat_wvel_del2            =   6.7121967034281E-08
(PID.TID 0000.0001) %MON dynstat_theta_max            =   3.0932626525069E+01
(PID.TID 0000.0001) %MON dynstat_theta_min            =  -3.0125534333437E+00
(PID.TID 0000.0001) %MON dynstat_theta_mean           =   3.9092724232384E+00
(PID.TID 0000.0001) %MON dynstat_theta_sd             =   4.5718203523671E+00
(PID.TID 0000.0001) %MON dynstat_theta_del2           =   2.6418418054084E-03
(PID.TID 0000.0001) %MON dynstat_salt_max             =   4.1346862808424E+01
(PID.TID 0000.0001) %MON dynstat_salt_min             =   1.8519180475089E+01
(PID.TID 0000.0001) %MON dynstat_salt_mean            =   3.4771911552506E+01
(PID.TID 0000.0001) %MON dynstat_salt_sd              =   5.3220767818969E-01
(PID.TID 0000.0001) %MON dynstat_salt_del2            =   1.1237374707511E-03
(PID.TID 0000.0001) %MON dynstat_sst_max              =   3.0932626525069E+01
(PID.TID 0000.0001) %MON dynstat_sst_min              =  -1.8989583654889E+00
(PID.TID 0000.0001) %MON dynstat_sst_mean             =   1.8113999473643E+01
(PID.TID 0000.0001) %MON dynstat_sst_sd               =   9.8123277685190E+00
(PID.TID 0000.0001) %MON dynstat_sst_del2             =   1.5059366356824E-02
(PID.TID 0000.0001) %MON dynstat_sss_max              =   4.1346862808424E+01
(PID.TID 0000.0001) %MON dynstat_sss_min              =   1.8752332393736E+01
(PID.TID 0000.0001) %MON dynstat_sss_mean             =   3.4621305023680E+01
(PID.TID 0000.0001) %MON dynstat_sss_sd               =   1.4890410447714E+00
(PID.TID 0000.0001) %MON dynstat_sss_del2             =   1.2720351211390E-02
(PID.TID 0000.0001) %MON forcing_qnet_max             =   1.5477812500000E+03
(PID.TID 0000.0001) %MON forcing_qnet_min             =  -9.0895709567135E+02
(PID.TID 0000.0001) %MON forcing_qnet_mean            =  -3.4909301154415E+01
(PID.TID 0000.0001) %MON forcing_qnet_sd              =   2.1731315345340E+02
(PID.TID 0000.0001) %MON forcing_qnet_del2            =   3.1175905095081E+00
(PID.TID 0000.0001) %MON forcing_qsw_max              =   0.0000000000000E+00
(PID.TID 0000.0001) %MON forcing_qsw_min              =  -4.2054475120908E+02
(PID.TID 0000.0001) %MON forcing_qsw_mean             =  -7.2659638912790E+01
(PID.TID 0000.0001) %MON forcing_qsw_sd               =   1.1014908856968E+02
(PID.TID 0000.0001) %MON forcing_qsw_del2             =   9.9150808876502E-01
(PID.TID 0000.0001) %MON forcing_empmr_max            =   4.8940111882985E-03
(PID.TID 0000.0001) %MON forcing_empmr_min            =  -7.0364117622375E-02
(PID.TID 0000.0001) %MON forcing_empmr_mean           =  -2.0543519811400E-04
(PID.TID 0000.0001) %MON forcing_empmr_sd             =   3.0986909992278E-03
(PID.TID 0000.0001) %MON forcing_empmr_del2           =   1.2201068130085E-04
(PID.TID 0000.0001) %MON forcing_fu_max               =   2.8662509063230E-01
(PID.TID 0000.0001) %MON forcing_fu_min               =  -3.5543004435510E-01
(PID.TID 0000.0001) %MON forcing_fu_mean              =  -2.7901446354014E-03
(PID.TID 0000.0001) %MON forcing_fu_sd                =   5.7576240968258E-02
(PID.TID 0000.0001) %MON forcing_fu_del2              =   5.7691576283413E-04
(PID.TID 0000.0001) %MON forcing_fv_max               =   2.8105304758274E-01
(PID.TID 0000.0001) %MON forcing_fv_min               =  -2.5376269518042E-01
(PID.TID 0000.0001) %MON forcing_fv_mean              =  -1.5381932303798E-02
(PID.TID 0000.0001) %MON forcing_fv_sd                =   5.9230771356620E-02
(PID.TID 0000.0001) %MON forcing_fv_del2              =   5.1410347297111E-04
(PID.TID 0000.0001) %MON trAdv_CFL_u_max              =   1.9640445456139E-03
(PID.TID 0000.0001) %MON trAdv_CFL_v_max              =   1.2772848111550E-03
(PID.TID 0000.0001) %MON trAdv_CFL_w_max              =   1.2192937311197E-03
(PID.TID 0000.0001) %MON advcfl_uvel_max              =   1.9618120227935E-03
(PID.TID 0000.0001) %MON advcfl_vvel_max              =   1.2834147490060E-03
(PID.TID 0000.0001) %MON advcfl_wvel_max              =   2.4474475694739E-03
(PID.TID 0000.0001) %MON advcfl_W_hf_max              =   1.3126558201754E-03
(PID.TID 0000.0001) %MON pe_b_mean                    =   4.9986288232147E-04
(PID.TID 0000.0001) %MON ke_max                       =   1.9218638516302E-01
(PID.TID 0000.0001) %MON ke_mean                      =   1.6411417418885E-04
(PID.TID 0000.0001) %MON ke_vol                       =   1.3398142493887E+18
(PID.TID 0000.0001) %MON vort_r_min                   =  -2.1989426314563E-06
(PID.TID 0000.0001) %MON vort_r_max                   =   2.6339763703560E-06
(PID.TID 0000.0001) %MON vort_a_mean                  =  -2.0549865324846E-05
(PID.TID 0000.0001) %MON vort_a_sd                    =   7.5259686703438E-05
(PID.TID 0000.0001) %MON vort_p_mean                  =  -2.4783246093897E-05
(PID.TID 0000.0001) %MON vort_p_sd                    =   1.2811930278498E-04
(PID.TID 0000.0001) %MON surfExpan_theta_mean         =  -5.4168867932773E-06
(PID.TID 0000.0001) %MON surfExpan_salt_mean          =   1.1165994157692E-06
(PID.TID 0000.0001) // =======================================================
(PID.TID 0000.0001) // End MONITOR dynamic field statistics
(PID.TID 0000.0001) // =======================================================
 cg2d: Sum(rhs),rhsMax =  -7.81077548903355E+01  3.61331290840673E+01
(PID.TID 0000.0001)      cg2d_init_res =   1.90853341991895E-01
(PID.TID 0000.0001)      cg2d_iters(min,last) =      -1      10
(PID.TID 0000.0001)      cg2d_last_res =   6.33289939444578E-08
(PID.TID 0000.0001) // =======================================================
(PID.TID 0000.0001) // Begin MONITOR dynamic field statistics
(PID.TID 0000.0001) // =======================================================
(PID.TID 0000.0001) %MON time_tsnumber                =                 72081
(PID.TID 0000.0001) %MON time_secondsf                =   6.4872900000000E+07
(PID.TID 0000.0001) %MON dynstat_eta_max              =   1.2446091650875E+00
(PID.TID 0000.0001) %MON dynstat_eta_min              =  -1.5604981064328E+00
(PID.TID 0000.0001) %MON dynstat_eta_mean             =   3.2794491443608E-02
(PID.TID 0000.0001) %MON dynstat_eta_sd               =   6.1159777728974E-01
(PID.TID 0000.0001) %MON dynstat_eta_del2             =   1.5143196643271E-03
(PID.TID 0000.0001) %MON dynstat_uvel_max             =   4.0577795570130E-01
(PID.TID 0000.0001) %MON dynstat_uvel_min             =  -6.8991773947294E-01
(PID.TID 0000.0001) %MON dynstat_uvel_mean            =  -4.0507558508824E-04
(PID.TID 0000.0001) %MON dynstat_uvel_sd              =   1.2964727219548E-02
(PID.TID 0000.0001) %MON dynstat_uvel_del2            =   8.4134676071985E-05
(PID.TID 0000.0001) %MON dynstat_vvel_max             =   2.6855740257906E-01
(PID.TID 0000.0001) %MON dynstat_vvel_min             =  -4.1488362369014E-01
(PID.TID 0000.0001) %MON dynstat_vvel_mean            =   2.5082053369004E-04
(PID.TID 0000.0001) %MON dynstat_vvel_sd              =   1.3674959396133E-02
(PID.TID 0000.0001) %MON dynstat_vvel_del2            =   8.6673593662468E-05
(PID.TID 0000.0001) %MON dynstat_wvel_max             =   1.2104225572839E-04
(PID.TID 0000.0001) %MON dynstat_wvel_min             =  -1.8129336946851E-04
(PID.TID 0000.0001) %MON dynstat_wvel_mean            =  -7.4103674377260E-08
(PID.TID 0000.0001) %MON dynstat_wvel_sd              =   7.6055642810134E-06
(PID.TID 0000.0001) %MON dynstat_wvel_del2            =   6.6907050030667E-08
(PID.TID 0000.0001) %MON dynstat_theta_max            =   3.0932315212866E+01
(PID.TID 0000.0001) %MON dynstat_theta_min            =  -3.0130714937575E+00
(PID.TID 0000.0001) %MON dynstat_theta_mean           =   3.9092757135324E+00
(PID.TID 0000.0001) %MON dynstat_theta_sd             =   4.5718327453155E+00
(PID.TID 0000.0001) %MON dynstat_theta_del2           =   2.6417378049794E-03
(PID.TID 0000.0001) %MON dynstat_salt_max             =   4.1346826187520E+01
(PID.TID 0000.0001) %MON dynstat_salt_min             =   1.8519190400561E+01
(PID.TID 0000.0001) %MON dynstat_salt_mean            =   3.4771909944623E+01
(PID.TID 0000.0001) %MON dynstat_salt_sd              =   5.3221842645379E-01
(PID.TID 0000.0001) %MON dynstat_salt_del2            =   1.1260964040745E-03
(PID.TID 0000.0001) %MON dynstat_sst_max              =   3.0932315212866E+01
(PID.TID 0000.0001) %MON dynstat_sst_min              =  -1.8988525960022E+00
(PID.TID 0000.0001) %MON dynstat_sst_mean             =   1.8114138868527E+01
(PID.TID 0000.0001) %MON dynstat_sst_sd               =   9.8124720120348E+00
(PID.TID 0000.0001) %MON dynstat_sst_del2             =   1.5057619538720E-02
(PID.TID 0000.0001) %MON dynstat_sss_max              =   4.1346826187520E+01
(PID.TID 0000.0001) %MON dynstat_sss_min              =   1.8752344744280E+01
(PID.TID 0000.0001) %MON dynstat_sss_mean             =   3.4621180917091E+01
(PID.TID 0000.0001) %MON dynstat_sss_sd               =   1.4893142203397E+00
(PID.TID 0000.0001) %MON dynstat_sss_del2             =   1.2753294229032E-02
(PID.TID 0000.0001) %MON forcing_qnet_max             =   1.5306013183594E+03
(PID.TID 0000.0001) %MON forcing_qnet_min             =  -9.0032145762328E+02
(PID.TID 0000.0001) %MON forcing_qnet_mean            =  -3.6817107507016E+01
(PID.TID 0000.0001) %MON forcing_qnet_sd              =   2.1321546236138E+02
(PID.TID 0000.0001) %MON forcing_qnet_del2            =   3.0309043331364E+00
(PID.TID 0000.0001) %MON forcing_qsw_max              =   0.0000000000000E+00
(PID.TID 0000.0001) %MON forcing_qsw_min              =  -4.1038068436946E+02
(PID.TID 0000.0001) %MON forcing_qsw_mean             =  -7.3691800231935E+01
(PID.TID 0000.0001) %MON forcing_qsw_sd               =   1.0985155402145E+02
(PID.TID 0000.0001) %MON forcing_qsw_del2             =   9.8489985437676E-01
(PID.TID 0000.0001) %MON forcing_empmr_max            =   4.8436280339956E-03
(PID.TID 0000.0001) %MON forcing_empmr_min            =  -6.9639980792999E-02
(PID.TID 0000.0001) %MON forcing_empmr_mean           =  -2.0368309551199E-04
(PID.TID 0000.0001) %MON forcing_empmr_sd             =   3.0670323055401E-03
(PID.TID 0000.0001) %MON forcing_empmr_del2           =   1.2073803913466E-04
(PID.TID 0000.0001) %MON forcing_fu_max               =   2.8179575393674E-01
(PID.TID 0000.0001) %MON forcing_fu_min               =  -3.5293556433861E-01
(PID.TID 0000.0001) %MON forcing_fu_mean              =  -2.9142279505409E-03
(PID.TID 0000.0001) %MON forcing_fu_sd                =   5.7167124554252E-02
(PID.TID 0000.0001) %MON forcing_fu_del2              =   5.7380230014106E-04
(PID.TID 0000.0001) %MON forcing_fv_max               =   2.7817369284764E-01
(PID.TID 0000.0001) %MON forcing_fv_min               =  -2.5413611910563E-01
(PID.TID 0000.0001) %MON forcing_fv_mean              =  -1.5391142499316E-02
(PID.TID 0000.0001) %MON forcing_fv_sd                =   5.9262735047578E-02
(PID.TID 0000.0001) %MON forcing_fv_del2              =   5.1324249725183E-04
(PID.TID 0000.0001) %MON trAdv_CFL_u_max              =   1.9936108116597E-03
(PID.TID 0000.0001) %MON trAdv_CFL_v_max              =   1.3571356787862E-03
(PID.TID 0000.0001) %MON trAdv_CFL_w_max              =   1.1620758014648E-03
(PID.TID 0000.0001) %MON advcfl_uvel_max              =   1.9903023190333E-03
(PID.TID 0000.0001) %MON advcfl_vvel_max              =   1.3539166013018E-03
(PID.TID 0000.0001) %MON advcfl_wvel_max              =   2.4222602014956E-03
(PID.TID 0000.0001) %MON advcfl_W_hf_max              =   1.3126948375713E-03
(PID.TID 0000.0001) %MON pe_b_mean                    =   4.9973448506527E-04
(PID.TID 0000.0001) %MON ke_max                       =   1.8571969254203E-01
(PID.TID 0000.0001) %MON ke_mean                      =   1.6408331633550E-04
(PID.TID 0000.0001) %MON ke_vol                       =   1.3398143143932E+18
(PID.TID 0000.0001) %MON vort_r_min                   =  -2.2206546481355E-06
(PID.TID 0000.0001) %MON vort_r_max                   =   2.6758037146085E-06
(PID.TID 0000.0001) %MON vort_a_mean                  =  -2.0549865324846E-05
(PID.TID 0000.0001) %MON vort_a_sd                    =   7.5259682054205E-05
(PID.TID 0000.0001) %MON vort_p_mean                  =  -2.4783244831349E-05
(PID.TID 0000.0001) %MON vort_p_sd                    =   1.2811930226337E-04
(PID.TID 0000.0001) %MON surfExpan_theta_mean         =  -5.3021159187680E-06
(PID.TID 0000.0001) %MON surfExpan_salt_mean          =   1.0992470867611E-06
(PID.TID 0000.0001) // =======================================================
(PID.TID 0000.0001) // End MONITOR dynamic field statistics
(PID.TID 0000.0001) // =======================================================
 cg2d: Sum(rhs),rhsMax =  -7.85104628423221E+01  3.61405833644363E+01
(PID.TID 0000.0001)      cg2d_init_res =   1.92567072950421E-01
(PID.TID 0000.0001)      cg2d_iters(min,last) =      -1      10
(PID.TID 0000.0001)      cg2d_last_res =   5.42065279016438E-08
(PID.TID 0000.0001) // =======================================================
(PID.TID 0000.0001) // Begin MONITOR dynamic field statistics
(PID.TID 0000.0001) // =======================================================
(PID.TID 0000.0001) %MON time_tsnumber                =                 72082
(PID.TID 0000.0001) %MON time_secondsf                =   6.4873800000000E+07
(PID.TID 0000.0001) %MON dynstat_eta_max              =   1.2118145195732E+00
(PID.TID 0000.0001) %MON dynstat_eta_min              =  -1.5593887030891E+00
(PID.TID 0000.0001) %MON dynstat_eta_mean             =   3.2970373677726E-02
(PID.TID 0000.0001) %MON dynstat_eta_sd               =   6.1150704245877E-01
(PID.TID 0000.0001) %MON dynstat_eta_del2             =   1.4647708478540E-03
(PID.TID 0000.0001) %MON dynstat_uvel_max             =   4.1497324024563E-01
(PID.TID 0000.0001) %MON dynstat_uvel_min             =  -6.9794663815671E-01
(PID.TID 0000.0001) %MON dynstat_uvel_mean            =  -4.1911120263185E-04
(PID.TID 0000.0001) %MON dynstat_uvel_sd              =   1.2950338653533E-02
(PID.TID 0000.0001) %MON dynstat_uvel_del2            =   8.4164469785309E-05
(PID.TID 0000.0001) %MON dynstat_vvel_max             =   2.8942808694383E-01
(PID.TID 0000.0001) %MON dynstat_vvel_min             =  -4.2956922064240E-01
(PID.TID 0000.0001) %MON dynstat_vvel_mean            =   2.3151260989911E-04
(PID.TID 0000.0001) %MON dynstat_vvel_sd              =   1.3685139280359E-02
(PID.TID 0000.0001) %MON dynstat_vvel_del2            =   8.7261445208515E-05
(PID.TID 0000.0001) %MON dynstat_wvel_max             =   1.1769614678402E-04
(PID.TID 0000.0001) %MON dynstat_wvel_min             =  -1.8134185278921E-04
(PID.TID 0000.0001) %MON dynstat_wvel_mean            =  -6.8181170792688E-08
(PID.TID 0000.0001) %MON dynstat_wvel_sd              =   7.5925134396566E-06
(PID.TID 0000.0001) %MON dynstat_wvel_del2            =   6.6663040460883E-08
(PID.TID 0000.0001) %MON dynstat_theta_max            =   3.0931998215190E+01
(PID.TID 0000.0001) %MON dynstat_theta_min            =  -3.0136035703278E+00
(PID.TID 0000.0001) %MON dynstat_theta_mean           =   3.9092790589291E+00
(PID.TID 0000.0001) %MON dynstat_theta_sd             =   4.5718454006469E+00
(PID.TID 0000.0001) %MON dynstat_theta_del2           =   2.6416310958613E-03
(PID.TID 0000.0001) %MON dynstat_salt_max             =   4.1346791011003E+01
(PID.TID 0000.0001) %MON dynstat_salt_min             =   1.8519200331762E+01
(PID.TID 0000.0001) %MON dynstat_salt_mean            =   3.4771908356925E+01
(PID.TID 0000.0001) %MON dynstat_salt_sd              =   5.3222901163373E-01
(PID.TID 0000.0001) %MON dynstat_salt_del2            =   1.1284030545491E-03
(PID.TID 0000.0001) %MON dynstat_sst_max              =   3.0931998215190E+01
(PID.TID 0000.0001) %MON dynstat_sst_min              =  -1.8987350244890E+00
(PID.TID 0000.0001) %MON dynstat_sst_mean             =   1.8114282623369E+01
(PID.TID 0000.0001) %MON dynstat_sst_sd               =   9.8126194679735E+00
(PID.TID 0000.0001) %MON dynstat_sst_del2             =   1.5055801851414E-02
(PID.TID 0000.0001) %MON dynstat_sss_max              =   4.1346791011003E+01
(PID.TID 0000.0001) %MON dynstat_sss_min              =   1.8752357079494E+01
(PID.TID 0000.0001) %MON dynstat_sss_mean             =   3.4621058373067E+01
(PID.TID 0000.0001) %MON dynstat_sss_sd               =   1.4895826563005E+00
(PID.TID 0000.0001) %MON dynstat_sss_del2             =   1.2785494129406E-02
(PID.TID 0000.0001) %MON forcing_qnet_max             =   1.5127409667969E+03
(PID.TID 0000.0001) %MON forcing_qnet_min             =  -8.9025445137741E+02
(PID.TID 0000.0001) %MON forcing_qnet_mean            =  -3.7874101471070E+01
(PID.TID 0000.0001) %MON forcing_qnet_sd              =   2.1259150048469E+02
(PID.TID 0000.0001) %MON forcing_qnet_del2            =   3.0535033550258E+00
(PID.TID 0000.0001) %MON forcing_qsw_max              =   0.0000000000000E+00
(PID.TID 0000.0001) %MON forcing_qsw_min              =  -4.0944312556192E+02
(PID.TID 0000.0001) %MON forcing_qsw_mean             =  -7.4438261932365E+01
(PID.TID 0000.0001) %MON forcing_qsw_sd               =   1.1024564300958E+02
(PID.TID 0000.0001) %MON forcing_qsw_del2             =   9.8109266051700E-01
(PID.TID 0000.0001) %MON forcing_empmr_max            =   4.7937380149961E-03
(PID.TID 0000.0001) %MON forcing_empmr_min            =  -6.8922564387321E-02
(PID.TID 0000.0001) %MON forcing_empmr_mean           =  -2.0226456923681E-04
(PID.TID 0000.0001) %MON forcing_empmr_sd             =   3.0357309049645E-03
(PID.TID 0000.0001) %MON forcing_empmr_del2           =   1.1947489387279E-04
(PID.TID 0000.0001) %MON forcing_fu_max               =   2.7658645486857E-01
(PID.TID 0000.0001) %MON forcing_fu_min               =  -3.5114199358410E-01
(PID.TID 0000.0001) %MON forcing_fu_mean              =  -3.0122743294973E-03
(PID.TID 0000.0001) %MON forcing_fu_sd                =   5.6824550230992E-02
(PID.TID 0000.0001) %MON forcing_fu_del2              =   5.7068376260253E-04
(PID.TID 0000.0001) %MON forcing_fv_max               =   2.7561696766798E-01
(PID.TID 0000.0001) %MON forcing_fv_min               =  -2.5452691794636E-01
(PID.TID 0000.0001) %MON forcing_fv_mean              =  -1.5388674245164E-02
(PID.TID 0000.0001) %MON forcing_fv_sd                =   5.9238088939323E-02
(PID.TID 0000.0001) %MON forcing_fv_del2              =   5.1186749266090E-04
(PID.TID 0000.0001) %MON trAdv_CFL_u_max              =   2.0179445207940E-03
(PID.TID 0000.0001) %MON trAdv_CFL_v_max              =   1.4128680900116E-03
(PID.TID 0000.0001) %MON trAdv_CFL_w_max              =   1.1673969619249E-03
(PID.TID 0000.0001) %MON advcfl_uvel_max              =   2.0134644074321E-03
(PID.TID 0000.0001) %MON advcfl_vvel_max              =   1.4018410610259E-03
(PID.TID 0000.0001) %MON advcfl_wvel_max              =   2.3973065873851E-03
(PID.TID 0000.0001) %MON advcfl_W_hf_max              =   1.3092658781898E-03
(PID.TID 0000.0001) %MON pe_b_mean                    =   4.9960202793313E-04
(PID.TID 0000.0001) %MON ke_max                       =   1.7908882837725E-01
(PID.TID 0000.0001) %MON ke_mean                      =   1.6404225049132E-04
(PID.TID 0000.0001) %MON ke_vol                       =   1.3398143788433E+18
(PID.TID 0000.0001) %MON vort_r_min                   =  -2.2464974554173E-06
(PID.TID 0000.0001) %MON vort_r_max                   =   2.7083638423855E-06
(PID.TID 0000.0001) %MON vort_a_mean                  =  -2.0549865324846E-05
(PID.TID 0000.0001) %MON vort_a_sd                    =   7.5259677633818E-05
(PID.TID 0000.0001) %MON vort_p_mean                  =  -2.4783243591551E-05
(PID.TID 0000.0001) %MON vort_p_sd                    =   1.2811930276445E-04
(PID.TID 0000.0001) %MON surfExpan_theta_mean         =  -5.1980326854614E-06
(PID.TID 0000.0001) %MON surfExpan_salt_mean          =   1.0808363069303E-06
(PID.TID 0000.0001) // =======================================================
(PID.TID 0000.0001) // End MONITOR dynamic field statistics
(PID.TID 0000.0001) // =======================================================
 cg2d: Sum(rhs),rhsMax =  -7.89172854366204E+01  3.61440083583368E+01
(PID.TID 0000.0001)      cg2d_init_res =   1.93922898373501E-01
(PID.TID 0000.0001)      cg2d_iters(min,last) =      -1      10
(PID.TID 0000.0001)      cg2d_last_res =   4.59606419953897E-08
(PID.TID 0000.0001) // =======================================================
(PID.TID 0000.0001) // Begin MONITOR dynamic field statistics
(PID.TID 0000.0001) // =======================================================
(PID.TID 0000.0001) %MON time_tsnumber                =                 72083
(PID.TID 0000.0001) %MON time_secondsf                =   6.4874700000000E+07
(PID.TID 0000.0001) %MON dynstat_eta_max              =   1.1723340812270E+00
(PID.TID 0000.0001) %MON dynstat_eta_min              =  -1.5582790143776E+00
(PID.TID 0000.0001) %MON dynstat_eta_mean             =   3.3144359081093E-02
(PID.TID 0000.0001) %MON dynstat_eta_sd               =   6.1141496093681E-01
(PID.TID 0000.0001) %MON dynstat_eta_del2             =   1.4169813550793E-03
(PID.TID 0000.0001) %MON dynstat_uvel_max             =   4.2058792278676E-01
(PID.TID 0000.0001) %MON dynstat_uvel_min             =  -7.0402393177392E-01
(PID.TID 0000.0001) %MON dynstat_uvel_mean            =  -4.3272722729346E-04
(PID.TID 0000.0001) %MON dynstat_uvel_sd              =   1.2936598628810E-02
(PID.TID 0000.0001) %MON dynstat_uvel_del2            =   8.4249324025630E-05
(PID.TID 0000.0001) %MON dynstat_vvel_max             =   3.0618748696018E-01
(PID.TID 0000.0001) %MON dynstat_vvel_min             =  -4.3734675810731E-01
(PID.TID 0000.0001) %MON dynstat_vvel_mean            =   2.1344527056547E-04
(PID.TID 0000.0001) %MON dynstat_vvel_sd              =   1.3693446320683E-02
(PID.TID 0000.0001) %MON dynstat_vvel_del2            =   8.7671847111689E-05
(PID.TID 0000.0001) %MON dynstat_wvel_max             =   1.1339766917585E-04
(PID.TID 0000.0001) %MON dynstat_wvel_min             =  -1.8140635742943E-04
(PID.TID 0000.0001) %MON dynstat_wvel_mean            =  -6.2391847708006E-08
(PID.TID 0000.0001) %MON dynstat_wvel_sd              =   7.5795709049397E-06
(PID.TID 0000.0001) %MON dynstat_wvel_del2            =   6.6393241129181E-08
(PID.TID 0000.0001) %MON dynstat_theta_max            =   3.0931674186456E+01
(PID.TID 0000.0001) %MON dynstat_theta_min            =  -3.0141483908094E+00
(PID.TID 0000.0001) %MON dynstat_theta_mean           =   3.9092824200755E+00
(PID.TID 0000.0001) %MON dynstat_theta_sd             =   4.5718582025267E+00
(PID.TID 0000.0001) %MON dynstat_theta_del2           =   2.6415252804846E-03
(PID.TID 0000.0001) %MON dynstat_salt_max             =   4.1346757922581E+01
(PID.TID 0000.0001) %MON dynstat_salt_min             =   1.8519210270483E+01
(PID.TID 0000.0001) %MON dynstat_salt_mean            =   3.4771906794679E+01
(PID.TID 0000.0001) %MON dynstat_salt_sd              =   5.3223943465721E-01
(PID.TID 0000.0001) %MON dynstat_salt_del2            =   1.1306596138577E-03
(PID.TID 0000.0001) %MON dynstat_sst_max              =   3.0931674186456E+01
(PID.TID 0000.0001) %MON dynstat_sst_min              =  -1.8986062740000E+00
(PID.TID 0000.0001) %MON dynstat_sst_mean             =   1.8114428792514E+01
(PID.TID 0000.0001) %MON dynstat_sst_sd               =   9.8127698541855E+00
(PID.TID 0000.0001) %MON dynstat_sst_del2             =   1.5054012984923E-02
(PID.TID 0000.0001) %MON dynstat_sss_max              =   4.1346757922581E+01
(PID.TID 0000.0001) %MON dynstat_sss_min              =   1.8752369324274E+01
(PID.TID 0000.0001) %MON dynstat_sss_mean             =   3.4620937829821E+01
(PID.TID 0000.0001) %MON dynstat_sss_sd               =   1.4898463963777E+00
(PID.TID 0000.0001) %MON dynstat_sss_del2             =   1.2816982782316E-02
(PID.TID 0000.0001) %MON forcing_qnet_max             =   1.4959741210938E+03
(PID.TID 0000.0001) %MON forcing_qnet_min             =  -8.8092411069010E+02
(PID.TID 0000.0001) %MON forcing_qnet_mean            =  -3.8433866015245E+01
(PID.TID 0000.0001) %MON forcing_qnet_sd              =   2.1215445592370E+02
(PID.TID 0000.0001) %MON forcing_qnet_del2            =   3.0249778315792E+00
(PID.TID 0000.0001) %MON forcing_qsw_max              =   0.0000000000000E+00
(PID.TID 0000.0001) %MON forcing_qsw_min              =  -4.0847268676531E+02
(PID.TID 0000.0001) %MON forcing_qsw_mean             =  -7.5001542139833E+01
(PID.TID 0000.0001) %MON forcing_qsw_sd               =   1.1059178867193E+02
(PID.TID 0000.0001) %MON forcing_qsw_del2             =   9.7616831870719E-01
(PID.TID 0000.0001) %MON forcing_empmr_max            =   4.7443392686546E-03
(PID.TID 0000.0001) %MON forcing_empmr_min            =  -6.8213537335396E-02
(PID.TID 0000.0001) %MON forcing_empmr_mean           =  -2.0008321387199E-04
(PID.TID 0000.0001) %MON forcing_empmr_sd             =   3.0049109501957E-03
(PID.TID 0000.0001) %MON forcing_empmr_del2           =   1.1821299989220E-04
(PID.TID 0000.0001) %MON forcing_fu_max               =   2.7375343961653E-01
(PID.TID 0000.0001) %MON forcing_fu_min               =  -3.4621932340523E-01
(PID.TID 0000.0001) %MON forcing_fu_mean              =  -3.0681225413030E-03
(PID.TID 0000.0001) %MON forcing_fu_sd                =   5.6519787095271E-02
(PID.TID 0000.0001) %MON forcing_fu_del2              =   5.6806819746690E-04
(PID.TID 0000.0001) %MON forcing_fv_max               =   2.7276101329897E-01
(PID.TID 0000.0001) %MON forcing_fv_min               =  -2.5431435545058E-01
(PID.TID 0000.0001) %MON forcing_fv_mean              =  -1.5412854109193E-02
(PID.TID 0000.0001) %MON forcing_fv_sd                =   5.9154831791480E-02
(PID.TID 0000.0001) %MON forcing_fv_del2              =   5.1018415993144E-04
(PID.TID 0000.0001) %MON trAdv_CFL_u_max              =   2.0367339090992E-03
(PID.TID 0000.0001) %MON trAdv_CFL_v_max              =   1.4445229807540E-03
(PID.TID 0000.0001) %MON trAdv_CFL_w_max              =   1.1713939204145E-03
(PID.TID 0000.0001) %MON advcfl_uvel_max              =   2.0309964273930E-03
(PID.TID 0000.0001) %MON advcfl_vvel_max              =   1.4272220027881E-03
(PID.TID 0000.0001) %MON advcfl_wvel_max              =   2.3726447768833E-03
(PID.TID 0000.0001) %MON advcfl_W_hf_max              =   1.3026778185076E-03
(PID.TID 0000.0001) %MON pe_b_mean                    =   4.9946731403620E-04
(PID.TID 0000.0001) %MON ke_max                       =   1.7237118224793E-01
(PID.TID 0000.0001) %MON ke_mean                      =   1.6398598659289E-04
(PID.TID 0000.0001) %MON ke_vol                       =   1.3398144428445E+18
(PID.TID 0000.0001) %MON vort_r_min                   =  -2.2660585850231E-06
(PID.TID 0000.0001) %MON vort_r_max                   =   2.7314123857459E-06
(PID.TID 0000.0001) %MON vort_a_mean                  =  -2.0549865324846E-05
(PID.TID 0000.0001) %MON vort_a_sd                    =   7.5259673494304E-05
(PID.TID 0000.0001) %MON vort_p_mean                  =  -2.4783242371443E-05
(PID.TID 0000.0001) %MON vort_p_sd                    =   1.2811930429925E-04
(PID.TID 0000.0001) %MON surfExpan_theta_mean         =  -5.0709802090175E-06
(PID.TID 0000.0001) %MON surfExpan_salt_mean          =   1.0612543199847E-06
(PID.TID 0000.0001) // =======================================================
(PID.TID 0000.0001) // End MONITOR dynamic field statistics
(PID.TID 0000.0001) // =======================================================
 Computing Diagnostic #     81  oceTAUX      Counter:       1   Parms: UU      U1      
           Vector  Mate for  oceTAUX      Diagnostic #     82  oceTAUY  exists 
 Computing Diagnostic #     82  oceTAUY      Counter:       1   Parms: VV      U1      
           Vector  Mate for  oceTAUY      Diagnostic #     81  oceTAUX  exists 
 Computing Diagnostic #     85  oceFWflx     Counter:       1   Parms: SM      U1      
 Computing Diagnostic #     86  oceSflux     Counter:       1   Parms: SM      U1      
 Computing Diagnostic #     87  oceQnet      Counter:       1   Parms: SM      U1      
 Computing Diagnostic #     88  oceQsw       Counter:       1   Parms: SM      U1      
 Computing Diagnostic #     27  SALT         Counter:       1   Parms: SMR     MR      
 Computing Diagnostic #     26  THETA        Counter:       1   Parms: SMR     MR      
 Computing Diagnostic #     45  UVELMASS     Counter:       1   Parms: UUr     MR      
           Vector  Mate for  UVELMASS     Diagnostic #     46  VVELMASS exists 
 Computing Diagnostic #     46  VVELMASS     Counter:       1   Parms: VVr     MR      
           Vector  Mate for  VVELMASS     Diagnostic #     45  UVELMASS exists 
 cg2d: Sum(rhs),rhsMax =  -7.93263933351264E+01  3.61445316733024E+01
(PID.TID 0000.0001)      cg2d_init_res =   1.94732317904102E-01
(PID.TID 0000.0001)      cg2d_iters(min,last) =      -1      10
(PID.TID 0000.0001)      cg2d_last_res =   4.04224256142185E-08
(PID.TID 0000.0001) // =======================================================
(PID.TID 0000.0001) // Begin MONITOR dynamic field statistics
(PID.TID 0000.0001) // =======================================================
(PID.TID 0000.0001) %MON time_tsnumber                =                 72084
(PID.TID 0000.0001) %MON time_secondsf                =   6.4875600000000E+07
(PID.TID 0000.0001) %MON dynstat_eta_max              =   1.1264222930929E+00
(PID.TID 0000.0001) %MON dynstat_eta_min              =  -1.5571922015094E+00
(PID.TID 0000.0001) %MON dynstat_eta_mean             =   3.3316662100639E-02
(PID.TID 0000.0001) %MON dynstat_eta_sd               =   6.1132273939132E-01
(PID.TID 0000.0001) %MON dynstat_eta_del2             =   1.3732912216925E-03
(PID.TID 0000.0001) %MON dynstat_uvel_max             =   4.2266812322624E-01
(PID.TID 0000.0001) %MON dynstat_uvel_min             =  -7.0805675472532E-01
(PID.TID 0000.0001) %MON dynstat_uvel_mean            =  -4.4575764304076E-04
(PID.TID 0000.0001) %MON dynstat_uvel_sd              =   1.2923501528791E-02
(PID.TID 0000.0001) %MON dynstat_uvel_del2            =   8.4371413691510E-05
(PID.TID 0000.0001) %MON dynstat_vvel_max             =   3.1871424160331E-01
(PID.TID 0000.0001) %MON dynstat_vvel_min             =  -4.3832553233761E-01
(PID.TID 0000.0001) %MON dynstat_vvel_mean            =   1.9684916612709E-04
(PID.TID 0000.0001) %MON dynstat_vvel_sd              =   1.3699557097408E-02
(PID.TID 0000.0001) %MON dynstat_vvel_del2            =   8.7881239861709E-05
(PID.TID 0000.0001) %MON dynstat_wvel_max             =   1.0822376698460E-04
(PID.TID 0000.0001) %MON dynstat_wvel_min             =  -1.8146867131236E-04
(PID.TID 0000.0001) %MON dynstat_wvel_mean            =  -5.7752157189348E-08
(PID.TID 0000.0001) %MON dynstat_wvel_sd              =   7.5673360222202E-06
(PID.TID 0000.0001) %MON dynstat_wvel_del2            =   6.6103551647903E-08
(PID.TID 0000.0001) %MON dynstat_theta_max            =   3.0931342987396E+01
(PID.TID 0000.0001) %MON dynstat_theta_min            =  -3.0147050911081E+00
(PID.TID 0000.0001) %MON dynstat_theta_mean           =   3.9092857870783E+00
(PID.TID 0000.0001) %MON dynstat_theta_sd             =   4.5718711215193E+00
(PID.TID 0000.0001) %MON dynstat_theta_del2           =   2.6414176627946E-03
(PID.TID 0000.0001) %MON dynstat_salt_max             =   4.1346728047514E+01
(PID.TID 0000.0001) %MON dynstat_salt_min             =   1.8519220218147E+01
(PID.TID 0000.0001) %MON dynstat_salt_mean            =   3.4771905254679E+01
(PID.TID 0000.0001) %MON dynstat_salt_sd              =   5.3224969911942E-01
(PID.TID 0000.0001) %MON dynstat_salt_del2            =   1.1328668979402E-03
(PID.TID 0000.0001) %MON dynstat_sst_max              =   3.0931342987396E+01
(PID.TID 0000.0001) %MON dynstat_sst_min              =  -1.8984682412905E+00
(PID.TID 0000.0001) %MON dynstat_sst_mean             =   1.8114576274969E+01
(PID.TID 0000.0001) %MON dynstat_sst_sd               =   9.8129234289139E+00
(PID.TID 0000.0001) %MON dynstat_sst_del2             =   1.5052158924766E-02
(PID.TID 0000.0001) %MON dynstat_sss_max              =   4.1346728047514E+01
(PID.TID 0000.0001) %MON dynstat_sss_min              =   1.8752381402350E+01
(PID.TID 0000.0001) %MON dynstat_sss_mean             =   3.4620819080134E+01
(PID.TID 0000.0001) %MON dynstat_sss_sd               =   1.4901055024355E+00
(PID.TID 0000.0001) %MON dynstat_sss_del2             =   1.2847772335357E-02
(PID.TID 0000.0001) %MON forcing_qnet_max             =   1.4794066162109E+03
(PID.TID 0000.0001) %MON forcing_qnet_min             =  -8.7104494115818E+02
(PID.TID 0000.0001) %MON forcing_qnet_mean            =  -3.8702293589186E+01
(PID.TID 0000.0001) %MON forcing_qnet_sd              =   2.1271305677521E+02
(PID.TID 0000.0001) %MON forcing_qnet_del2            =   3.1339182481444E+00
(PID.TID 0000.0001) %MON forcing_qsw_max              =   0.0000000000000E+00
(PID.TID 0000.0001) %MON forcing_qsw_min              =  -4.1274651196538E+02
(PID.TID 0000.0001) %MON forcing_qsw_mean             =  -7.5388957277976E+01
(PID.TID 0000.0001) %MON forcing_qsw_sd               =   1.1087760316143E+02
(PID.TID 0000.0001) %MON forcing_qsw_del2             =   9.7015928869096E-01
(PID.TID 0000.0001) %MON forcing_empmr_max            =   4.6954327262938E-03
(PID.TID 0000.0001) %MON forcing_empmr_min            =  -6.7511223256588E-02
(PID.TID 0000.0001) %MON forcing_empmr_mean           =  -1.9814847247777E-04
(PID.TID 0000.0001) %MON forcing_empmr_sd             =   2.9743902404937E-03
(PID.TID 0000.0001) %MON forcing_empmr_del2           =   1.1697142984915E-04
(PID.TID 0000.0001) %MON forcing_fu_max               =   2.7180184026089E-01
(PID.TID 0000.0001) %MON forcing_fu_min               =  -3.4120489425607E-01
(PID.TID 0000.0001) %MON forcing_fu_mean              =  -3.1322378600197E-03
(PID.TID 0000.0001) %MON forcing_fu_sd                =   5.6184853718358E-02
(PID.TID 0000.0001) %MON forcing_fu_del2              =   5.6534983492950E-04
(PID.TID 0000.0001) %MON forcing_fv_max               =   2.7069064692535E-01
(PID.TID 0000.0001) %MON forcing_fv_min               =  -2.5352331676782E-01
(PID.TID 0000.0001) %MON forcing_fv_mean              =  -1.5416407601545E-02
(PID.TID 0000.0001) %MON forcing_fv_sd                =   5.9013048006085E-02
(PID.TID 0000.0001) %MON forcing_fv_del2              =   5.0815296321053E-04
(PID.TID 0000.0001) %MON trAdv_CFL_u_max              =   2.0496980877191E-03
(PID.TID 0000.0001) %MON trAdv_CFL_v_max              =   1.4525331202879E-03
(PID.TID 0000.0001) %MON trAdv_CFL_w_max              =   1.1739405414442E-03
(PID.TID 0000.0001) %MON advcfl_uvel_max              =   2.0426304765168E-03
(PID.TID 0000.0001) %MON advcfl_vvel_max              =   1.4304161001293E-03
(PID.TID 0000.0001) %MON advcfl_wvel_max              =   2.3482164610987E-03
(PID.TID 0000.0001) %MON advcfl_W_hf_max              =   1.2932472837211E-03
(PID.TID 0000.0001) %MON pe_b_mean                    =   4.9933232624161E-04
(PID.TID 0000.0001) %MON ke_max                       =   1.7308320238737E-01
(PID.TID 0000.0001) %MON ke_mean                      =   1.6391017451098E-04
(PID.TID 0000.0001) %MON ke_vol                       =   1.3398145061555E+18
(PID.TID 0000.0001) %MON vort_r_min                   =  -2.2790391282383E-06
(PID.TID 0000.0001) %MON vort_r_max                   =   2.7447875198304E-06
(PID.TID 0000.0001) %MON vort_a_mean                  =  -2.0549865324846E-05
(PID.TID 0000.0001) %MON vort_a_sd                    =   7.5259669680875E-05
(PID.TID 0000.0001) %MON vort_p_mean                  =  -2.4783241175608E-05
(PID.TID 0000.0001) %MON vort_p_sd                    =   1.2811930678724E-04
(PID.TID 0000.0001) %MON surfExpan_theta_mean         =  -4.9510057714049E-06
(PID.TID 0000.0001) %MON surfExpan_salt_mean          =   1.0405615189360E-06
(PID.TID 0000.0001) // =======================================================
(PID.TID 0000.0001) // End MONITOR dynamic field statistics
(PID.TID 0000.0001) // =======================================================
 cg2d: Sum(rhs),rhsMax =  -7.97365212951592E+01  3.61434668718047E+01
(PID.TID 0000.0001)      cg2d_init_res =   1.94865329421796E-01
(PID.TID 0000.0001)      cg2d_iters(min,last) =      -1      10
(PID.TID 0000.0001)      cg2d_last_res =   3.79586476212770E-08
(PID.TID 0000.0001) // =======================================================
(PID.TID 0000.0001) // Begin MONITOR dynamic field statistics
(PID.TID 0000.0001) // =======================================================
(PID.TID 0000.0001) %MON time_tsnumber                =                 72085
(PID.TID 0000.0001) %MON time_secondsf                =   6.4876500000000E+07
(PID.TID 0000.0001) %MON dynstat_eta_max              =   1.0743970505768E+00
(PID.TID 0000.0001) %MON dynstat_eta_min              =  -1.5561417584506E+00
(PID.TID 0000.0001) %MON dynstat_eta_mean             =   3.3487927088174E-02
(PID.TID 0000.0001) %MON dynstat_eta_sd               =   6.1123075110769E-01
(PID.TID 0000.0001) %MON dynstat_eta_del2             =   1.3356984600292E-03
(PID.TID 0000.0001) %MON dynstat_uvel_max             =   4.2134926812881E-01
(PID.TID 0000.0001) %MON dynstat_uvel_min             =  -7.0996605100051E-01
(PID.TID 0000.0001) %MON dynstat_uvel_mean            =  -4.5808877964748E-04
(PID.TID 0000.0001) %MON dynstat_uvel_sd              =   1.2910997710332E-02
(PID.TID 0000.0001) %MON dynstat_uvel_del2            =   8.4513761619315E-05
(PID.TID 0000.0001) %MON dynstat_vvel_max             =   3.2695898857915E-01
(PID.TID 0000.0001) %MON dynstat_vvel_min             =  -4.3271081865075E-01
(PID.TID 0000.0001) %MON dynstat_vvel_mean            =   1.8191334501960E-04
(PID.TID 0000.0001) %MON dynstat_vvel_sd              =   1.3703315973628E-02
(PID.TID 0000.0001) %MON dynstat_vvel_del2            =   8.7886307653414E-05
(PID.TID 0000.0001) %MON dynstat_wvel_max             =   1.0259747488206E-04
(PID.TID 0000.0001) %MON dynstat_wvel_min             =  -1.8153762790707E-04
(PID.TID 0000.0001) %MON dynstat_wvel_mean            =  -5.4198002962982E-08
(PID.TID 0000.0001) %MON dynstat_wvel_sd              =   7.5563783731161E-06
(PID.TID 0000.0001) %MON dynstat_wvel_del2            =   6.5798382569760E-08
(PID.TID 0000.0001) %MON dynstat_theta_max            =   3.0931004510962E+01
(PID.TID 0000.0001) %MON dynstat_theta_min            =  -3.0152731883907E+00
(PID.TID 0000.0001) %MON dynstat_theta_mean           =   3.9092893343491E+00
(PID.TID 0000.0001) %MON dynstat_theta_sd             =   4.5718848107728E+00
(PID.TID 0000.0001) %MON dynstat_theta_del2           =   2.6413098865672E-03
(PID.TID 0000.0001) %MON dynstat_salt_max             =   4.1346702249867E+01
(PID.TID 0000.0001) %MON dynstat_salt_min             =   1.8519230175778E+01
(PID.TID 0000.0001) %MON dynstat_salt_mean            =   3.4771903733338E+01
(PID.TID 0000.0001) %MON dynstat_salt_sd              =   5.3225979446029E-01
(PID.TID 0000.0001) %MON dynstat_salt_del2            =   1.1350250014118E-03
(PID.TID 0000.0001) %MON dynstat_sst_max              =   3.0931004510962E+01
(PID.TID 0000.0001) %MON dynstat_sst_min              =  -1.8983229127526E+00
(PID.TID 0000.0001) %MON dynstat_sst_mean             =   1.8114737534383E+01
(PID.TID 0000.0001) %MON dynstat_sst_sd               =   9.8130839377690E+00
(PID.TID 0000.0001) %MON dynstat_sst_del2             =   1.5050331552799E-02
(PID.TID 0000.0001) %MON dynstat_sss_max              =   4.1346702249867E+01
(PID.TID 0000.0001) %MON dynstat_sss_min              =   1.8752393462431E+01
(PID.TID 0000.0001) %MON dynstat_sss_mean             =   3.4620701858832E+01
(PID.TID 0000.0001) %MON dynstat_sss_sd               =   1.4903596571276E+00
(PID.TID 0000.0001) %MON dynstat_sss_del2             =   1.2877867003617E-02
(PID.TID 0000.0001) %MON forcing_qnet_max             =   3.2640668945312E+03
(PID.TID 0000.0001) %MON forcing_qnet_min             =  -8.6018239408767E+02
(PID.TID 0000.0001) %MON forcing_qnet_mean            =  -4.1843092850572E+01
(PID.TID 0000.0001) %MON forcing_qnet_sd              =   2.1687539859703E+02
(PID.TID 0000.0001) %MON forcing_qnet_del2            =   3.8430793367675E+00
(PID.TID 0000.0001) %MON forcing_qsw_max              =   0.0000000000000E+00
(PID.TID 0000.0001) %MON forcing_qsw_min              =  -4.1780569391739E+02
(PID.TID 0000.0001) %MON forcing_qsw_mean             =  -7.7052313200686E+01
(PID.TID 0000.0001) %MON forcing_qsw_sd               =   1.1278676576520E+02
(PID.TID 0000.0001) %MON forcing_qsw_del2             =   9.6881196295854E-01
(PID.TID 0000.0001) %MON forcing_empmr_max            =   4.6471161767840E-03
(PID.TID 0000.0001) %MON forcing_empmr_min            =  -6.6816456615925E-02
(PID.TID 0000.0001) %MON forcing_empmr_mean           =  -1.9695473566423E-04
(PID.TID 0000.0001) %MON forcing_empmr_sd             =   2.9440189260627E-03
(PID.TID 0000.0001) %MON forcing_empmr_del2           =   1.1575716266824E-04
(PID.TID 0000.0001) %MON forcing_fu_max               =   2.6266304087571E-01
(PID.TID 0000.0001) %MON forcing_fu_min               =  -3.3666637977854E-01
(PID.TID 0000.0001) %MON forcing_fu_mean              =  -3.2398094788726E-03
(PID.TID 0000.0001) %MON forcing_fu_sd                =   5.5725751272355E-02
(PID.TID 0000.0001) %MON forcing_fu_del2              =   5.6216474517597E-04
(PID.TID 0000.0001) %MON forcing_fv_max               =   2.6539970793318E-01
(PID.TID 0000.0001) %MON forcing_fv_min               =  -2.5290111640618E-01
(PID.TID 0000.0001) %MON forcing_fv_mean              =  -1.5422159251832E-02
(PID.TID 0000.0001) %MON forcing_fv_sd                =   5.8799670276848E-02
(PID.TID 0000.0001) %MON forcing_fv_del2              =   5.0525811379116E-04
(PID.TID 0000.0001) %MON trAdv_CFL_u_max              =   2.0565929945619E-03
(PID.TID 0000.0001) %MON trAdv_CFL_v_max              =   1.4377043031763E-03
(PID.TID 0000.0001) %MON trAdv_CFL_w_max              =   1.2057501813279E-03
(PID.TID 0000.0001) %MON advcfl_uvel_max              =   2.0481384908594E-03
(PID.TID 0000.0001) %MON advcfl_vvel_max              =   1.4120932412886E-03
(PID.TID 0000.0001) %MON advcfl_wvel_max              =   2.3240506649017E-03
(PID.TID 0000.0001) %MON advcfl_W_hf_max              =   1.2812798448849E-03
(PID.TID 0000.0001) %MON pe_b_mean                    =   4.9919772770324E-04
(PID.TID 0000.0001) %MON ke_max                       =   1.7878664826023E-01
(PID.TID 0000.0001) %MON ke_mean                      =   1.6381208040534E-04
(PID.TID 0000.0001) %MON ke_vol                       =   1.3398145688542E+18
(PID.TID 0000.0001) %MON vort_r_min                   =  -2.2851846256006E-06
(PID.TID 0000.0001) %MON vort_r_max                   =   2.7484118140269E-06
(PID.TID 0000.0001) %MON vort_a_mean                  =  -2.0549865324846E-05
(PID.TID 0000.0001) %MON vort_a_sd                    =   7.5259666229949E-05
(PID.TID 0000.0001) %MON vort_p_mean                  =  -2.4783240001402E-05
(PID.TID 0000.0001) %MON vort_p_sd                    =   1.2811931004132E-04
(PID.TID 0000.0001) %MON surfExpan_theta_mean         =  -4.8472646230613E-06
(PID.TID 0000.0001) %MON surfExpan_salt_mean          =   1.0181145266583E-06
(PID.TID 0000.0001) // =======================================================
(PID.TID 0000.0001) // End MONITOR dynamic field statistics
(PID.TID 0000.0001) // =======================================================
 cg2d: Sum(rhs),rhsMax =  -8.01427174703342E+01  3.61421411134059E+01
(PID.TID 0000.0001)      cg2d_init_res =   1.94267969408740E-01
(PID.TID 0000.0001)      cg2d_iters(min,last) =      -1      10
(PID.TID 0000.0001)      cg2d_last_res =   3.77177797526575E-08
(PID.TID 0000.0001) // =======================================================
(PID.TID 0000.0001) // Begin MONITOR dynamic field statistics
(PID.TID 0000.0001) // =======================================================
(PID.TID 0000.0001) %MON time_tsnumber                =                 72086
(PID.TID 0000.0001) %MON time_secondsf                =   6.4877400000000E+07
(PID.TID 0000.0001) %MON dynstat_eta_max              =   1.0166361867311E+00
(PID.TID 0000.0001) %MON dynstat_eta_min              =  -1.5563794253633E+00
(PID.TID 0000.0001) %MON dynstat_eta_mean             =   3.3657287679900E-02
(PID.TID 0000.0001) %MON dynstat_eta_sd               =   6.1113763879128E-01
(PID.TID 0000.0001) %MON dynstat_eta_del2             =   1.3056412141306E-03
(PID.TID 0000.0001) %MON dynstat_uvel_max             =   4.1684984013679E-01
(PID.TID 0000.0001) %MON dynstat_uvel_min             =  -7.0968797965281E-01
(PID.TID 0000.0001) %MON dynstat_uvel_mean            =  -4.6963691108904E-04
(PID.TID 0000.0001) %MON dynstat_uvel_sd              =   1.2899191258674E-02
(PID.TID 0000.0001) %MON dynstat_uvel_del2            =   8.4660672938473E-05
(PID.TID 0000.0001) %MON dynstat_vvel_max             =   3.3094188790375E-01
(PID.TID 0000.0001) %MON dynstat_vvel_min             =  -4.2079941133941E-01
(PID.TID 0000.0001) %MON dynstat_vvel_mean            =   1.6881159430440E-04
(PID.TID 0000.0001) %MON dynstat_vvel_sd              =   1.3704873353809E-02
(PID.TID 0000.0001) %MON dynstat_vvel_del2            =   8.7701872253722E-05
(PID.TID 0000.0001) %MON dynstat_wvel_max             =   1.0273823073585E-04
(PID.TID 0000.0001) %MON dynstat_wvel_min             =  -1.8160168100869E-04
(PID.TID 0000.0001) %MON dynstat_wvel_mean            =  -5.0465675838852E-08
(PID.TID 0000.0001) %MON dynstat_wvel_sd              =   7.5476948763248E-06
(PID.TID 0000.0001) %MON dynstat_wvel_del2            =   6.5486935144212E-08
(PID.TID 0000.0001) %MON dynstat_theta_max            =   3.0930659819749E+01
(PID.TID 0000.0001) %MON dynstat_theta_min            =  -3.0158525303736E+00
(PID.TID 0000.0001) %MON dynstat_theta_mean           =   3.9092929391164E+00
(PID.TID 0000.0001) %MON dynstat_theta_sd             =   4.5718988004044E+00
(PID.TID 0000.0001) %MON dynstat_theta_del2           =   2.6411994163096E-03
(PID.TID 0000.0001) %MON dynstat_salt_max             =   4.1346681796621E+01
(PID.TID 0000.0001) %MON dynstat_salt_min             =   1.8519240144040E+01
(PID.TID 0000.0001) %MON dynstat_salt_mean            =   3.4771902244058E+01
(PID.TID 0000.0001) %MON dynstat_salt_sd              =   5.3226977082801E-01
(PID.TID 0000.0001) %MON dynstat_salt_del2            =   1.1371343529866E-03
(PID.TID 0000.0001) %MON dynstat_sst_max              =   3.0930659819749E+01
(PID.TID 0000.0001) %MON dynstat_sst_min              =  -1.8981723871310E+00
(PID.TID 0000.0001) %MON dynstat_sst_mean             =   1.8114904571457E+01
(PID.TID 0000.0001) %MON dynstat_sst_sd               =   9.8132478936745E+00
(PID.TID 0000.0001) %MON dynstat_sst_del2             =   1.5048453959696E-02
(PID.TID 0000.0001) %MON dynstat_sss_max              =   4.1346681796621E+01
(PID.TID 0000.0001) %MON dynstat_sss_min              =   1.8752405354361E+01
(PID.TID 0000.0001) %MON dynstat_sss_mean             =   3.4620587217203E+01
(PID.TID 0000.0001) %MON dynstat_sss_sd               =   1.4906102928562E+00
(PID.TID 0000.0001) %MON dynstat_sss_del2             =   1.2907273021735E-02
(PID.TID 0000.0001) %MON forcing_qnet_max             =   1.4460031738281E+03
(PID.TID 0000.0001) %MON forcing_qnet_min             =  -8.5053038554951E+02
(PID.TID 0000.0001) %MON forcing_qnet_mean            =  -4.3085269873679E+01
(PID.TID 0000.0001) %MON forcing_qnet_sd              =   2.1537955544417E+02
(PID.TID 0000.0001) %MON forcing_qnet_del2            =   3.0157927953667E+00
(PID.TID 0000.0001) %MON forcing_qsw_max              =   0.0000000000000E+00
(PID.TID 0000.0001) %MON forcing_qsw_min              =  -4.1875483698140E+02
(PID.TID 0000.0001) %MON forcing_qsw_mean             =  -7.7909968972187E+01
(PID.TID 0000.0001) %MON forcing_qsw_sd               =   1.1366893007745E+02
(PID.TID 0000.0001) %MON forcing_qsw_del2             =   9.6903369108226E-01
(PID.TID 0000.0001) %MON forcing_empmr_max            =   4.5991935767233E-03
(PID.TID 0000.0001) %MON forcing_empmr_min            =  -6.6128402948380E-02
(PID.TID 0000.0001) %MON forcing_empmr_mean           =  -1.9476468048493E-04
(PID.TID 0000.0001) %MON forcing_empmr_sd             =   2.9145678529941E-03
(PID.TID 0000.0001) %MON forcing_empmr_del2           =   1.1455653149899E-04
(PID.TID 0000.0001) %MON forcing_fu_max               =   2.5960950103590E-01
(PID.TID 0000.0001) %MON forcing_fu_min               =  -3.3321671225842E-01
(PID.TID 0000.0001) %MON forcing_fu_mean              =  -3.3536729406482E-03
(PID.TID 0000.0001) %MON forcing_fu_sd                =   5.5306218752257E-02
(PID.TID 0000.0001) %MON forcing_fu_del2              =   5.5903462739247E-04
(PID.TID 0000.0001) %MON forcing_fv_max               =   2.6316911308308E-01
(PID.TID 0000.0001) %MON forcing_fv_min               =  -2.5256890240718E-01
(PID.TID 0000.0001) %MON forcing_fv_mean              =  -1.5425597463817E-02
(PID.TID 0000.0001) %MON forcing_fv_sd                =   5.8672761584506E-02
(PID.TID 0000.0001) %MON forcing_fv_del2              =   5.0388483285799E-04
(PID.TID 0000.0001) %MON trAdv_CFL_u_max              =   2.0572156453688E-03
(PID.TID 0000.0001) %MON trAdv_CFL_v_max              =   1.4011911955595E-03
(PID.TID 0000.0001) %MON trAdv_CFL_w_max              =   1.2380440705649E-03
(PID.TID 0000.0001) %MON advcfl_uvel_max              =   2.0473362995016E-03
(PID.TID 0000.0001) %MON advcfl_vvel_max              =   1.3732219743047E-03
(PID.TID 0000.0001) %MON advcfl_wvel_max              =   2.3001183634219E-03
(PID.TID 0000.0001) %MON advcfl_W_hf_max              =   1.2670648081106E-03
(PID.TID 0000.0001) %MON pe_b_mean                    =   4.9906122898866E-04
(PID.TID 0000.0001) %MON ke_max                       =   1.8364908461708E-01
(PID.TID 0000.0001) %MON ke_mean                      =   1.6369470354271E-04
(PID.TID 0000.0001) %MON ke_vol                       =   1.3398146311753E+18
(PID.TID 0000.0001) %MON vort_r_min                   =  -2.3057852168657E-06
(PID.TID 0000.0001) %MON vort_r_max                   =   2.7422916305385E-06
(PID.TID 0000.0001) %MON vort_a_mean                  =  -2.0549865324846E-05
(PID.TID 0000.0001) %MON vort_a_sd                    =   7.5259663175045E-05
(PID.TID 0000.0001) %MON vort_p_mean                  =  -2.4783238843793E-05
(PID.TID 0000.0001) %MON vort_p_sd                    =   1.2811931381904E-04
(PID.TID 0000.0001) %MON surfExpan_theta_mean         =  -4.7215728829886E-06
(PID.TID 0000.0001) %MON surfExpan_salt_mean          =   9.9653659384548E-07
(PID.TID 0000.0001) // =======================================================
(PID.TID 0000.0001) // End MONITOR dynamic field statistics
(PID.TID 0000.0001) // =======================================================
 cg2d: Sum(rhs),rhsMax =  -8.05433819707515E+01  3.61417978315360E+01
(PID.TID 0000.0001)      cg2d_init_res =   1.92857739955959E-01
(PID.TID 0000.0001)      cg2d_iters(min,last) =      -1      10
(PID.TID 0000.0001)      cg2d_last_res =   3.80959259598548E-08
(PID.TID 0000.0001) // =======================================================
(PID.TID 0000.0001) // Begin MONITOR dynamic field statistics
(PID.TID 0000.0001) // =======================================================
(PID.TID 0000.0001) %MON time_tsnumber                =                 72087
(PID.TID 0000.0001) %MON time_secondsf                =   6.4878300000000E+07
(PID.TID 0000.0001) %MON dynstat_eta_max              =   9.8144335869806E-01
(PID.TID 0000.0001) %MON dynstat_eta_min              =  -1.5567442101894E+00
(PID.TID 0000.0001) %MON dynstat_eta_mean             =   3.3825232224735E-02
(PID.TID 0000.0001) %MON dynstat_eta_sd               =   6.1104111203455E-01
(PID.TID 0000.0001) %MON dynstat_eta_del2             =   1.2838866505161E-03
(PID.TID 0000.0001) %MON dynstat_uvel_max             =   4.0946304742482E-01
(PID.TID 0000.0001) %MON dynstat_uvel_min             =  -7.0717536680401E-01
(PID.TID 0000.0001) %MON dynstat_uvel_mean            =  -4.8034492030726E-04
(PID.TID 0000.0001) %MON dynstat_uvel_sd              =   1.2888216395509E-02
(PID.TID 0000.0001) %MON dynstat_uvel_del2            =   8.4798963732304E-05
(PID.TID 0000.0001) %MON dynstat_vvel_max             =   3.3074977484285E-01
(PID.TID 0000.0001) %MON dynstat_vvel_min             =  -4.0297379106065E-01
(PID.TID 0000.0001) %MON dynstat_vvel_mean            =   1.5767394266526E-04
(PID.TID 0000.0001) %MON dynstat_vvel_sd              =   1.3704271371988E-02
(PID.TID 0000.0001) %MON dynstat_vvel_del2            =   8.7356146867748E-05
(PID.TID 0000.0001) %MON dynstat_wvel_max             =   1.0289351831944E-04
(PID.TID 0000.0001) %MON dynstat_wvel_min             =  -1.8167713393506E-04
(PID.TID 0000.0001) %MON dynstat_wvel_mean            =  -4.8131541294004E-08
(PID.TID 0000.0001) %MON dynstat_wvel_sd              =   7.5406578901815E-06
(PID.TID 0000.0001) %MON dynstat_wvel_del2            =   6.5176463806140E-08
(PID.TID 0000.0001) %MON dynstat_theta_max            =   3.0930307632791E+01
(PID.TID 0000.0001) %MON dynstat_theta_min            =  -3.0164433519973E+00
(PID.TID 0000.0001) %MON dynstat_theta_mean           =   3.9092966402155E+00
(PID.TID 0000.0001) %MON dynstat_theta_sd             =   4.5719132359218E+00
(PID.TID 0000.0001) %MON dynstat_theta_del2           =   2.6410874722999E-03
(PID.TID 0000.0001) %MON dynstat_salt_max             =   4.1346667939622E+01
(PID.TID 0000.0001) %MON dynstat_salt_min             =   1.8519250123214E+01
(PID.TID 0000.0001) %MON dynstat_salt_mean            =   3.4771900791768E+01
(PID.TID 0000.0001) %MON dynstat_salt_sd              =   5.3227958171184E-01
(PID.TID 0000.0001) %MON dynstat_salt_del2            =   1.1391952889809E-03
(PID.TID 0000.0001) %MON dynstat_sst_max              =   3.0930307632791E+01
(PID.TID 0000.0001) %MON dynstat_sst_min              =  -1.8980187851661E+00
(PID.TID 0000.0001) %MON dynstat_sst_mean             =   1.8115079945391E+01
(PID.TID 0000.0001) %MON dynstat_sst_sd               =   9.8134162585627E+00
(PID.TID 0000.0001) %MON dynstat_sst_del2             =   1.5046543877596E-02
(PID.TID 0000.0001) %MON dynstat_sss_max              =   4.1346667939622E+01
(PID.TID 0000.0001) %MON dynstat_sss_min              =   1.8752417226845E+01
(PID.TID 0000.0001) %MON dynstat_sss_mean             =   3.4620475411135E+01
(PID.TID 0000.0001) %MON dynstat_sss_sd               =   1.4908561875302E+00
(PID.TID 0000.0001) %MON dynstat_sss_del2             =   1.2935995002189E-02
(PID.TID 0000.0001) %MON forcing_qnet_max             =   1.4300258789062E+03
(PID.TID 0000.0001) %MON forcing_qnet_min             =  -1.6200623779297E+03
(PID.TID 0000.0001) %MON forcing_qnet_mean            =  -4.4858557771081E+01
(PID.TID 0000.0001) %MON forcing_qnet_sd              =   2.1723199022433E+02
(PID.TID 0000.0001) %MON forcing_qnet_del2            =   3.2352831744195E+00
(PID.TID 0000.0001) %MON forcing_qsw_max              =   0.0000000000000E+00
(PID.TID 0000.0001) %MON forcing_qsw_min              =  -4.1801942080836E+02
(PID.TID 0000.0001) %MON forcing_qsw_mean             =  -7.8584418133176E+01
(PID.TID 0000.0001) %MON forcing_qsw_sd               =   1.1445678755039E+02
(PID.TID 0000.0001) %MON forcing_qsw_del2             =   9.6828636145369E-01
(PID.TID 0000.0001) %MON forcing_empmr_max            =   4.5518614351749E-03
(PID.TID 0000.0001) %MON forcing_empmr_min            =  -6.5447904169559E-02
(PID.TID 0000.0001) %MON forcing_empmr_mean           =  -1.9313622656127E-04
(PID.TID 0000.0001) %MON forcing_empmr_sd             =   2.8844954822904E-03
(PID.TID 0000.0001) %MON forcing_empmr_del2           =   1.1333711226784E-04
(PID.TID 0000.0001) %MON forcing_fu_max               =   2.5702209763508E-01
(PID.TID 0000.0001) %MON forcing_fu_min               =  -3.3553874692272E-01
(PID.TID 0000.0001) %MON forcing_fu_mean              =  -3.4718223479737E-03
(PID.TID 0000.0001) %MON forcing_fu_sd                =   5.5080481853590E-02
(PID.TID 0000.0001) %MON forcing_fu_del2              =   5.5674955016889E-04
(PID.TID 0000.0001) %MON forcing_fv_max               =   2.5770684208013E-01
(PID.TID 0000.0001) %MON forcing_fv_min               =  -2.5240980231245E-01
(PID.TID 0000.0001) %MON forcing_fv_mean              =  -1.5434692448692E-02
(PID.TID 0000.0001) %MON forcing_fv_sd                =   5.8495824534073E-02
(PID.TID 0000.0001) %MON forcing_fv_del2              =   5.0106090426504E-04
(PID.TID 0000.0001) %MON trAdv_CFL_u_max              =   2.0514086291756E-03
(PID.TID 0000.0001) %MON trAdv_CFL_v_max              =   1.3444693020213E-03
(PID.TID 0000.0001) %MON trAdv_CFL_w_max              =   1.2620116190546E-03
(PID.TID 0000.0001) %MON advcfl_uvel_max              =   2.0400878133508E-03
(PID.TID 0000.0001) %MON advcfl_vvel_max              =   1.3150504730793E-03
(PID.TID 0000.0001) %MON advcfl_wvel_max              =   2.2764488406803E-03
(PID.TID 0000.0001) %MON advcfl_W_hf_max              =   1.2620116190546E-03
(PID.TID 0000.0001) %MON pe_b_mean                    =   4.9891914363817E-04
(PID.TID 0000.0001) %MON ke_max                       =   1.8758503991058E-01
(PID.TID 0000.0001) %MON ke_mean                      =   1.6356003801656E-04
(PID.TID 0000.0001) %MON ke_vol                       =   1.3398146928034E+18
(PID.TID 0000.0001) %MON vort_r_min                   =  -2.3439845396090E-06
(PID.TID 0000.0001) %MON vort_r_max                   =   2.7265163830629E-06
(PID.TID 0000.0001) %MON vort_a_mean                  =  -2.0549865324846E-05
(PID.TID 0000.0001) %MON vort_a_sd                    =   7.5259660543636E-05
(PID.TID 0000.0001) %MON vort_p_mean                  =  -2.4783237710525E-05
(PID.TID 0000.0001) %MON vort_p_sd                    =   1.2811931787511E-04
(PID.TID 0000.0001) %MON surfExpan_theta_mean         =  -4.6046056431793E-06
(PID.TID 0000.0001) %MON surfExpan_salt_mean          =   9.7182560744317E-07
(PID.TID 0000.0001) // =======================================================
(PID.TID 0000.0001) // End MONITOR dynamic field statistics
(PID.TID 0000.0001) // =======================================================
 Computing Diagnostic #     81  oceTAUX      Counter:       1   Parms: UU      U1      
           Vector  Mate for  oceTAUX      Diagnostic #     82  oceTAUY  exists 
 Computing Diagnostic #     82  oceTAUY      Counter:       1   Parms: VV      U1      
           Vector  Mate for  oceTAUY      Diagnostic #     81  oceTAUX  exists 
 Computing Diagnostic #     85  oceFWflx     Counter:       1   Parms: SM      U1      
 Computing Diagnostic #     86  oceSflux     Counter:       1   Parms: SM      U1      
 Computing Diagnostic #     87  oceQnet      Counter:       1   Parms: SM      U1      
 Computing Diagnostic #     88  oceQsw       Counter:       1   Parms: SM      U1      
 Computing Diagnostic #     27  SALT         Counter:       1   Parms: SMR     MR      
 Computing Diagnostic #     26  THETA        Counter:       1   Parms: SMR     MR      
 Computing Diagnostic #     45  UVELMASS     Counter:       1   Parms: UUr     MR      
           Vector  Mate for  UVELMASS     Diagnostic #     46  VVELMASS exists 
 Computing Diagnostic #     46  VVELMASS     Counter:       1   Parms: VVr     MR      
           Vector  Mate for  VVELMASS     Diagnostic #     45  UVELMASS exists 
 cg2d: Sum(rhs),rhsMax =  -8.09335445972392E+01  3.61436506080503E+01
(PID.TID 0000.0001)      cg2d_init_res =   1.90698139071617E-01
(PID.TID 0000.0001)      cg2d_iters(min,last) =      -1      10
(PID.TID 0000.0001)      cg2d_last_res =   3.71055056799233E-08
(PID.TID 0000.0001) // =======================================================
(PID.TID 0000.0001) // Begin MONITOR dynamic field statistics
(PID.TID 0000.0001) // =======================================================
(PID.TID 0000.0001) %MON time_tsnumber                =                 72088
(PID.TID 0000.0001) %MON time_secondsf                =   6.4879200000000E+07
(PID.TID 0000.0001) %MON dynstat_eta_max              =   9.7954967447103E-01
(PID.TID 0000.0001) %MON dynstat_eta_min              =  -1.5572272931468E+00
(PID.TID 0000.0001) %MON dynstat_eta_mean             =   3.3990828472312E-02
(PID.TID 0000.0001) %MON dynstat_eta_sd               =   6.1093815969789E-01
(PID.TID 0000.0001) %MON dynstat_eta_del2             =   1.2704494599537E-03
(PID.TID 0000.0001) %MON dynstat_uvel_max             =   3.9954673633528E-01
(PID.TID 0000.0001) %MON dynstat_uvel_min             =  -7.0239892359125E-01
(PID.TID 0000.0001) %MON dynstat_uvel_mean            =  -4.9019158460922E-04
(PID.TID 0000.0001) %MON dynstat_uvel_sd              =   1.2877943227436E-02
(PID.TID 0000.0001) %MON dynstat_uvel_del2            =   8.4917522701144E-05
(PID.TID 0000.0001) %MON dynstat_vvel_max             =   3.2652938639210E-01
(PID.TID 0000.0001) %MON dynstat_vvel_min             =  -3.7969509382493E-01
(PID.TID 0000.0001) %MON dynstat_vvel_mean            =   1.4860726282613E-04
(PID.TID 0000.0001) %MON dynstat_vvel_sd              =   1.3701783773952E-02
(PID.TID 0000.0001) %MON dynstat_vvel_del2            =   8.6890313082885E-05
(PID.TID 0000.0001) %MON dynstat_wvel_max             =   1.0306034957969E-04
(PID.TID 0000.0001) %MON dynstat_wvel_min             =  -1.8174966037121E-04
(PID.TID 0000.0001) %MON dynstat_wvel_mean            =  -4.5410661406078E-08
(PID.TID 0000.0001) %MON dynstat_wvel_sd              =   7.5362428400291E-06
(PID.TID 0000.0001) %MON dynstat_wvel_del2            =   6.4871387727306E-08
(PID.TID 0000.0001) %MON dynstat_theta_max            =   3.0929947824109E+01
(PID.TID 0000.0001) %MON dynstat_theta_min            =  -3.0170459751100E+00
(PID.TID 0000.0001) %MON dynstat_theta_mean           =   3.9093003524948E+00
(PID.TID 0000.0001) %MON dynstat_theta_sd             =   4.5719278628249E+00
(PID.TID 0000.0001) %MON dynstat_theta_del2           =   2.6409752046177E-03
(PID.TID 0000.0001) %MON dynstat_salt_max             =   4.1346661987803E+01
(PID.TID 0000.0001) %MON dynstat_salt_min             =   1.8519260113288E+01
(PID.TID 0000.0001) %MON dynstat_salt_mean            =   3.4771899371305E+01
(PID.TID 0000.0001) %MON dynstat_salt_sd              =   5.3228924072563E-01
(PID.TID 0000.0001) %MON dynstat_salt_del2            =   1.1412099881634E-03
(PID.TID 0000.0001) %MON dynstat_sst_max              =   3.0929947824109E+01
(PID.TID 0000.0001) %MON dynstat_sst_min              =  -1.8978653586697E+00
(PID.TID 0000.0001) %MON dynstat_sst_mean             =   1.8115258104441E+01
(PID.TID 0000.0001) %MON dynstat_sst_sd               =   9.8135888663373E+00
(PID.TID 0000.0001) %MON dynstat_sst_del2             =   1.5044625957786E-02
(PID.TID 0000.0001) %MON dynstat_sss_max              =   4.1346661987803E+01
(PID.TID 0000.0001) %MON dynstat_sss_min              =   1.8752428929608E+01
(PID.TID 0000.0001) %MON dynstat_sss_mean             =   3.4620366079105E+01
(PID.TID 0000.0001) %MON dynstat_sss_sd               =   1.4910976559228E+00
(PID.TID 0000.0001) %MON dynstat_sss_del2             =   1.2964063821662E-02
(PID.TID 0000.0001) %MON forcing_qnet_max             =   1.4142379150391E+03
(PID.TID 0000.0001) %MON forcing_qnet_min             =  -8.3028306446400E+02
(PID.TID 0000.0001) %MON forcing_qnet_mean            =  -4.5369185731665E+01
(PID.TID 0000.0001) %MON forcing_qnet_sd              =   2.1673523545196E+02
(PID.TID 0000.0001) %MON forcing_qnet_del2            =   2.9850144160464E+00
(PID.TID 0000.0001) %MON forcing_qsw_max              =   0.0000000000000E+00
(PID.TID 0000.0001) %MON forcing_qsw_min              =  -4.2044769980749E+02
(PID.TID 0000.0001) %MON forcing_qsw_mean             =  -7.9045061012882E+01
(PID.TID 0000.0001) %MON forcing_qsw_sd               =   1.1515709839477E+02
(PID.TID 0000.0001) %MON forcing_qsw_del2             =   9.6657542652324E-01
(PID.TID 0000.0001) %MON forcing_empmr_max            =   4.5049227774143E-03
(PID.TID 0000.0001) %MON forcing_empmr_min            =  -6.4774118363857E-02
(PID.TID 0000.0001) %MON forcing_empmr_mean           =  -1.9043568471306E-04
(PID.TID 0000.0001) %MON forcing_empmr_sd             =   2.8552396297030E-03
(PID.TID 0000.0001) %MON forcing_empmr_del2           =   1.1214737348573E-04
(PID.TID 0000.0001) %MON forcing_fu_max               =   2.5310651582102E-01
(PID.TID 0000.0001) %MON forcing_fu_min               =  -3.3653407353047E-01
(PID.TID 0000.0001) %MON forcing_fu_mean              =  -3.5853060601515E-03
(PID.TID 0000.0001) %MON forcing_fu_sd                =   5.4775574806657E-02
(PID.TID 0000.0001) %MON forcing_fu_del2              =   5.5480537450111E-04
(PID.TID 0000.0001) %MON forcing_fv_max               =   2.5450511526697E-01
(PID.TID 0000.0001) %MON forcing_fv_min               =  -2.5235564490026E-01
(PID.TID 0000.0001) %MON forcing_fv_mean              =  -1.5454335999208E-02
(PID.TID 0000.0001) %MON forcing_fv_sd                =   5.8270165030861E-02
(PID.TID 0000.0001) %MON forcing_fv_del2              =   4.9918589246870E-04
(PID.TID 0000.0001) %MON trAdv_CFL_u_max              =   2.0390640558607E-03
(PID.TID 0000.0001) %MON trAdv_CFL_v_max              =   1.2692930413156E-03
(PID.TID 0000.0001) %MON trAdv_CFL_w_max              =   1.2782185474444E-03
(PID.TID 0000.0001) %MON advcfl_uvel_max              =   2.0263085387226E-03
(PID.TID 0000.0001) %MON advcfl_vvel_max              =   1.2390835926230E-03
(PID.TID 0000.0001) %MON advcfl_wvel_max              =   2.2530128126559E-03
(PID.TID 0000.0001) %MON advcfl_W_hf_max              =   1.2782185474444E-03
(PID.TID 0000.0001) %MON pe_b_mean                    =   4.9876648649594E-04
(PID.TID 0000.0001) %MON ke_max                       =   1.9052422547919E-01
(PID.TID 0000.0001) %MON ke_mean                      =   1.6340992463018E-04
(PID.TID 0000.0001) %MON ke_vol                       =   1.3398147539162E+18
(PID.TID 0000.0001) %MON vort_r_min                   =  -2.3821301158824E-06
(PID.TID 0000.0001) %MON vort_r_max                   =   2.7012568632151E-06
(PID.TID 0000.0001) %MON vort_a_mean                  =  -2.0549865324846E-05
(PID.TID 0000.0001) %MON vort_a_sd                    =   7.5259658348522E-05
(PID.TID 0000.0001) %MON vort_p_mean                  =  -2.4783236593835E-05
(PID.TID 0000.0001) %MON vort_p_sd                    =   1.2811932189550E-04
(PID.TID 0000.0001) %MON surfExpan_theta_mean         =  -4.4665840824338E-06
(PID.TID 0000.0001) %MON surfExpan_salt_mean          =   9.4775076171219E-07
(PID.TID 0000.0001) // =======================================================
(PID.TID 0000.0001) // End MONITOR dynamic field statistics
(PID.TID 0000.0001) // =======================================================
 cg2d: Sum(rhs),rhsMax =  -8.13137550933096E+01  3.61485580099310E+01
(PID.TID 0000.0001)      cg2d_init_res =   1.87851085941204E-01
(PID.TID 0000.0001)      cg2d_iters(min,last) =      -1      10
(PID.TID 0000.0001)      cg2d_last_res =   3.64884197419159E-08
(PID.TID 0000.0001) // =======================================================
(PID.TID 0000.0001) // Begin MONITOR dynamic field statistics
(PID.TID 0000.0001) // =======================================================
(PID.TID 0000.0001) %MON time_tsnumber                =                 72089
(PID.TID 0000.0001) %MON time_secondsf                =   6.4880100000000E+07
(PID.TID 0000.0001) %MON dynstat_eta_max              =   9.7715848709009E-01
(PID.TID 0000.0001) %MON dynstat_eta_min              =  -1.5578405521596E+00
(PID.TID 0000.0001) %MON dynstat_eta_mean             =   3.4155147743676E-02
(PID.TID 0000.0001) %MON dynstat_eta_sd               =   6.1082688324954E-01
(PID.TID 0000.0001) %MON dynstat_eta_del2             =   1.2646382815791E-03
(PID.TID 0000.0001) %MON dynstat_uvel_max             =   3.8751183978316E-01
(PID.TID 0000.0001) %MON dynstat_uvel_min             =  -6.9534826209407E-01
(PID.TID 0000.0001) %MON dynstat_uvel_mean            =  -4.9918672910826E-04
(PID.TID 0000.0001) %MON dynstat_uvel_sd              =   1.2868402262023E-02
(PID.TID 0000.0001) %MON dynstat_uvel_del2            =   8.5007630821480E-05
(PID.TID 0000.0001) %MON dynstat_vvel_max             =   3.1848415631392E-01
(PID.TID 0000.0001) %MON dynstat_vvel_min             =  -3.5149498173917E-01
(PID.TID 0000.0001) %MON dynstat_vvel_mean            =   1.4169715761726E-04
(PID.TID 0000.0001) %MON dynstat_vvel_sd              =   1.3697864933280E-02
(PID.TID 0000.0001) %MON dynstat_vvel_del2            =   8.6352534849038E-05
(PID.TID 0000.0001) %MON dynstat_wvel_max             =   1.0323596171063E-04
(PID.TID 0000.0001) %MON dynstat_wvel_min             =  -1.8182354268231E-04
(PID.TID 0000.0001) %MON dynstat_wvel_mean            =  -4.3959564585185E-08
(PID.TID 0000.0001) %MON dynstat_wvel_sd              =   7.5347193534410E-06
(PID.TID 0000.0001) %MON dynstat_wvel_del2            =   6.4578586258786E-08
(PID.TID 0000.0001) %MON dynstat_theta_max            =   3.0929581502479E+01
(PID.TID 0000.0001) %MON dynstat_theta_min            =  -3.0176609530048E+00
(PID.TID 0000.0001) %MON dynstat_theta_mean           =   3.9093041773147E+00
(PID.TID 0000.0001) %MON dynstat_theta_sd             =   4.5719431825323E+00
(PID.TID 0000.0001) %MON dynstat_theta_del2           =   2.6408616583908E-03
(PID.TID 0000.0001) %MON dynstat_salt_max             =   4.1346665148077E+01
(PID.TID 0000.0001) %MON dynstat_salt_min             =   1.8519270113974E+01
(PID.TID 0000.0001) %MON dynstat_salt_mean            =   3.4771897966316E+01
(PID.TID 0000.0001) %MON dynstat_salt_sd              =   5.3229874358071E-01
(PID.TID 0000.0001) %MON dynstat_salt_del2            =   1.1431784032816E-03
(PID.TID 0000.0001) %MON dynstat_sst_max              =   3.0929581502479E+01
(PID.TID 0000.0001) %MON dynstat_sst_min              =  -1.8977130486970E+00
(PID.TID 0000.0001) %MON dynstat_sst_mean             =   1.8115445518812E+01
(PID.TID 0000.0001) %MON dynstat_sst_sd               =   9.8137726056620E+00
(PID.TID 0000.0001) %MON dynstat_sst_del2             =   1.5042693578777E-02
(PID.TID 0000.0001) %MON dynstat_sss_max              =   4.1346665148077E+01
(PID.TID 0000.0001) %MON dynstat_sss_min              =   1.8752440536926E+01
(PID.TID 0000.0001) %MON dynstat_sss_mean             =   3.4620258066832E+01
(PID.TID 0000.0001) %MON dynstat_sss_sd               =   1.4913345820991E+00
(PID.TID 0000.0001) %MON dynstat_sss_del2             =   1.2991482220457E-02
(PID.TID 0000.0001) %MON forcing_qnet_max             =   1.8732325439453E+03
(PID.TID 0000.0001) %MON forcing_qnet_min             =  -8.1932950538164E+02
(PID.TID 0000.0001) %MON forcing_qnet_mean            =  -4.7324904238997E+01
(PID.TID 0000.0001) %MON forcing_qnet_sd              =   2.2086537497798E+02
(PID.TID 0000.0001) %MON forcing_qnet_del2            =   3.2732116239478E+00
(PID.TID 0000.0001) %MON forcing_qsw_max              =   0.0000000000000E+00
(PID.TID 0000.0001) %MON forcing_qsw_min              =  -4.2582582834620E+02
(PID.TID 0000.0001) %MON forcing_qsw_mean             =  -8.0303055953565E+01
(PID.TID 0000.0001) %MON forcing_qsw_sd               =   1.1711515930100E+02
(PID.TID 0000.0001) %MON forcing_qsw_del2             =   9.7235165172228E-01
(PID.TID 0000.0001) %MON forcing_empmr_max            =   4.4585750438273E-03
(PID.TID 0000.0001) %MON forcing_empmr_min            =  -6.4107887446880E-02
(PID.TID 0000.0001) %MON forcing_empmr_mean           =  -1.8896716206856E-04
(PID.TID 0000.0001) %MON forcing_empmr_sd             =   2.8262667739940E-03
(PID.TID 0000.0001) %MON forcing_empmr_del2           =   1.1097915968746E-04
(PID.TID 0000.0001) %MON forcing_fu_max               =   2.5072090265488E-01
(PID.TID 0000.0001) %MON forcing_fu_min               =  -3.3597964404534E-01
(PID.TID 0000.0001) %MON forcing_fu_mean              =  -3.6898664661201E-03
(PID.TID 0000.0001) %MON forcing_fu_sd                =   5.4535407077802E-02
(PID.TID 0000.0001) %MON forcing_fu_del2              =   5.5313332017344E-04
(PID.TID 0000.0001) %MON forcing_fv_max               =   2.5161737424566E-01
(PID.TID 0000.0001) %MON forcing_fv_min               =  -2.5256677975366E-01
(PID.TID 0000.0001) %MON forcing_fv_mean              =  -1.5448651718745E-02
(PID.TID 0000.0001) %MON forcing_fv_sd                =   5.8107482578193E-02
(PID.TID 0000.0001) %MON forcing_fv_del2              =   4.9704564828294E-04
(PID.TID 0000.0001) %MON trAdv_CFL_u_max              =   2.0201270305124E-03
(PID.TID 0000.0001) %MON trAdv_CFL_v_max              =   1.1776617035581E-03
(PID.TID 0000.0001) %MON trAdv_CFL_w_max              =   1.2873633109293E-03
(PID.TID 0000.0001) %MON advcfl_uvel_max              =   2.0059685081281E-03
(PID.TID 0000.0001) %MON advcfl_vvel_max              =   1.1649032200496E-03
(PID.TID 0000.0001) %MON advcfl_wvel_max              =   2.2298395633698E-03
(PID.TID 0000.0001) %MON advcfl_W_hf_max              =   1.2873633109293E-03
(PID.TID 0000.0001) %MON pe_b_mean                    =   4.9860026758167E-04
(PID.TID 0000.0001) %MON ke_max                       =   1.9241334720277E-01
(PID.TID 0000.0001) %MON ke_mean                      =   1.6325043213716E-04
(PID.TID 0000.0001) %MON ke_vol                       =   1.3398148141744E+18
(PID.TID 0000.0001) %MON vort_r_min                   =  -2.4200021828901E-06
(PID.TID 0000.0001) %MON vort_r_max                   =   2.6667627527209E-06
(PID.TID 0000.0001) %MON vort_a_mean                  =  -2.0549865324846E-05
(PID.TID 0000.0001) %MON vort_a_sd                    =   7.5259656598971E-05
(PID.TID 0000.0001) %MON vort_p_mean                  =  -2.4783235502078E-05
(PID.TID 0000.0001) %MON vort_p_sd                    =   1.2811932566930E-04
(PID.TID 0000.0001) %MON surfExpan_theta_mean         =  -4.3604962822405E-06
(PID.TID 0000.0001) %MON surfExpan_salt_mean          =   9.2345599239340E-07
(PID.TID 0000.0001) // =======================================================
(PID.TID 0000.0001) // End MONITOR dynamic field statistics
(PID.TID 0000.0001) // =======================================================
 cg2d: Sum(rhs),rhsMax =  -8.16812645116099E+01  3.61571559524693E+01
(PID.TID 0000.0001)      cg2d_init_res =   1.84402712032283E-01
(PID.TID 0000.0001)      cg2d_iters(min,last) =      -1      10
(PID.TID 0000.0001)      cg2d_last_res =   3.61936608207122E-08
(PID.TID 0000.0001) // =======================================================
(PID.TID 0000.0001) // Begin MONITOR dynamic field statistics
(PID.TID 0000.0001) // =======================================================
(PID.TID 0000.0001) %MON time_tsnumber                =                 72090
(PID.TID 0000.0001) %MON time_secondsf                =   6.4881000000000E+07
(PID.TID 0000.0001) %MON dynstat_eta_max              =   9.7433909327059E-01
(PID.TID 0000.0001) %MON dynstat_eta_min              =  -1.5585895285311E+00
(PID.TID 0000.0001) %MON dynstat_eta_mean             =   3.4317677459513E-02
(PID.TID 0000.0001) %MON dynstat_eta_sd               =   6.1070335531813E-01
(PID.TID 0000.0001) %MON dynstat_eta_del2             =   1.2651799264428E-03
(PID.TID 0000.0001) %MON dynstat_uvel_max             =   3.7380971598092E-01
(PID.TID 0000.0001) %MON dynstat_uvel_min             =  -6.8603251650890E-01
(PID.TID 0000.0001) %MON dynstat_uvel_mean            =  -5.0737490588275E-04
(PID.TID 0000.0001) %MON dynstat_uvel_sd              =   1.2859548235210E-02
(PID.TID 0000.0001) %MON dynstat_uvel_del2            =   8.5063104147753E-05
(PID.TID 0000.0001) %MON dynstat_vvel_max             =   3.0686792381118E-01
(PID.TID 0000.0001) %MON dynstat_vvel_min             =  -3.4249523788887E-01
(PID.TID 0000.0001) %MON dynstat_vvel_mean            =   1.3697689030328E-04
(PID.TID 0000.0001) %MON dynstat_vvel_sd              =   1.3692975521885E-02
(PID.TID 0000.0001) %MON dynstat_vvel_del2            =   8.5794561562399E-05
(PID.TID 0000.0001) %MON dynstat_wvel_max             =   1.0341770681763E-04
(PID.TID 0000.0001) %MON dynstat_wvel_min             =  -1.8190348168993E-04
(PID.TID 0000.0001) %MON dynstat_wvel_mean            =  -4.2467954341473E-08
(PID.TID 0000.0001) %MON dynstat_wvel_sd              =   7.5359804562885E-06
(PID.TID 0000.0001) %MON dynstat_wvel_del2            =   6.4301836952590E-08
(PID.TID 0000.0001) %MON dynstat_theta_max            =   3.0929207403803E+01
(PID.TID 0000.0001) %MON dynstat_theta_min            =  -3.0182889167168E+00
(PID.TID 0000.0001) %MON dynstat_theta_mean           =   3.9093080826631E+00
(PID.TID 0000.0001) %MON dynstat_theta_sd             =   4.5719589236745E+00
(PID.TID 0000.0001) %MON dynstat_theta_del2           =   2.6407462844634E-03
(PID.TID 0000.0001) %MON dynstat_salt_max             =   4.1346678995501E+01
(PID.TID 0000.0001) %MON dynstat_salt_min             =   1.8519280124794E+01
(PID.TID 0000.0001) %MON dynstat_salt_mean            =   3.4771896586578E+01
(PID.TID 0000.0001) %MON dynstat_salt_sd              =   5.3230810987770E-01
(PID.TID 0000.0001) %MON dynstat_salt_del2            =   1.1451022848914E-03
(PID.TID 0000.0001) %MON dynstat_sst_max              =   3.0929207403803E+01
(PID.TID 0000.0001) %MON dynstat_sst_min              =  -1.8975639060458E+00
(PID.TID 0000.0001) %MON dynstat_sst_mean             =   1.8115641091282E+01
(PID.TID 0000.0001) %MON dynstat_sst_sd               =   9.8139605231168E+00
(PID.TID 0000.0001) %MON dynstat_sst_del2             =   1.5040701051992E-02
(PID.TID 0000.0001) %MON dynstat_sss_max              =   4.1346678995501E+01
(PID.TID 0000.0001) %MON dynstat_sss_min              =   1.8752452123685E+01
(PID.TID 0000.0001) %MON dynstat_sss_mean             =   3.4620152220845E+01
(PID.TID 0000.0001) %MON dynstat_sss_sd               =   1.4915675322861E+00
(PID.TID 0000.0001) %MON dynstat_sss_del2             =   1.3018271232817E-02
(PID.TID 0000.0001) %MON forcing_qnet_max             =   2.2375571289062E+03
(PID.TID 0000.0001) %MON forcing_qnet_min             =  -8.0891994637023E+02
(PID.TID 0000.0001) %MON forcing_qnet_mean            =  -4.8930920697488E+01
(PID.TID 0000.0001) %MON forcing_qnet_sd              =   2.2306814794957E+02
(PID.TID 0000.0001) %MON forcing_qnet_del2            =   3.3306861232126E+00
(PID.TID 0000.0001) %MON forcing_qsw_max              =   0.0000000000000E+00
(PID.TID 0000.0001) %MON forcing_qsw_min              =  -4.2748077687854E+02
(PID.TID 0000.0001) %MON forcing_qsw_mean             =  -8.1214997343368E+01
(PID.TID 0000.0001) %MON forcing_qsw_sd               =   1.1806159513676E+02
(PID.TID 0000.0001) %MON forcing_qsw_del2             =   9.7589154656668E-01
(PID.TID 0000.0001) %MON forcing_empmr_max            =   4.4126203283668E-03
(PID.TID 0000.0001) %MON forcing_empmr_min            =  -6.3448362052441E-02
(PID.TID 0000.0001) %MON forcing_empmr_mean           =  -1.8690917321250E-04
(PID.TID 0000.0001) %MON forcing_empmr_sd             =   2.7977532688024E-03
(PID.TID 0000.0001) %MON forcing_empmr_del2           =   1.0982346658625E-04
(PID.TID 0000.0001) %MON forcing_fu_max               =   2.4800879506381E-01
(PID.TID 0000.0001) %MON forcing_fu_min               =  -3.3578392598518E-01
(PID.TID 0000.0001) %MON forcing_fu_mean              =  -3.8074289841947E-03
(PID.TID 0000.0001) %MON forcing_fu_sd                =   5.4283938309794E-02
(PID.TID 0000.0001) %MON forcing_fu_del2              =   5.5062147709379E-04
(PID.TID 0000.0001) %MON forcing_fv_max               =   2.5224082332656E-01
(PID.TID 0000.0001) %MON forcing_fv_min               =  -2.5259559938053E-01
(PID.TID 0000.0001) %MON forcing_fv_mean              =  -1.5451491809410E-02
(PID.TID 0000.0001) %MON forcing_fv_sd                =   5.7992956778449E-02
(PID.TID 0000.0001) %MON forcing_fv_del2              =   4.9590747555672E-04
(PID.TID 0000.0001) %MON trAdv_CFL_u_max              =   1.9945980776222E-03
(PID.TID 0000.0001) %MON trAdv_CFL_v_max              =   1.1539830045606E-03
(PID.TID 0000.0001) %MON trAdv_CFL_w_max              =   1.2902628754989E-03
(PID.TID 0000.0001) %MON advcfl_uvel_max              =   1.9790940722629E-03
(PID.TID 0000.0001) %MON advcfl_vvel_max              =   1.1567163308196E-03
(PID.TID 0000.0001) %MON advcfl_wvel_max              =   2.2068995496501E-03
(PID.TID 0000.0001) %MON advcfl_W_hf_max              =   1.2902628754989E-03
(PID.TID 0000.0001) %MON pe_b_mean                    =   4.9841405526868E-04
(PID.TID 0000.0001) %MON ke_max                       =   1.9321737629879E-01
(PID.TID 0000.0001) %MON ke_mean                      =   1.6308683710329E-04
(PID.TID 0000.0001) %MON ke_vol                       =   1.3398148739680E+18
(PID.TID 0000.0001) %MON vort_r_min                   =  -2.4630038197480E-06
(PID.TID 0000.0001) %MON vort_r_max                   =   2.6233589380791E-06
(PID.TID 0000.0001) %MON vort_a_mean                  =  -2.0549865324846E-05
(PID.TID 0000.0001) %MON vort_a_sd                    =   7.5259655289326E-05
(PID.TID 0000.0001) %MON vort_p_mean                  =  -2.4783234426499E-05
(PID.TID 0000.0001) %MON vort_p_sd                    =   1.2811932894141E-04
(PID.TID 0000.0001) %MON surfExpan_theta_mean         =  -4.2391276022685E-06
(PID.TID 0000.0001) %MON surfExpan_salt_mean          =   8.9950343583260E-07
(PID.TID 0000.0001) // =======================================================
(PID.TID 0000.0001) // End MONITOR dynamic field statistics
(PID.TID 0000.0001) // =======================================================
 cg2d: Sum(rhs),rhsMax =  -8.20367204963059E+01  3.61696595534570E+01
(PID.TID 0000.0001)      cg2d_init_res =   1.80452962950920E-01
(PID.TID 0000.0001)      cg2d_iters(min,last) =      -1      10
(PID.TID 0000.0001)      cg2d_last_res =   3.49627423587178E-08
(PID.TID 0000.0001) // =======================================================
(PID.TID 0000.0001) // Begin MONITOR dynamic field statistics
(PID.TID 0000.0001) // =======================================================
(PID.TID 0000.0001) %MON time_tsnumber                =                 72091
(PID.TID 0000.0001) %MON time_secondsf                =   6.4881900000000E+07
(PID.TID 0000.0001) %MON dynstat_eta_max              =   9.7113358066371E-01
(PID.TID 0000.0001) %MON dynstat_eta_min              =  -1.5594804346411E+00
(PID.TID 0000.0001) %MON dynstat_eta_mean             =   3.4478938350282E-02
(PID.TID 0000.0001) %MON dynstat_eta_sd               =   6.1056457189183E-01
(PID.TID 0000.0001) %MON dynstat_eta_del2             =   1.2704334808264E-03
(PID.TID 0000.0001) %MON dynstat_uvel_max             =   3.5891878651149E-01
(PID.TID 0000.0001) %MON dynstat_uvel_min             =  -6.7448056702488E-01
(PID.TID 0000.0001) %MON dynstat_uvel_mean            =  -5.1479353239036E-04
(PID.TID 0000.0001) %MON dynstat_uvel_sd              =   1.2851394920180E-02
(PID.TID 0000.0001) %MON dynstat_uvel_del2            =   8.5081057283852E-05
(PID.TID 0000.0001) %MON dynstat_vvel_max             =   2.9197818242245E-01
(PID.TID 0000.0001) %MON dynstat_vvel_min             =  -3.4422682132784E-01
(PID.TID 0000.0001) %MON dynstat_vvel_mean            =   1.3445137434624E-04
(PID.TID 0000.0001) %MON dynstat_vvel_sd              =   1.3687509764371E-02
(PID.TID 0000.0001) %MON dynstat_vvel_del2            =   8.5266169233833E-05
(PID.TID 0000.0001) %MON dynstat_wvel_max             =   1.0360295923717E-04
(PID.TID 0000.0001) %MON dynstat_wvel_min             =  -1.8197165164439E-04
(PID.TID 0000.0001) %MON dynstat_wvel_mean            =  -4.1803365997542E-08
(PID.TID 0000.0001) %MON dynstat_wvel_sd              =   7.5394433494880E-06
(PID.TID 0000.0001) %MON dynstat_wvel_del2            =   6.4044982463968E-08
(PID.TID 0000.0001) %MON dynstat_theta_max            =   3.0928827810767E+01
(PID.TID 0000.0001) %MON dynstat_theta_min            =  -3.0189304252894E+00
(PID.TID 0000.0001) %MON dynstat_theta_mean           =   3.9093120336082E+00
(PID.TID 0000.0001) %MON dynstat_theta_sd             =   4.5719749165537E+00
(PID.TID 0000.0001) %MON dynstat_theta_del2           =   2.6406240748131E-03
(PID.TID 0000.0001) %MON dynstat_salt_max             =   4.1346704705923E+01
(PID.TID 0000.0001) %MON dynstat_salt_min             =   1.8519290145136E+01
(PID.TID 0000.0001) %MON dynstat_salt_mean            =   3.4771895216340E+01
(PID.TID 0000.0001) %MON dynstat_salt_sd              =   5.3231732942907E-01
(PID.TID 0000.0001) %MON dynstat_salt_del2            =   1.1469810033506E-03
(PID.TID 0000.0001) %MON dynstat_sst_max              =   3.0928827810767E+01
(PID.TID 0000.0001) %MON dynstat_sst_min              =  -1.8974198610790E+00
(PID.TID 0000.0001) %MON dynstat_sst_mean             =   1.8115840454192E+01
(PID.TID 0000.0001) %MON dynstat_sst_sd               =   9.8141504822842E+00
(PID.TID 0000.0001) %MON dynstat_sst_del2             =   1.5038629228440E-02
(PID.TID 0000.0001) %MON dynstat_sss_max              =   4.1346704705923E+01
(PID.TID 0000.0001) %MON dynstat_sss_min              =   1.8752463539873E+01
(PID.TID 0000.0001) %MON dynstat_sss_mean             =   3.4620046781664E+01
(PID.TID 0000.0001) %MON dynstat_sss_sd               =   1.4917962620712E+00
(PID.TID 0000.0001) %MON dynstat_sss_del2             =   1.3044443847285E-02
(PID.TID 0000.0001) %MON forcing_qnet_max             =   2.7427321777344E+03
(PID.TID 0000.0001) %MON forcing_qnet_min             =  -7.9862525747979E+02
(PID.TID 0000.0001) %MON forcing_qnet_mean            =  -4.9792699425484E+01
(PID.TID 0000.0001) %MON forcing_qnet_sd              =   2.2800913551147E+02
(PID.TID 0000.0001) %MON forcing_qnet_del2            =   4.0319892726736E+00
(PID.TID 0000.0001) %MON forcing_qsw_max              =   0.0000000000000E+00
(PID.TID 0000.0001) %MON forcing_qsw_min              =  -4.2741428056949E+02
(PID.TID 0000.0001) %MON forcing_qsw_mean             =  -8.1945328152498E+01
(PID.TID 0000.0001) %MON forcing_qsw_sd               =   1.1882558593831E+02
(PID.TID 0000.0001) %MON forcing_qsw_del2             =   9.7810838295429E-01
(PID.TID 0000.0001) %MON forcing_empmr_max            =   4.3671578168869E-03
(PID.TID 0000.0001) %MON forcing_empmr_min            =  -6.2794715166092E-02
(PID.TID 0000.0001) %MON forcing_empmr_mean           =  -1.8545002438417E-04
(PID.TID 0000.0001) %MON forcing_empmr_sd             =   2.7695116863291E-03
(PID.TID 0000.0001) %MON forcing_empmr_del2           =   1.0867431026748E-04
(PID.TID 0000.0001) %MON forcing_fu_max               =   2.4621249770138E-01
(PID.TID 0000.0001) %MON forcing_fu_min               =  -3.3597584418214E-01
(PID.TID 0000.0001) %MON forcing_fu_mean              =  -3.8959977132991E-03
(PID.TID 0000.0001) %MON forcing_fu_sd                =   5.4070653740456E-02
(PID.TID 0000.0001) %MON forcing_fu_del2              =   5.4896074855479E-04
(PID.TID 0000.0001) %MON forcing_fv_max               =   2.4662771172746E-01
(PID.TID 0000.0001) %MON forcing_fv_min               =  -2.5212124946771E-01
(PID.TID 0000.0001) %MON forcing_fv_mean              =  -1.5456214005240E-02
(PID.TID 0000.0001) %MON forcing_fv_sd                =   5.7867846894662E-02
(PID.TID 0000.0001) %MON forcing_fv_del2              =   4.9448832379205E-04
(PID.TID 0000.0001) %MON trAdv_CFL_u_max              =   1.9625344898243E-03
(PID.TID 0000.0001) %MON trAdv_CFL_v_max              =   1.1446509729290E-03
(PID.TID 0000.0001) %MON trAdv_CFL_w_max              =   1.2878018422455E-03
(PID.TID 0000.0001) %MON advcfl_uvel_max              =   1.9457685458531E-03
(PID.TID 0000.0001) %MON advcfl_vvel_max              =   1.1464629960747E-03
(PID.TID 0000.0001) %MON advcfl_wvel_max              =   2.1841640057771E-03
(PID.TID 0000.0001) %MON advcfl_W_hf_max              =   1.2878018422455E-03
(PID.TID 0000.0001) %MON pe_b_mean                    =   4.9820302043472E-04
(PID.TID 0000.0001) %MON ke_max                       =   1.9292025295520E-01
(PID.TID 0000.0001) %MON ke_mean                      =   1.6292427662315E-04
(PID.TID 0000.0001) %MON ke_vol                       =   1.3398149331104E+18
(PID.TID 0000.0001) %MON vort_r_min                   =  -2.5095521962405E-06
(PID.TID 0000.0001) %MON vort_r_max                   =   2.5714407604685E-06
(PID.TID 0000.0001) %MON vort_a_mean                  =  -2.0549865324846E-05
(PID.TID 0000.0001) %MON vort_a_sd                    =   7.5259654410629E-05
(PID.TID 0000.0001) %MON vort_p_mean                  =  -2.4783233370337E-05
(PID.TID 0000.0001) %MON vort_p_sd                    =   1.2811933152044E-04
(PID.TID 0000.0001) %MON surfExpan_theta_mean         =  -4.1350702816346E-06
(PID.TID 0000.0001) %MON surfExpan_salt_mean          =   8.7607678438689E-07
(PID.TID 0000.0001) // =======================================================
(PID.TID 0000.0001) // End MONITOR dynamic field statistics
(PID.TID 0000.0001) // =======================================================
 Computing Diagnostic #     81  oceTAUX      Counter:       1   Parms: UU      U1      
           Vector  Mate for  oceTAUX      Diagnostic #     82  oceTAUY  exists 
 Computing Diagnostic #     82  oceTAUY      Counter:       1   Parms: VV      U1      
           Vector  Mate for  oceTAUY      Diagnostic #     81  oceTAUX  exists 
 Computing Diagnostic #     85  oceFWflx     Counter:       1   Parms: SM      U1      
 Computing Diagnostic #     86  oceSflux     Counter:       1   Parms: SM      U1      
 Computing Diagnostic #     87  oceQnet      Counter:       1   Parms: SM      U1      
 Computing Diagnostic #     88  oceQsw       Counter:       1   Parms: SM      U1      
 Computing Diagnostic #     27  SALT         Counter:       1   Parms: SMR     MR      
 Computing Diagnostic #     26  THETA        Counter:       1   Parms: SMR     MR      
 Computing Diagnostic #     45  UVELMASS     Counter:       1   Parms: UUr     MR      
           Vector  Mate for  UVELMASS     Diagnostic #     46  VVELMASS exists 
 Computing Diagnostic #     46  VVELMASS     Counter:       1   Parms: VVr     MR      
           Vector  Mate for  VVELMASS     Diagnostic #     45  UVELMASS exists 
 cg2d: Sum(rhs),rhsMax =  -8.23815784250063E+01  3.61859530853642E+01
(PID.TID 0000.0001)      cg2d_init_res =   1.76179157966575E-01
(PID.TID 0000.0001)      cg2d_iters(min,last) =      -1      10
(PID.TID 0000.0001)      cg2d_last_res =   3.37521404158135E-08
(PID.TID 0000.0001) // =======================================================
(PID.TID 0000.0001) // Begin MONITOR dynamic field statistics
(PID.TID 0000.0001) // =======================================================
(PID.TID 0000.0001) %MON time_tsnumber                =                 72092
(PID.TID 0000.0001) %MON time_secondsf                =   6.4882800000000E+07
(PID.TID 0000.0001) %MON dynstat_eta_max              =   9.6756796145378E-01
(PID.TID 0000.0001) %MON dynstat_eta_min              =  -1.5605158653604E+00
(PID.TID 0000.0001) %MON dynstat_eta_mean             =   3.4639474729066E-02
(PID.TID 0000.0001) %MON dynstat_eta_sd               =   6.1040751950339E-01
(PID.TID 0000.0001) %MON dynstat_eta_del2             =   1.2786194800523E-03
(PID.TID 0000.0001) %MON dynstat_uvel_max             =   3.4333081017981E-01
(PID.TID 0000.0001) %MON dynstat_uvel_min             =  -6.6074164729893E-01
(PID.TID 0000.0001) %MON dynstat_uvel_mean            =  -5.2150644762614E-04
(PID.TID 0000.0001) %MON dynstat_uvel_sd              =   1.2843898791094E-02
(PID.TID 0000.0001) %MON dynstat_uvel_del2            =   8.5060505039277E-05
(PID.TID 0000.0001) %MON dynstat_vvel_max             =   3.1528838429038E-01
(PID.TID 0000.0001) %MON dynstat_vvel_min             =  -3.4593529726665E-01
(PID.TID 0000.0001) %MON dynstat_vvel_mean            =   1.3408228708763E-04
(PID.TID 0000.0001) %MON dynstat_vvel_sd              =   1.3681965543010E-02
(PID.TID 0000.0001) %MON dynstat_vvel_del2            =   8.4812219476461E-05
(PID.TID 0000.0001) %MON dynstat_wvel_max             =   1.0378954502155E-04
(PID.TID 0000.0001) %MON dynstat_wvel_min             =  -1.8203814753969E-04
(PID.TID 0000.0001) %MON dynstat_wvel_mean            =  -4.1706273405141E-08
(PID.TID 0000.0001) %MON dynstat_wvel_sd              =   7.5456589562184E-06
(PID.TID 0000.0001) %MON dynstat_wvel_del2            =   6.3811220477183E-08
(PID.TID 0000.0001) %MON dynstat_theta_max            =   3.0928441474026E+01
(PID.TID 0000.0001) %MON dynstat_theta_min            =  -3.0195861832274E+00
(PID.TID 0000.0001) %MON dynstat_theta_mean           =   3.9093160831668E+00
(PID.TID 0000.0001) %MON dynstat_theta_sd             =   4.5719914383193E+00
(PID.TID 0000.0001) %MON dynstat_theta_del2           =   2.6405059055634E-03
(PID.TID 0000.0001) %MON dynstat_salt_max             =   4.1346743678179E+01
(PID.TID 0000.0001) %MON dynstat_salt_min             =   1.8519300174304E+01
(PID.TID 0000.0001) %MON dynstat_salt_mean            =   3.4771893881732E+01
(PID.TID 0000.0001) %MON dynstat_salt_sd              =   5.3232642434968E-01
(PID.TID 0000.0001) %MON dynstat_salt_del2            =   1.1488172589591E-03
(PID.TID 0000.0001) %MON dynstat_sst_max              =   3.0928441474026E+01
(PID.TID 0000.0001) %MON dynstat_sst_min              =  -1.8972838419340E+00
(PID.TID 0000.0001) %MON dynstat_sst_mean             =   1.8116049676785E+01
(PID.TID 0000.0001) %MON dynstat_sst_sd               =   9.8143475538167E+00
(PID.TID 0000.0001) %MON dynstat_sst_del2             =   1.5036567851205E-02
(PID.TID 0000.0001) %MON dynstat_sss_max              =   4.1346743678179E+01
(PID.TID 0000.0001) %MON dynstat_sss_min              =   1.8752474904121E+01
(PID.TID 0000.0001) %MON dynstat_sss_mean             =   3.4619944707131E+01
(PID.TID 0000.0001) %MON dynstat_sss_sd               =   1.4920214235648E+00
(PID.TID 0000.0001) %MON dynstat_sss_del2             =   1.3070002740511E-02
(PID.TID 0000.0001) %MON forcing_qnet_max             =   1.3529364013672E+03
(PID.TID 0000.0001) %MON forcing_qnet_min             =  -7.8785026810461E+02
(PID.TID 0000.0001) %MON forcing_qnet_mean            =  -5.1497253552993E+01
(PID.TID 0000.0001) %MON forcing_qnet_sd              =   2.2603275950612E+02
(PID.TID 0000.0001) %MON forcing_qnet_del2            =   2.9241049062106E+00
(PID.TID 0000.0001) %MON forcing_qsw_max              =   0.0000000000000E+00
(PID.TID 0000.0001) %MON forcing_qsw_min              =  -4.2562651924802E+02
(PID.TID 0000.0001) %MON forcing_qsw_mean             =  -8.2494272501279E+01
(PID.TID 0000.0001) %MON forcing_qsw_sd               =   1.1939067516799E+02
(PID.TID 0000.0001) %MON forcing_qsw_del2             =   9.7898321892912E-01
(PID.TID 0000.0001) %MON forcing_empmr_max            =   4.3221870437264E-03
(PID.TID 0000.0001) %MON forcing_empmr_min            =  -6.2148615717888E-02
(PID.TID 0000.0001) %MON forcing_empmr_mean           =  -1.8461683560208E-04
(PID.TID 0000.0001) %MON forcing_empmr_sd             =   2.7416151142818E-03
(PID.TID 0000.0001) %MON forcing_empmr_del2           =   1.0753153806878E-04
(PID.TID 0000.0001) %MON forcing_fu_max               =   2.4099179553182E-01
(PID.TID 0000.0001) %MON forcing_fu_min               =  -3.3650939753149E-01
(PID.TID 0000.0001) %MON forcing_fu_mean              =  -3.9861519549337E-03
(PID.TID 0000.0001) %MON forcing_fu_sd                =   5.3857728916289E-02
(PID.TID 0000.0001) %MON forcing_fu_del2              =   5.4693054732222E-04
(PID.TID 0000.0001) %MON forcing_fv_max               =   2.4266040087132E-01
(PID.TID 0000.0001) %MON forcing_fv_min               =  -2.5126981995100E-01
(PID.TID 0000.0001) %MON forcing_fv_mean              =  -1.5474015667663E-02
(PID.TID 0000.0001) %MON forcing_fv_sd                =   5.7706910829632E-02
(PID.TID 0000.0001) %MON forcing_fv_del2              =   4.9347662179712E-04
(PID.TID 0000.0001) %MON trAdv_CFL_u_max              =   1.9240528438321E-03
(PID.TID 0000.0001) %MON trAdv_CFL_v_max              =   1.1566757383230E-03
(PID.TID 0000.0001) %MON trAdv_CFL_w_max              =   1.2809215474762E-03
(PID.TID 0000.0001) %MON advcfl_uvel_max              =   1.9061339601234E-03
(PID.TID 0000.0001) %MON advcfl_vvel_max              =   1.1341232436397E-03
(PID.TID 0000.0001) %MON advcfl_wvel_max              =   2.1616909814918E-03
(PID.TID 0000.0001) %MON advcfl_W_hf_max              =   1.2809215474762E-03
(PID.TID 0000.0001) %MON pe_b_mean                    =   4.9796232761250E-04
(PID.TID 0000.0001) %MON ke_max                       =   1.9152533518146E-01
(PID.TID 0000.0001) %MON ke_mean                      =   1.6276854535012E-04
(PID.TID 0000.0001) %MON ke_vol                       =   1.3398149917911E+18
(PID.TID 0000.0001) %MON vort_r_min                   =  -2.5547319993806E-06
(PID.TID 0000.0001) %MON vort_r_max                   =   2.5114702300313E-06
(PID.TID 0000.0001) %MON vort_a_mean                  =  -2.0549865324846E-05
(PID.TID 0000.0001) %MON vort_a_sd                    =   7.5259653941016E-05
(PID.TID 0000.0001) %MON vort_p_mean                  =  -2.4783232328349E-05
(PID.TID 0000.0001) %MON vort_p_sd                    =   1.2811933321662E-04
(PID.TID 0000.0001) %MON surfExpan_theta_mean         =  -4.0481904775949E-06
(PID.TID 0000.0001) %MON surfExpan_salt_mean          =   8.5221421172225E-07
(PID.TID 0000.0001) // =======================================================
(PID.TID 0000.0001) // End MONITOR dynamic field statistics
(PID.TID 0000.0001) // =======================================================
 cg2d: Sum(rhs),rhsMax =  -8.27131916905902E+01  3.62055583659709E+01
(PID.TID 0000.0001)      cg2d_init_res =   1.71680155559959E-01
(PID.TID 0000.0001)      cg2d_iters(min,last) =      -1      10
(PID.TID 0000.0001)      cg2d_last_res =   3.21365590429166E-08
(PID.TID 0000.0001) // =======================================================
(PID.TID 0000.0001) // Begin MONITOR dynamic field statistics
(PID.TID 0000.0001) // =======================================================
(PID.TID 0000.0001) %MON time_tsnumber                =                 72093
(PID.TID 0000.0001) %MON time_secondsf                =   6.4883700000000E+07
(PID.TID 0000.0001) %MON dynstat_eta_max              =   9.6367389012612E-01
(PID.TID 0000.0001) %MON dynstat_eta_min              =  -1.5616983179191E+00
(PID.TID 0000.0001) %MON dynstat_eta_mean             =   3.4797753096306E-02
(PID.TID 0000.0001) %MON dynstat_eta_sd               =   6.1022827224885E-01
(PID.TID 0000.0001) %MON dynstat_eta_del2             =   1.2880036246262E-03
(PID.TID 0000.0001) %MON dynstat_uvel_max             =   3.2753716109373E-01
(PID.TID 0000.0001) %MON dynstat_uvel_min             =  -6.4488488266104E-01
(PID.TID 0000.0001) %MON dynstat_uvel_mean            =  -5.2757458425471E-04
(PID.TID 0000.0001) %MON dynstat_uvel_sd              =   1.2837116645309E-02
(PID.TID 0000.0001) %MON dynstat_uvel_del2            =   8.5003369956506E-05
(PID.TID 0000.0001) %MON dynstat_vvel_max             =   3.4180913646130E-01
(PID.TID 0000.0001) %MON dynstat_vvel_min             =  -3.4762353460195E-01
(PID.TID 0000.0001) %MON dynstat_vvel_mean            =   1.3579412512447E-04
(PID.TID 0000.0001) %MON dynstat_vvel_sd              =   1.3676690299117E-02
(PID.TID 0000.0001) %MON dynstat_vvel_del2            =   8.4467136925010E-05
(PID.TID 0000.0001) %MON dynstat_wvel_max             =   1.0397564772568E-04
(PID.TID 0000.0001) %MON dynstat_wvel_min             =  -1.8209758453953E-04
(PID.TID 0000.0001) %MON dynstat_wvel_mean            =  -4.1155155827734E-08
(PID.TID 0000.0001) %MON dynstat_wvel_sd              =   7.5535877668948E-06
(PID.TID 0000.0001) %MON dynstat_wvel_del2            =   6.3598785177533E-08
(PID.TID 0000.0001) %MON dynstat_theta_max            =   3.0928048320652E+01
(PID.TID 0000.0001) %MON dynstat_theta_min            =  -3.0202566362884E+00
(PID.TID 0000.0001) %MON dynstat_theta_mean           =   3.9093203575626E+00
(PID.TID 0000.0001) %MON dynstat_theta_sd             =   4.5720091158222E+00
(PID.TID 0000.0001) %MON dynstat_theta_del2           =   2.6403836766593E-03
(PID.TID 0000.0001) %MON dynstat_salt_max             =   4.1346797264186E+01
(PID.TID 0000.0001) %MON dynstat_salt_min             =   1.8519310211591E+01
(PID.TID 0000.0001) %MON dynstat_salt_mean            =   3.4771892573457E+01
(PID.TID 0000.0001) %MON dynstat_salt_sd              =   5.3233538761112E-01
(PID.TID 0000.0001) %MON dynstat_salt_del2            =   1.1506112157003E-03
(PID.TID 0000.0001) %MON dynstat_sst_max              =   3.0928048320652E+01
(PID.TID 0000.0001) %MON dynstat_sst_min              =  -1.8971563482330E+00
(PID.TID 0000.0001) %MON dynstat_sst_mean             =   1.8116277965717E+01
(PID.TID 0000.0001) %MON dynstat_sst_sd               =   9.8145588160011E+00
(PID.TID 0000.0001) %MON dynstat_sst_del2             =   1.5034383793853E-02
(PID.TID 0000.0001) %MON dynstat_sss_max              =   4.1346797264186E+01
(PID.TID 0000.0001) %MON dynstat_sss_min              =   1.8752486097961E+01
(PID.TID 0000.0001) %MON dynstat_sss_mean             =   3.4619844989333E+01
(PID.TID 0000.0001) %MON dynstat_sss_sd               =   1.4922429092146E+00
(PID.TID 0000.0001) %MON dynstat_sss_del2             =   1.3094964465848E-02
(PID.TID 0000.0001) %MON forcing_qnet_max             =   1.3380622558594E+03
(PID.TID 0000.0001) %MON forcing_qnet_min             =  -7.7705008126077E+02
(PID.TID 0000.0001) %MON forcing_qnet_mean            =  -5.5572038972318E+01
(PID.TID 0000.0001) %MON forcing_qnet_sd              =   2.3099019968634E+02
(PID.TID 0000.0001) %MON forcing_qnet_del2            =   3.0472418346219E+00
(PID.TID 0000.0001) %MON forcing_qsw_max              =   0.0000000000000E+00
(PID.TID 0000.0001) %MON forcing_qsw_min              =  -4.1700367045873E+02
(PID.TID 0000.0001) %MON forcing_qsw_mean             =  -8.4559826092510E+01
(PID.TID 0000.0001) %MON forcing_qsw_sd               =   1.2091962297933E+02
(PID.TID 0000.0001) %MON forcing_qsw_del2             =   9.6862869727195E-01
(PID.TID 0000.0001) %MON forcing_empmr_max            =   4.2776102200150E-03
(PID.TID 0000.0001) %MON forcing_empmr_min            =  -6.1509236693382E-02
(PID.TID 0000.0001) %MON forcing_empmr_mean           =  -1.8202012232583E-04
(PID.TID 0000.0001) %MON forcing_empmr_sd             =   2.7141116729602E-03
(PID.TID 0000.0001) %MON forcing_empmr_del2           =   1.0640223556817E-04
(PID.TID 0000.0001) %MON forcing_fu_max               =   2.4393161161953E-01
(PID.TID 0000.0001) %MON forcing_fu_min               =  -3.3707490317447E-01
(PID.TID 0000.0001) %MON forcing_fu_mean              =  -4.0763070665290E-03
(PID.TID 0000.0001) %MON forcing_fu_sd                =   5.3740542990745E-02
(PID.TID 0000.0001) %MON forcing_fu_del2              =   5.4612395600226E-04
(PID.TID 0000.0001) %MON forcing_fv_max               =   2.3835954372430E-01
(PID.TID 0000.0001) %MON forcing_fv_min               =  -2.4995060628601E-01
(PID.TID 0000.0001) %MON forcing_fv_mean              =  -1.5501470566475E-02
(PID.TID 0000.0001) %MON forcing_fv_sd                =   5.7482398092483E-02
(PID.TID 0000.0001) %MON forcing_fv_del2              =   4.9173046047622E-04
(PID.TID 0000.0001) %MON trAdv_CFL_u_max              =   1.8793284445176E-03
(PID.TID 0000.0001) %MON trAdv_CFL_v_max              =   1.2535934112463E-03
(PID.TID 0000.0001) %MON trAdv_CFL_w_max              =   1.2705977804432E-03
(PID.TID 0000.0001) %MON advcfl_uvel_max              =   1.8603897305936E-03
(PID.TID 0000.0001) %MON advcfl_vvel_max              =   1.2103270949615E-03
(PID.TID 0000.0001) %MON advcfl_wvel_max              =   2.1394517110742E-03
(PID.TID 0000.0001) %MON advcfl_W_hf_max              =   1.2705977804432E-03
(PID.TID 0000.0001) %MON pe_b_mean                    =   4.9768547357282E-04
(PID.TID 0000.0001) %MON ke_max                       =   1.8905499862643E-01
(PID.TID 0000.0001) %MON ke_mean                      =   1.6262471501720E-04
(PID.TID 0000.0001) %MON ke_vol                       =   1.3398150502082E+18
(PID.TID 0000.0001) %MON vort_r_min                   =  -2.5982840733263E-06
(PID.TID 0000.0001) %MON vort_r_max                   =   2.4439697976188E-06
(PID.TID 0000.0001) %MON vort_a_mean                  =  -2.0549865324846E-05
(PID.TID 0000.0001) %MON vort_a_sd                    =   7.5259653851967E-05
(PID.TID 0000.0001) %MON vort_p_mean                  =  -2.4783231295148E-05
(PID.TID 0000.0001) %MON vort_p_sd                    =   1.2811933387952E-04
(PID.TID 0000.0001) %MON surfExpan_theta_mean         =  -3.9339476171577E-06
(PID.TID 0000.0001) %MON surfExpan_salt_mean          =   8.3024095514002E-07
(PID.TID 0000.0001) // =======================================================
(PID.TID 0000.0001) // End MONITOR dynamic field statistics
(PID.TID 0000.0001) // =======================================================
 cg2d: Sum(rhs),rhsMax =  -8.30383255552704E+01  3.62275161975560E+01
(PID.TID 0000.0001)      cg2d_init_res =   1.67093447253398E-01
(PID.TID 0000.0001)      cg2d_iters(min,last) =      -1      10
(PID.TID 0000.0001)      cg2d_last_res =   3.04197353130630E-08
(PID.TID 0000.0001) // =======================================================
(PID.TID 0000.0001) // Begin MONITOR dynamic field statistics
(PID.TID 0000.0001) // =======================================================
(PID.TID 0000.0001) %MON time_tsnumber                =                 72094
(PID.TID 0000.0001) %MON time_secondsf                =   6.4884600000000E+07
(PID.TID 0000.0001) %MON dynstat_eta_max              =   9.5955884231814E-01
(PID.TID 0000.0001) %MON dynstat_eta_min              =  -1.5630256419988E+00
(PID.TID 0000.0001) %MON dynstat_eta_mean             =   3.4955725132215E-02
(PID.TID 0000.0001) %MON dynstat_eta_sd               =   6.1002584262995E-01
(PID.TID 0000.0001) %MON dynstat_eta_del2             =   1.2970644695938E-03
(PID.TID 0000.0001) %MON dynstat_uvel_max             =   3.1201552778394E-01
(PID.TID 0000.0001) %MON dynstat_uvel_min             =  -6.2699882874493E-01
(PID.TID 0000.0001) %MON dynstat_uvel_mean            =  -5.3305473036586E-04
(PID.TID 0000.0001) %MON dynstat_uvel_sd              =   1.2830989360650E-02
(PID.TID 0000.0001) %MON dynstat_uvel_del2            =   8.4912829962724E-05
(PID.TID 0000.0001) %MON dynstat_vvel_max             =   3.6761225070682E-01
(PID.TID 0000.0001) %MON dynstat_vvel_min             =  -3.4928829069342E-01
(PID.TID 0000.0001) %MON dynstat_vvel_mean            =   1.3948718879482E-04
(PID.TID 0000.0001) %MON dynstat_vvel_sd              =   1.3672125487216E-02
(PID.TID 0000.0001) %MON dynstat_vvel_del2            =   8.4254324130191E-05
(PID.TID 0000.0001) %MON dynstat_wvel_max             =   1.0415978795165E-04
(PID.TID 0000.0001) %MON dynstat_wvel_min             =  -1.8214584175670E-04
(PID.TID 0000.0001) %MON dynstat_wvel_mean            =  -4.2224397739356E-08
(PID.TID 0000.0001) %MON dynstat_wvel_sd              =   7.5632666983596E-06
(PID.TID 0000.0001) %MON dynstat_wvel_del2            =   6.3409007693946E-08
(PID.TID 0000.0001) %MON dynstat_theta_max            =   3.0927647119816E+01
(PID.TID 0000.0001) %MON dynstat_theta_min            =  -3.0209421557976E+00
(PID.TID 0000.0001) %MON dynstat_theta_mean           =   3.9093246934612E+00
(PID.TID 0000.0001) %MON dynstat_theta_sd             =   4.5720273465307E+00
(PID.TID 0000.0001) %MON dynstat_theta_del2           =   2.6402508509276E-03
(PID.TID 0000.0001) %MON dynstat_salt_max             =   4.1346866470643E+01
(PID.TID 0000.0001) %MON dynstat_salt_min             =   1.8519320256299E+01
(PID.TID 0000.0001) %MON dynstat_salt_mean            =   3.4771891271323E+01
(PID.TID 0000.0001) %MON dynstat_salt_sd              =   5.3234421799022E-01
(PID.TID 0000.0001) %MON dynstat_salt_del2            =   1.1523632239379E-03
(PID.TID 0000.0001) %MON dynstat_sst_max              =   3.0927647119816E+01
(PID.TID 0000.0001) %MON dynstat_sst_min              =  -1.8970388762789E+00
(PID.TID 0000.0001) %MON dynstat_sst_mean             =   1.8116512135223E+01
(PID.TID 0000.0001) %MON dynstat_sst_sd               =   9.8147812849381E+00
(PID.TID 0000.0001) %MON dynstat_sst_del2             =   1.5031921473768E-02
(PID.TID 0000.0001) %MON dynstat_sss_max              =   4.1346866470643E+01
(PID.TID 0000.0001) %MON dynstat_sss_min              =   1.8752497271410E+01
(PID.TID 0000.0001) %MON dynstat_sss_mean             =   3.4619746039702E+01
(PID.TID 0000.0001) %MON dynstat_sss_sd               =   1.4924605781955E+00
(PID.TID 0000.0001) %MON dynstat_sss_del2             =   1.3119336820437E-02
(PID.TID 0000.0001) %MON forcing_qnet_max             =   4.3123219766052E+03
(PID.TID 0000.0001) %MON forcing_qnet_min             =  -7.6600099828480E+02
(PID.TID 0000.0001) %MON forcing_qnet_mean            =  -5.6484550215689E+01
(PID.TID 0000.0001) %MON forcing_qnet_sd              =   2.4312907865136E+02
(PID.TID 0000.0001) %MON forcing_qnet_del2            =   4.3168893106818E+00
(PID.TID 0000.0001) %MON forcing_qsw_max              =   0.0000000000000E+00
(PID.TID 0000.0001) %MON forcing_qsw_min              =  -4.1346105814687E+02
(PID.TID 0000.0001) %MON forcing_qsw_mean             =  -8.5518810010568E+01
(PID.TID 0000.0001) %MON forcing_qsw_sd               =   1.2150031843859E+02
(PID.TID 0000.0001) %MON forcing_qsw_del2             =   9.7202588916715E-01
(PID.TID 0000.0001) %MON forcing_empmr_max            =   4.2335256002843E-03
(PID.TID 0000.0001) %MON forcing_empmr_min            =  -6.0876563191414E-02
(PID.TID 0000.0001) %MON forcing_empmr_mean           =  -1.8166784129536E-04
(PID.TID 0000.0001) %MON forcing_empmr_sd             =   2.6870177267559E-03
(PID.TID 0000.0001) %MON forcing_empmr_del2           =   1.0528203514839E-04
(PID.TID 0000.0001) %MON forcing_fu_max               =   2.4616425597849E-01
(PID.TID 0000.0001) %MON forcing_fu_min               =  -3.3737572426014E-01
(PID.TID 0000.0001) %MON forcing_fu_mean              =  -4.1495689429765E-03
(PID.TID 0000.0001) %MON forcing_fu_sd                =   5.3608844682404E-02
(PID.TID 0000.0001) %MON forcing_fu_del2              =   5.4471602803189E-04
(PID.TID 0000.0001) %MON forcing_fv_max               =   2.3511510038221E-01
(PID.TID 0000.0001) %MON forcing_fv_min               =  -2.4802354426429E-01
(PID.TID 0000.0001) %MON forcing_fv_mean              =  -1.5501678981149E-02
(PID.TID 0000.0001) %MON forcing_fv_sd                =   5.7282784838564E-02
(PID.TID 0000.0001) %MON forcing_fv_del2              =   4.9027987620714E-04
(PID.TID 0000.0001) %MON trAdv_CFL_u_max              =   1.8285947504629E-03
(PID.TID 0000.0001) %MON trAdv_CFL_v_max              =   1.3479964272201E-03
(PID.TID 0000.0001) %MON trAdv_CFL_w_max              =   1.2578063135778E-03
(PID.TID 0000.0001) %MON advcfl_uvel_max              =   1.8087913261015E-03
(PID.TID 0000.0001) %MON advcfl_vvel_max              =   1.3016944838764E-03
(PID.TID 0000.0001) %MON advcfl_wvel_max              =   2.1174456762231E-03
(PID.TID 0000.0001) %MON advcfl_W_hf_max              =   1.2578063135778E-03
(PID.TID 0000.0001) %MON pe_b_mean                    =   4.9737106423191E-04
(PID.TID 0000.0001) %MON ke_max                       =   1.8554982959393E-01
(PID.TID 0000.0001) %MON ke_mean                      =   1.6249768634488E-04
(PID.TID 0000.0001) %MON ke_vol                       =   1.3398151078036E+18
(PID.TID 0000.0001) %MON vort_r_min                   =  -2.6399430366951E-06
(PID.TID 0000.0001) %MON vort_r_max                   =   2.3695159117757E-06
(PID.TID 0000.0001) %MON vort_a_mean                  =  -2.0549865324846E-05
(PID.TID 0000.0001) %MON vort_a_sd                    =   7.5259654106459E-05
(PID.TID 0000.0001) %MON vort_p_mean                  =  -2.4783230280167E-05
(PID.TID 0000.0001) %MON vort_p_sd                    =   1.2811933343894E-04
(PID.TID 0000.0001) %MON surfExpan_theta_mean         =  -3.8765947308548E-06
(PID.TID 0000.0001) %MON surfExpan_salt_mean          =   8.0857117715182E-07
(PID.TID 0000.0001) // =======================================================
(PID.TID 0000.0001) // End MONITOR dynamic field statistics
(PID.TID 0000.0001) // =======================================================
 cg2d: Sum(rhs),rhsMax =  -8.33562523827093E+01  3.62506917053246E+01
(PID.TID 0000.0001)      cg2d_init_res =   1.62649870633731E-01
(PID.TID 0000.0001)      cg2d_iters(min,last) =      -1      10
(PID.TID 0000.0001)      cg2d_last_res =   2.92048278240225E-08
(PID.TID 0000.0001) // =======================================================
(PID.TID 0000.0001) // Begin MONITOR dynamic field statistics
(PID.TID 0000.0001) // =======================================================
(PID.TID 0000.0001) %MON time_tsnumber                =                 72095
(PID.TID 0000.0001) %MON time_secondsf                =   6.4885500000000E+07
(PID.TID 0000.0001) %MON dynstat_eta_max              =   9.5525693299764E-01
(PID.TID 0000.0001) %MON dynstat_eta_min              =  -1.5644922119272E+00
(PID.TID 0000.0001) %MON dynstat_eta_mean             =   3.5112006803736E-02
(PID.TID 0000.0001) %MON dynstat_eta_sd               =   6.0979673753313E-01
(PID.TID 0000.0001) %MON dynstat_eta_del2             =   1.3045769770940E-03
(PID.TID 0000.0001) %MON dynstat_uvel_max             =   2.9721733228671E-01
(PID.TID 0000.0001) %MON dynstat_uvel_min             =  -6.0719083108989E-01
(PID.TID 0000.0001) %MON dynstat_uvel_mean            =  -5.3800804365230E-04
(PID.TID 0000.0001) %MON dynstat_uvel_sd              =   1.2825510185145E-02
(PID.TID 0000.0001) %MON dynstat_uvel_del2            =   8.4794260120809E-05
(PID.TID 0000.0001) %MON dynstat_vvel_max             =   3.9217555729726E-01
(PID.TID 0000.0001) %MON dynstat_vvel_min             =  -3.5095751622806E-01
(PID.TID 0000.0001) %MON dynstat_vvel_mean            =   1.4501726331745E-04
(PID.TID 0000.0001) %MON dynstat_vvel_sd              =   1.3668606363931E-02
(PID.TID 0000.0001) %MON dynstat_vvel_del2            =   8.4183025696476E-05
(PID.TID 0000.0001) %MON dynstat_wvel_max             =   1.0434063023295E-04
(PID.TID 0000.0001) %MON dynstat_wvel_min             =  -1.8217751405390E-04
(PID.TID 0000.0001) %MON dynstat_wvel_mean            =  -4.2380244868606E-08
(PID.TID 0000.0001) %MON dynstat_wvel_sd              =   7.5748251590183E-06
(PID.TID 0000.0001) %MON dynstat_wvel_del2            =   6.3240359946948E-08
(PID.TID 0000.0001) %MON dynstat_theta_max            =   3.0927239003909E+01
(PID.TID 0000.0001) %MON dynstat_theta_min            =  -3.0216428763372E+00
(PID.TID 0000.0001) %MON dynstat_theta_mean           =   3.9093291562411E+00
(PID.TID 0000.0001) %MON dynstat_theta_sd             =   4.5720458330647E+00
(PID.TID 0000.0001) %MON dynstat_theta_del2           =   2.6401307170394E-03
(PID.TID 0000.0001) %MON dynstat_salt_max             =   4.1346952452596E+01
(PID.TID 0000.0001) %MON dynstat_salt_min             =   1.8519330307822E+01
(PID.TID 0000.0001) %MON dynstat_salt_mean            =   3.4771889995722E+01
(PID.TID 0000.0001) %MON dynstat_salt_sd              =   5.3235291238627E-01
(PID.TID 0000.0001) %MON dynstat_salt_del2            =   1.1540746916994E-03
(PID.TID 0000.0001) %MON dynstat_sst_max              =   3.0927239003909E+01
(PID.TID 0000.0001) %MON dynstat_sst_min              =  -1.8969327018796E+00
(PID.TID 0000.0001) %MON dynstat_sst_mean             =   1.8116758417480E+01
(PID.TID 0000.0001) %MON dynstat_sst_sd               =   9.8149971485650E+00
(PID.TID 0000.0001) %MON dynstat_sst_del2             =   1.5029815811221E-02
(PID.TID 0000.0001) %MON dynstat_sss_max              =   4.1346952452596E+01
(PID.TID 0000.0001) %MON dynstat_sss_min              =   1.8752508350266E+01
(PID.TID 0000.0001) %MON dynstat_sss_mean             =   3.4619649426158E+01
(PID.TID 0000.0001) %MON dynstat_sss_sd               =   1.4926745896107E+00
(PID.TID 0000.0001) %MON dynstat_sss_del2             =   1.3143139768295E-02
(PID.TID 0000.0001) %MON forcing_qnet_max             =   1.3087553646154E+03
(PID.TID 0000.0001) %MON forcing_qnet_min             =  -7.5568334085558E+02
(PID.TID 0000.0001) %MON forcing_qnet_mean            =  -5.8881817949392E+01
(PID.TID 0000.0001) %MON forcing_qnet_sd              =   2.3388123390424E+02
(PID.TID 0000.0001) %MON forcing_qnet_del2            =   2.9261308330087E+00
(PID.TID 0000.0001) %MON forcing_qsw_max              =   0.0000000000000E+00
(PID.TID 0000.0001) %MON forcing_qsw_min              =  -4.1994878921348E+02
(PID.TID 0000.0001) %MON forcing_qsw_mean             =  -8.6248662796370E+01
(PID.TID 0000.0001) %MON forcing_qsw_sd               =   1.2186275360196E+02
(PID.TID 0000.0001) %MON forcing_qsw_del2             =   9.7358237966959E-01
(PID.TID 0000.0001) %MON forcing_empmr_max            =   4.1899322532117E-03
(PID.TID 0000.0001) %MON forcing_empmr_min            =  -6.0249768197536E-02
(PID.TID 0000.0001) %MON forcing_empmr_mean           =  -1.7972392224866E-04
(PID.TID 0000.0001) %MON forcing_empmr_sd             =   2.6602009885740E-03
(PID.TID 0000.0001) %MON forcing_empmr_del2           =   1.0416589433687E-04
(PID.TID 0000.0001) %MON forcing_fu_max               =   2.3839140815383E-01
(PID.TID 0000.0001) %MON forcing_fu_min               =  -3.3595462525936E-01
(PID.TID 0000.0001) %MON forcing_fu_mean              =  -4.2289092379056E-03
(PID.TID 0000.0001) %MON forcing_fu_sd                =   5.3338057471158E-02
(PID.TID 0000.0001) %MON forcing_fu_del2              =   5.4263548511956E-04
(PID.TID 0000.0001) %MON forcing_fv_max               =   2.3307592863502E-01
(PID.TID 0000.0001) %MON forcing_fv_min               =  -2.4566662895635E-01
(PID.TID 0000.0001) %MON forcing_fv_mean              =  -1.5470903268016E-02
(PID.TID 0000.0001) %MON forcing_fv_sd                =   5.7064919913173E-02
(PID.TID 0000.0001) %MON forcing_fv_del2              =   4.8868580589583E-04
(PID.TID 0000.0001) %MON trAdv_CFL_u_max              =   1.7721422516810E-03
(PID.TID 0000.0001) %MON trAdv_CFL_v_max              =   1.4380065826815E-03
(PID.TID 0000.0001) %MON trAdv_CFL_w_max              =   1.2435105436155E-03
(PID.TID 0000.0001) %MON advcfl_uvel_max              =   1.7516484213570E-03
(PID.TID 0000.0001) %MON advcfl_vvel_max              =   1.3886717830090E-03
(PID.TID 0000.0001) %MON advcfl_wvel_max              =   2.0956441112187E-03
(PID.TID 0000.0001) %MON advcfl_W_hf_max              =   1.2435105436155E-03
(PID.TID 0000.0001) %MON pe_b_mean                    =   4.9701333166659E-04
(PID.TID 0000.0001) %MON ke_max                       =   1.8106740073265E-01
(PID.TID 0000.0001) %MON ke_mean                      =   1.6239163478912E-04
(PID.TID 0000.0001) %MON ke_vol                       =   1.3398151652875E+18
(PID.TID 0000.0001) %MON vort_r_min                   =  -2.6794343800932E-06
(PID.TID 0000.0001) %MON vort_r_max                   =   2.2887326797216E-06
(PID.TID 0000.0001) %MON vort_a_mean                  =  -2.0549865324846E-05
(PID.TID 0000.0001) %MON vort_a_sd                    =   7.5259654659181E-05
(PID.TID 0000.0001) %MON vort_p_mean                  =  -2.4783229267374E-05
(PID.TID 0000.0001) %MON vort_p_sd                    =   1.2811933171709E-04
(PID.TID 0000.0001) %MON surfExpan_theta_mean         =  -3.7881624577554E-06
(PID.TID 0000.0001) %MON surfExpan_salt_mean          =   7.8838715988304E-07
(PID.TID 0000.0001) // =======================================================
(PID.TID 0000.0001) // End MONITOR dynamic field statistics
(PID.TID 0000.0001) // =======================================================
 Computing Diagnostic #     81  oceTAUX      Counter:       1   Parms: UU      U1      
           Vector  Mate for  oceTAUX      Diagnostic #     82  oceTAUY  exists 
 Computing Diagnostic #     82  oceTAUY      Counter:       1   Parms: VV      U1      
           Vector  Mate for  oceTAUY      Diagnostic #     81  oceTAUX  exists 
 Computing Diagnostic #     85  oceFWflx     Counter:       1   Parms: SM      U1      
 Computing Diagnostic #     86  oceSflux     Counter:       1   Parms: SM      U1      
 Computing Diagnostic #     87  oceQnet      Counter:       1   Parms: SM      U1      
 Computing Diagnostic #     88  oceQsw       Counter:       1   Parms: SM      U1      
 Computing Diagnostic #     27  SALT         Counter:       1   Parms: SMR     MR      
 Computing Diagnostic #     26  THETA        Counter:       1   Parms: SMR     MR      
 Computing Diagnostic #     45  UVELMASS     Counter:       1   Parms: UUr     MR      
           Vector  Mate for  UVELMASS     Diagnostic #     46  VVELMASS exists 
 Computing Diagnostic #     46  VVELMASS     Counter:       1   Parms: VVr     MR      
           Vector  Mate for  VVELMASS     Diagnostic #     45  UVELMASS exists 
 cg2d: Sum(rhs),rhsMax =  -8.36327447263608E+01  3.62901636043313E+01
(PID.TID 0000.0001)      cg2d_init_res =   1.58298475391567E-01
(PID.TID 0000.0001)      cg2d_iters(min,last) =      -1      10
(PID.TID 0000.0001)      cg2d_last_res =   3.04198031444525E-08
(PID.TID 0000.0001) // =======================================================
(PID.TID 0000.0001) // Begin MONITOR dynamic field statistics
(PID.TID 0000.0001) // =======================================================
(PID.TID 0000.0001) %MON time_tsnumber                =                 72096
(PID.TID 0000.0001) %MON time_secondsf                =   6.4886400000000E+07
(PID.TID 0000.0001) %MON dynstat_eta_max              =   9.5082424544710E-01
(PID.TID 0000.0001) %MON dynstat_eta_min              =  -1.5660917315166E+00
(PID.TID 0000.0001) %MON dynstat_eta_mean             =   3.5266832031739E-02
(PID.TID 0000.0001) %MON dynstat_eta_sd               =   6.0954032974779E-01
(PID.TID 0000.0001) %MON dynstat_eta_del2             =   1.3096714348745E-03
(PID.TID 0000.0001) %MON dynstat_uvel_max             =   2.8355633781717E-01
(PID.TID 0000.0001) %MON dynstat_uvel_min             =  -5.9353501311972E-01
(PID.TID 0000.0001) %MON dynstat_uvel_mean            =  -5.4248375579430E-04
(PID.TID 0000.0001) %MON dynstat_uvel_sd              =   1.2820721233313E-02
(PID.TID 0000.0001) %MON dynstat_uvel_del2            =   8.4654280891224E-05
(PID.TID 0000.0001) %MON dynstat_vvel_max             =   4.1501130999201E-01
(PID.TID 0000.0001) %MON dynstat_vvel_min             =  -3.5259616172402E-01
(PID.TID 0000.0001) %MON dynstat_vvel_mean            =   1.5218914786769E-04
(PID.TID 0000.0001) %MON dynstat_vvel_sd              =   1.3666432399543E-02
(PID.TID 0000.0001) %MON dynstat_vvel_del2            =   8.4248968514370E-05
(PID.TID 0000.0001) %MON dynstat_wvel_max             =   1.0451727974505E-04
(PID.TID 0000.0001) %MON dynstat_wvel_min             =  -1.8220055619627E-04
(PID.TID 0000.0001) %MON dynstat_wvel_mean            =  -4.3192766384482E-08
(PID.TID 0000.0001) %MON dynstat_wvel_sd              =   7.5867914623872E-06
(PID.TID 0000.0001) %MON dynstat_wvel_del2            =   6.3086294707323E-08
(PID.TID 0000.0001) %MON dynstat_theta_max            =   3.0926823924948E+01
(PID.TID 0000.0001) %MON dynstat_theta_min            =  -3.0223589587887E+00
(PID.TID 0000.0001) %MON dynstat_theta_mean           =   3.9093336901861E+00
(PID.TID 0000.0001) %MON dynstat_theta_sd             =   4.5720646593798E+00
(PID.TID 0000.0001) %MON dynstat_theta_del2           =   2.6400102844878E-03
(PID.TID 0000.0001) %MON dynstat_salt_max             =   4.1347056254619E+01
(PID.TID 0000.0001) %MON dynstat_salt_min             =   1.8519340365689E+01
(PID.TID 0000.0001) %MON dynstat_salt_mean            =   3.4771888744819E+01
(PID.TID 0000.0001) %MON dynstat_salt_sd              =   5.3236147132621E-01
(PID.TID 0000.0001) %MON dynstat_salt_del2            =   1.1557471928080E-03
(PID.TID 0000.0001) %MON dynstat_sst_max              =   3.0926823924948E+01
(PID.TID 0000.0001) %MON dynstat_sst_min              =  -1.8968400116190E+00
(PID.TID 0000.0001) %MON dynstat_sst_mean             =   1.8117011963256E+01
(PID.TID 0000.0001) %MON dynstat_sst_sd               =   9.8152155865854E+00
(PID.TID 0000.0001) %MON dynstat_sst_del2             =   1.5027708621840E-02
(PID.TID 0000.0001) %MON dynstat_sss_max              =   4.1347056254619E+01
(PID.TID 0000.0001) %MON dynstat_sss_min              =   1.8752519335260E+01
(PID.TID 0000.0001) %MON dynstat_sss_mean             =   3.4619554969322E+01
(PID.TID 0000.0001) %MON dynstat_sss_sd               =   1.4928850004650E+00
(PID.TID 0000.0001) %MON dynstat_sss_del2             =   1.3166395836209E-02
(PID.TID 0000.0001) %MON forcing_qnet_max             =   1.2942080381567E+03
(PID.TID 0000.0001) %MON forcing_qnet_min             =  -1.2613394775391E+03
(PID.TID 0000.0001) %MON forcing_qnet_mean            =  -6.0142051544399E+01
(PID.TID 0000.0001) %MON forcing_qnet_sd              =   2.3566585723377E+02
(PID.TID 0000.0001) %MON forcing_qnet_del2            =   3.0591783764516E+00
(PID.TID 0000.0001) %MON forcing_qsw_max              =   0.0000000000000E+00
(PID.TID 0000.0001) %MON forcing_qsw_min              =  -4.2475720977197E+02
(PID.TID 0000.0001) %MON forcing_qsw_mean             =  -8.6733105597225E+01
(PID.TID 0000.0001) %MON forcing_qsw_sd               =   1.2200876954268E+02
(PID.TID 0000.0001) %MON forcing_qsw_del2             =   9.7325243270532E-01
(PID.TID 0000.0001) %MON forcing_empmr_max            =   4.1467333212495E-03
(PID.TID 0000.0001) %MON forcing_empmr_min            =  -5.9629678726196E-02
(PID.TID 0000.0001) %MON forcing_empmr_mean           =  -1.7804901220391E-04
(PID.TID 0000.0001) %MON forcing_empmr_sd             =   2.6337688383965E-03
(PID.TID 0000.0001) %MON forcing_empmr_del2           =   1.0307249661206E-04
(PID.TID 0000.0001) %MON forcing_fu_max               =   2.3626232912252E-01
(PID.TID 0000.0001) %MON forcing_fu_min               =  -3.3469937750893E-01
(PID.TID 0000.0001) %MON forcing_fu_mean              =  -4.2928087599135E-03
(PID.TID 0000.0001) %MON forcing_fu_sd                =   5.3124903565990E-02
(PID.TID 0000.0001) %MON forcing_fu_del2              =   5.4120143184677E-04
(PID.TID 0000.0001) %MON forcing_fv_max               =   2.3259327411947E-01
(PID.TID 0000.0001) %MON forcing_fv_min               =  -2.4272115244770E-01
(PID.TID 0000.0001) %MON forcing_fv_mean              =  -1.5435819196167E-02
(PID.TID 0000.0001) %MON forcing_fv_sd                =   5.6872711598419E-02
(PID.TID 0000.0001) %MON forcing_fv_del2              =   4.8719417479805E-04
(PID.TID 0000.0001) %MON trAdv_CFL_u_max              =   1.7103163868387E-03
(PID.TID 0000.0001) %MON trAdv_CFL_v_max              =   1.5218641313873E-03
(PID.TID 0000.0001) %MON trAdv_CFL_w_max              =   1.2286231757266E-03
(PID.TID 0000.0001) %MON advcfl_uvel_max              =   1.6999754573909E-03
(PID.TID 0000.0001) %MON advcfl_vvel_max              =   1.4695319101151E-03
(PID.TID 0000.0001) %MON advcfl_wvel_max              =   2.0740757817807E-03
(PID.TID 0000.0001) %MON advcfl_W_hf_max              =   1.2949720989718E-03
(PID.TID 0000.0001) %MON pe_b_mean                    =   4.9661132618023E-04
(PID.TID 0000.0001) %MON ke_max                       =   1.7568059751479E-01
(PID.TID 0000.0001) %MON ke_mean                      =   1.6231085305302E-04
(PID.TID 0000.0001) %MON ke_vol                       =   1.3398152221564E+18
(PID.TID 0000.0001) %MON vort_r_min                   =  -2.7164731582104E-06
(PID.TID 0000.0001) %MON vort_r_max                   =   2.2022849290196E-06
(PID.TID 0000.0001) %MON vort_a_mean                  =  -2.0549865324846E-05
(PID.TID 0000.0001) %MON vort_a_sd                    =   7.5259655462863E-05
(PID.TID 0000.0001) %MON vort_p_mean                  =  -2.4783228266044E-05
(PID.TID 0000.0001) %MON vort_p_sd                    =   1.2811932866214E-04
(PID.TID 0000.0001) %MON surfExpan_theta_mean         =  -3.7205576418013E-06
(PID.TID 0000.0001) %MON surfExpan_salt_mean          =   7.6922110981809E-07
(PID.TID 0000.0001) // =======================================================
(PID.TID 0000.0001) // End MONITOR dynamic field statistics
(PID.TID 0000.0001) // =======================================================
