(PID.TID 0000.0001) 
(PID.TID 0000.0001) // ======================================================
(PID.TID 0000.0001) //                      MITgcm UV
(PID.TID 0000.0001) //                      =========
(PID.TID 0000.0001) // ======================================================
(PID.TID 0000.0001) // execution environment starting up...
(PID.TID 0000.0001) 
(PID.TID 0000.0001) // MITgcmUV version:  checkpoint66k
(PID.TID 0000.0001) // Build user:        dmenemen
(PID.TID 0000.0001) // Build host:        r481i6n16
(PID.TID 0000.0001) // Build date:        Wed Sep 27 23:30:01 PDT 2017
(PID.TID 0000.0001) 
(PID.TID 0000.0001) // =======================================================
(PID.TID 0000.0001) // Execution Environment parameter file "eedata"
(PID.TID 0000.0001) // =======================================================
(PID.TID 0000.0001) ># Example "eedata" file
(PID.TID 0000.0001) ># Lines beginning "#" are comments
(PID.TID 0000.0001) ># nTx - No. threads per process in X
(PID.TID 0000.0001) ># nTy - No. threads per process in Y
(PID.TID 0000.0001) > &EEPARMS
(PID.TID 0000.0001) > useCubedSphereExchange=.TRUE.,
(PID.TID 0000.0001) > nTx=1,
(PID.TID 0000.0001) > nTy=1,
(PID.TID 0000.0001) > &end
(PID.TID 0000.0001) ># Note: Some systems use & as the
(PID.TID 0000.0001) ># namelist terminator. Other systems
(PID.TID 0000.0001) ># use a / character (as shown here).
(PID.TID 0000.0001) 
(PID.TID 0000.0001) // =======================================================
(PID.TID 0000.0001) // Computational Grid Specification ( see files "SIZE.h" )
(PID.TID 0000.0001) //                                  ( and "eedata"       )
(PID.TID 0000.0001) // =======================================================
(PID.TID 0000.0001)      nPx =    6 ; /* No. processes in X */
(PID.TID 0000.0001)      nPy =    1 ; /* No. processes in Y */
(PID.TID 0000.0001)      nSx =    1 ; /* No. tiles in X per process */
(PID.TID 0000.0001)      nSy =    1 ; /* No. tiles in Y per process */
(PID.TID 0000.0001)      sNx =   32 ; /* Tile size in X */
(PID.TID 0000.0001)      sNy =   32 ; /* Tile size in Y */
(PID.TID 0000.0001)      OLx =    4 ; /* Tile overlap distance in X */
(PID.TID 0000.0001)      OLy =    4 ; /* Tile overlap distance in Y */
(PID.TID 0000.0001)      nTx =    1 ; /* No. threads in X per process */
(PID.TID 0000.0001)      nTy =    1 ; /* No. threads in Y per process */
(PID.TID 0000.0001)       Nr =   15 ; /* No. levels in the vertical   */
(PID.TID 0000.0001)       Nx =  192 ; /* Total domain size in X ( = nPx*nSx*sNx ) */
(PID.TID 0000.0001)       Ny =   32 ; /* Total domain size in Y ( = nPy*nSy*sNy ) */
(PID.TID 0000.0001)   nTiles =    1 ; /* Total no. tiles per process ( = nSx*nSy ) */
(PID.TID 0000.0001)   nProcs =    6 ; /* Total no. processes ( = nPx*nPy ) */
(PID.TID 0000.0001) nThreads =    1 ; /* Total no. threads per process ( = nTx*nTy ) */
(PID.TID 0000.0001) usingMPI =    T ; /* Flag used to control whether MPI is in use */
(PID.TID 0000.0001)                   /*  note: To execute a program with MPI calls */
(PID.TID 0000.0001)                   /*  it must be launched appropriately e.g     */
(PID.TID 0000.0001)                   /*  "mpirun -np 64 ......"                    */
(PID.TID 0000.0001) useCoupler=    F ;/* Flag used to control communications with   */
(PID.TID 0000.0001)                   /*  other model components, through a coupler */
(PID.TID 0000.0001) debugMode =    F ; /* print debug msg. (sequence of S/R calls)  */
(PID.TID 0000.0001) printMapIncludesZeros=    F ; /* print zeros in Std.Output maps */
(PID.TID 0000.0001) maxLengthPrt1D=   65 /* maxLength of 1D array printed to StdOut */
(PID.TID 0000.0001) 
(PID.TID 0000.0001) ======= Starting MPI parallel Run =========
(PID.TID 0000.0001)  My Processor Name (len:  9 ) = r481i6n16
(PID.TID 0000.0001)  Located at (  0,  0) on processor grid (0:  5,0:  0)
(PID.TID 0000.0001)  Origin at  (     1,     1) on global grid (1:   192,1:    32)
(PID.TID 0000.0001)  North neighbor = processor 0000
(PID.TID 0000.0001)  South neighbor = processor 0000
(PID.TID 0000.0001)   East neighbor = processor 0001
(PID.TID 0000.0001)   West neighbor = processor 0005
(PID.TID 0000.0001) // ======================================================
(PID.TID 0000.0001) // Mapping of tiles to threads
(PID.TID 0000.0001) // ======================================================
(PID.TID 0000.0001) // -o- Thread   1, tiles (   1:   1,   1:   1)
(PID.TID 0000.0001) 
(PID.TID 0000.0001) W2_READPARMS: file data.exch2 not found
(PID.TID 0000.0001) => use W2_EXCH2 default: regular 6-facets Cube
(PID.TID 0000.0001) W2_useE2ioLayOut=    T ;/* T: use Exch2 glob IO map; F: use model default */
(PID.TID 0000.0001) W2_mapIO        =  -1 ; /* select option for Exch2 global-IO map */
(PID.TID 0000.0001) W2_printMsg     =  -1 ; /* select option for printing information */
(PID.TID 0000.0001) ===== Start setting W2 TOPOLOGY:
(PID.TID 0000.0001)  write to log-file: w2_tile_topology.0000.log
(PID.TID 0000.0001) =====       setting W2 TOPOLOGY: Done
(PID.TID 0000.0001) 
(PID.TID 0000.0001)  INI_PARMS: opening model parameter file "data"
(PID.TID 0000.0001)  OPEN_COPY_DATA_FILE: opening file data
(PID.TID 0000.0001) // =======================================================
(PID.TID 0000.0001) // Parameter file "data"
(PID.TID 0000.0001) // =======================================================
(PID.TID 0000.0001) ># ====================
(PID.TID 0000.0001) ># | Model parameters |
(PID.TID 0000.0001) ># ====================
(PID.TID 0000.0001) >#
(PID.TID 0000.0001) ># Continuous equation parameters
(PID.TID 0000.0001) > &PARM01
(PID.TID 0000.0001) > tRef=15*20.,
(PID.TID 0000.0001) > sRef=15*35.,
(PID.TID 0000.0001) > viscAh =3.E5,
(PID.TID 0000.0001) > viscAr =1.E-3,
(PID.TID 0000.0001) > diffKrT=3.E-5,
(PID.TID 0000.0001) > diffKrS=3.E-5,
(PID.TID 0000.0001) > ivdc_kappa=10.,
(PID.TID 0000.0001) > implicitDiffusion=.TRUE.,
(PID.TID 0000.0001) > rhonil=1035.,
(PID.TID 0000.0001) > rhoConstFresh=1000.,
(PID.TID 0000.0001) > eosType='JMD95Z',
(PID.TID 0000.0001) > staggerTimeStep=.TRUE.,
(PID.TID 0000.0001) > vectorInvariantMomentum=.TRUE.,
(PID.TID 0000.0001) > implicitFreeSurface=.TRUE.,
(PID.TID 0000.0001) > exactConserv=.TRUE.,
(PID.TID 0000.0001) > select_rStar=2,
(PID.TID 0000.0001) > nonlinFreeSurf=4,
(PID.TID 0000.0001) > useRealFreshWaterFlux=.TRUE.,
(PID.TID 0000.0001) > allowFreezing=.TRUE.,
(PID.TID 0000.0001) > hFacMin=.1,
(PID.TID 0000.0001) > hFacMinDr=20.,
(PID.TID 0000.0001) > readBinaryPrec=64,
(PID.TID 0000.0001) > useSingleCpuIo=.TRUE.,
(PID.TID 0000.0001) > &end
(PID.TID 0000.0001) >
(PID.TID 0000.0001) ># Elliptic solver parameters
(PID.TID 0000.0001) > &PARM02
(PID.TID 0000.0001) > &end
(PID.TID 0000.0001) >
(PID.TID 0000.0001) ># Time stepping parameters
(PID.TID 0000.0001) > &PARM03
(PID.TID 0000.0001) > nIter0           = 72000,
(PID.TID 0000.0001) > nTimeSteps       = 99999,
(PID.TID 0000.0001) > deltaT           = 900.,
(PID.TID 0000.0001) > monitorFreq      = 1.,
(PID.TID 0000.0001) > abEps            = 0.1,
(PID.TID 0000.0001) > tracForcingOutAB = 1,
(PID.TID 0000.0001) > &end
(PID.TID 0000.0001) >
(PID.TID 0000.0001) ># Gridding parameters
(PID.TID 0000.0001) > &PARM04
(PID.TID 0000.0001) > usingCurvilinearGrid=.TRUE.,
(PID.TID 0000.0001) > horizGridFile='grid_cs32',
(PID.TID 0000.0001) > delR= 50., 70., 100., 140., 190.,
(PID.TID 0000.0001) >       240., 290., 340., 390., 440.,
(PID.TID 0000.0001) >       490., 540., 590., 640., 690.,
(PID.TID 0000.0001) > &end
(PID.TID 0000.0001) >
(PID.TID 0000.0001) ># Input datasets
(PID.TID 0000.0001) > &PARM05
(PID.TID 0000.0001) > bathyFile      ='bathy_Hmin50.bin',
(PID.TID 0000.0001) > &end
(PID.TID 0000.0001) 
(PID.TID 0000.0001)  INI_PARMS ; starts to read PARM01
(PID.TID 0000.0001)  INI_PARMS ; read PARM01 : OK
(PID.TID 0000.0001)  INI_PARMS ; starts to read PARM02
(PID.TID 0000.0001)  INI_PARMS ; read PARM02 : OK
(PID.TID 0000.0001)  INI_PARMS ; starts to read PARM03
(PID.TID 0000.0001)  INI_PARMS ; read PARM03 : OK
(PID.TID 0000.0001)  INI_PARMS ; starts to read PARM04
(PID.TID 0000.0001)  INI_PARMS ; read PARM04 : OK
(PID.TID 0000.0001)  INI_PARMS ; starts to read PARM05
(PID.TID 0000.0001)  INI_PARMS ; read PARM05 : OK
(PID.TID 0000.0001)  INI_PARMS: finished reading file "data"
(PID.TID 0000.0001)  PACKAGES_BOOT: opening data.pkg
(PID.TID 0000.0001)  OPEN_COPY_DATA_FILE: opening file data.pkg
(PID.TID 0000.0001) // =======================================================
(PID.TID 0000.0001) // Parameter file "data.pkg"
(PID.TID 0000.0001) // =======================================================
(PID.TID 0000.0001) ># Packages
(PID.TID 0000.0001) > &PACKAGES
(PID.TID 0000.0001) > useGMRedi=.TRUE.,
(PID.TID 0000.0001) > useDiagnostics=.TRUE.,
(PID.TID 0000.0001) > &end
(PID.TID 0000.0001) 
(PID.TID 0000.0001)  PACKAGES_BOOT: finished reading data.pkg
(PID.TID 0000.0001)  PACKAGES_BOOT: On/Off package Summary
 --------  pkgs with a standard "usePKG" On/Off switch in "data.pkg":  --------
 pkg/gmredi               compiled   and   used ( useGMRedi                = T )
 pkg/bulk_force           compiled but not used ( useBulkForce             = F )
 pkg/diagnostics          compiled   and   used ( useDiagnostics           = T )
 pkg/mnc                  compiled but not used ( useMNC                   = F )
 -------- pkgs without standard "usePKG" On/Off switch in "data.pkg":  --------
 pkg/generic_advdiff      compiled   and   used ( useGAD                   = T )
 pkg/mom_common           compiled   and   used ( momStepping              = T )
 pkg/mom_vecinv           compiled   and   used ( +vectorInvariantMomentum = T )
 pkg/mom_fluxform         compiled but not used ( & not vectorInvariantMom = F )
 pkg/monitor              compiled   and   used ( monitorFreq > 0.         = T )
 pkg/timeave              compiled but not used ( taveFreq > 0.            = F )
 pkg/debug                compiled but not used ( debugMode                = F )
 pkg/exch2                compiled   and   used
 pkg/rw                   compiled   and   used
 pkg/mdsio                compiled   and   used
(PID.TID 0000.0001)  PACKAGES_BOOT: End of package Summary
(PID.TID 0000.0001) 
(PID.TID 0000.0001)  GM_READPARMS: opening data.gmredi
(PID.TID 0000.0001)  OPEN_COPY_DATA_FILE: opening file data.gmredi
(PID.TID 0000.0001) // =======================================================
(PID.TID 0000.0001) // Parameter file "data.gmredi"
(PID.TID 0000.0001) // =======================================================
(PID.TID 0000.0001) ># GM+Redi package parameters:
(PID.TID 0000.0001) >
(PID.TID 0000.0001) >#-from MOM :
(PID.TID 0000.0001) ># GM_background_K: 	G & Mc.W  diffusion coefficient
(PID.TID 0000.0001) ># GM_maxSlope    :	max slope of isopycnals
(PID.TID 0000.0001) ># GM_Scrit       :	transition for scaling diffusion coefficient
(PID.TID 0000.0001) ># GM_Sd          :	half width scaling for diffusion coefficient
(PID.TID 0000.0001) ># GM_taper_scheme:	slope clipping or one of the tapering schemes
(PID.TID 0000.0001) ># GM_Kmin_horiz  :	horizontal diffusion minimum value
(PID.TID 0000.0001) >
(PID.TID 0000.0001) >#-Option parameters (needs to "define" options in GMREDI_OPTIONS.h")
(PID.TID 0000.0001) ># GM_isopycK     :	isopycnal diffusion coefficient (default=GM_background_K)
(PID.TID 0000.0001) ># GM_AdvForm     :	turn on GM Advective form       (default=Skew flux form)
(PID.TID 0000.0001) >
(PID.TID 0000.0001) > &GM_PARM01
(PID.TID 0000.0001) >  GM_background_K    = 800.,
(PID.TID 0000.0001) >  GM_taper_scheme    = 'gkw91',
(PID.TID 0000.0001) >  GM_maxSlope        = 1.e-2,
(PID.TID 0000.0001) >  GM_Kmin_horiz      = 50.,
(PID.TID 0000.0001) >  GM_Scrit           = 4.e-3,
(PID.TID 0000.0001) >  GM_Sd              = 1.e-3,
(PID.TID 0000.0001) ># GM_Visbeck_alpha   = 0.,
(PID.TID 0000.0001) ># GM_Visbeck_length  = 2.e+5,
(PID.TID 0000.0001) ># GM_Visbeck_depth   = 1.e+3,
(PID.TID 0000.0001) ># GM_Visbeck_maxval_K= 2.5e+3,
(PID.TID 0000.0001) > &end
(PID.TID 0000.0001) >
(PID.TID 0000.0001) >
(PID.TID 0000.0001) 
(PID.TID 0000.0001)  GM_READPARMS: finished reading data.gmredi
(PID.TID 0000.0001)  DIAGNOSTICS_READPARMS: opening data.diagnostics
(PID.TID 0000.0001)  OPEN_COPY_DATA_FILE: opening file data.diagnostics
(PID.TID 0000.0001) // =======================================================
(PID.TID 0000.0001) // Parameter file "data.diagnostics"
(PID.TID 0000.0001) // =======================================================
(PID.TID 0000.0001) ># Diagnostic Package Choices
(PID.TID 0000.0001) >#--------------------
(PID.TID 0000.0001) >#  dumpAtLast (logical): always write output at the end of simulation (default=F)
(PID.TID 0000.0001) >#  diag_mnc   (logical): write to NetCDF files (default=useMNC)
(PID.TID 0000.0001) >#--for each output-stream:
(PID.TID 0000.0001) >#  fileName(n) : prefix of the output file name (max 80c long) for outp.stream n
(PID.TID 0000.0001) >#  frequency(n):< 0 : write snap-shot output every |frequency| seconds
(PID.TID 0000.0001) >#               > 0 : write time-average output every frequency seconds
(PID.TID 0000.0001) >#  timePhase(n)     : write at time = timePhase + multiple of |frequency|
(PID.TID 0000.0001) >#    averagingFreq  : frequency (in s) for periodic averaging interval
(PID.TID 0000.0001) >#    averagingPhase : phase     (in s) for periodic averaging interval
(PID.TID 0000.0001) >#    repeatCycle    : number of averaging intervals in 1 cycle
(PID.TID 0000.0001) >#  levels(:,n) : list of levels to write to file (Notes: declared as REAL)
(PID.TID 0000.0001) >#                when this entry is missing, select all common levels of this list
(PID.TID 0000.0001) >#  fields(:,n) : list of selected diagnostics fields (8.c) in outp.stream n
(PID.TID 0000.0001) >#                (see "available_diagnostics.log" file for the full list of diags)
(PID.TID 0000.0001) >#  missing_value(n) : missing value for real-type fields in output file "n"
(PID.TID 0000.0001) >#  fileFlags(n)     : specific code (8c string) for output file "n"
(PID.TID 0000.0001) >#--------------------
(PID.TID 0000.0001) ># oceTAUX  zonal surface wind stress, >0 increases uVel (N/m^2)
(PID.TID 0000.0001) ># oceTAUY  meridional surf. wind stress, >0 increases vVel (N/m^2)
(PID.TID 0000.0001) ># oceFWflx net surface Fresh-Water flux into ocean, >0 decreases salinity (kg/m^2/s)
(PID.TID 0000.0001) ># oceSflux net surface Salt flux into the ocean, >0 increases salinity (g/m^2/s)
(PID.TID 0000.0001) ># oceQnet  net surface heat flux into the ocean, >0 increases theta (W/m^2)
(PID.TID 0000.0001) ># oceQsw   net Short-Wave radiation (+=down), >0 increases theta (W/m^2)
(PID.TID 0000.0001) ># SSS      Sea Surface Salinity (g/kg)
(PID.TID 0000.0001) ># SST      Sea Surface Temperature (degC)
(PID.TID 0000.0001) ># UVEL1    Zonal Surface Velocity (m/s)
(PID.TID 0000.0001) ># VVEL1    Meridional Surface Velocity (m/s)
(PID.TID 0000.0001) >
(PID.TID 0000.0001) > &DIAGNOSTICS_LIST
(PID.TID 0000.0001) >   frequency(1)  = -3600.,
(PID.TID 0000.0001) >    fields(1,1)  = 'oceTAUX ',
(PID.TID 0000.0001) >    filename(1)  = 'oceTAUX',
(PID.TID 0000.0001) >   frequency(2)  = -3600.,
(PID.TID 0000.0001) >    fields(1,2)  = 'oceTAUY ',
(PID.TID 0000.0001) >    filename(2)  = 'oceTAUY',
(PID.TID 0000.0001) >   frequency(3)  = -3600.,
(PID.TID 0000.0001) >    fields(1,3)  = 'oceFWflx',
(PID.TID 0000.0001) >    filename(3)  = 'oceFWflx',
(PID.TID 0000.0001) >   frequency(4)  = -3600.,
(PID.TID 0000.0001) >    fields(1,4)  = 'oceSflux',
(PID.TID 0000.0001) >    filename(4)  = 'oceSflux',
(PID.TID 0000.0001) >   frequency(5)  = -3600.,
(PID.TID 0000.0001) >    fields(1,5)  = 'oceQnet ',
(PID.TID 0000.0001) >    filename(5)  = 'oceQnet',
(PID.TID 0000.0001) >   frequency(6)  = -3600.,
(PID.TID 0000.0001) >    fields(1,6)  = 'oceQsw  ',
(PID.TID 0000.0001) >    filename(6)  = 'oceQsw',
(PID.TID 0000.0001) >   frequency(7)  = -3600.,
(PID.TID 0000.0001) >    fields(1,7)  = 'SALT    ',
(PID.TID 0000.0001) >    levels(1,7)  = 1.,
(PID.TID 0000.0001) >    filename(7)  = 'SSS',
(PID.TID 0000.0001) >   frequency(8)  = -3600.,
(PID.TID 0000.0001) >    fields(1,8)  = 'THETA   ',
(PID.TID 0000.0001) >    levels(1,8)  = 1.,
(PID.TID 0000.0001) >    filename(8)  = 'SST',
(PID.TID 0000.0001) >   frequency(9)  = -3600.,
(PID.TID 0000.0001) >    fields(1,9)  = 'UVELMASS',
(PID.TID 0000.0001) >    levels(1,9)  = 1.,
(PID.TID 0000.0001) >    filename(9)  = 'UVEL1',
(PID.TID 0000.0001) >   frequency(10) = -3600.,
(PID.TID 0000.0001) >    fields(1,10) = 'VVELMASS',
(PID.TID 0000.0001) >    levels(1,10) = 1.,
(PID.TID 0000.0001) >    filename(10) = 'VVEL1',
(PID.TID 0000.0001) > &
(PID.TID 0000.0001) >
(PID.TID 0000.0001) > &DIAG_STATIS_PARMS
(PID.TID 0000.0001) > &
(PID.TID 0000.0001) 
(PID.TID 0000.0001) S/R DIAGNOSTICS_READPARMS, read namelist "diagnostics_list": start
(PID.TID 0000.0001) S/R DIAGNOSTICS_READPARMS, read namelist "diagnostics_list": OK
(PID.TID 0000.0001) S/R DIAGNOSTICS_READPARMS, read namelist "DIAG_STATIS_PARMS": start
(PID.TID 0000.0001) S/R DIAGNOSTICS_READPARMS, read namelist "DIAG_STATIS_PARMS": OK
(PID.TID 0000.0001)  DIAGNOSTICS_READPARMS: global parameter summary:
(PID.TID 0000.0001)  dumpAtLast = /* always write time-ave diags at the end */
(PID.TID 0000.0001)                   F
(PID.TID 0000.0001)     ;
(PID.TID 0000.0001)  diag_mnc =   /* write NetCDF output files */
(PID.TID 0000.0001)                   F
(PID.TID 0000.0001)     ;
(PID.TID 0000.0001)  useMissingValue = /* put MissingValue where mask = 0 */
(PID.TID 0000.0001)                   F
(PID.TID 0000.0001)     ;
(PID.TID 0000.0001)  diagCG_maxIters = /* max number of iters in diag_cg2d */
(PID.TID 0000.0001)                     150
(PID.TID 0000.0001)     ;
(PID.TID 0000.0001)  diagCG_resTarget = /* residual target for diag_cg2d */
(PID.TID 0000.0001)                 1.000000000000000E-07
(PID.TID 0000.0001)     ;
(PID.TID 0000.0001)  diagCG_pcOffDFac = /* preconditioner off-diagonal factor */
(PID.TID 0000.0001)                 9.611687812379854E-01
(PID.TID 0000.0001)     ;
(PID.TID 0000.0001) -----------------------------------------------------
(PID.TID 0000.0001)  DIAGNOSTICS_READPARMS: active diagnostics summary:
(PID.TID 0000.0001) -----------------------------------------------------
(PID.TID 0000.0001) Creating Output Stream: oceTAUX
(PID.TID 0000.0001) Output Frequency:      -3600.000000 ; Phase:        1800.000000
(PID.TID 0000.0001)  Averaging Freq.:          0.000000 , Phase:           0.000000 , Cycle:   1
(PID.TID 0000.0001)  missing value: -9.990000000000E+02
(PID.TID 0000.0001)  Levels:    will be set later
(PID.TID 0000.0001)  Fields:    oceTAUX
(PID.TID 0000.0001) Creating Output Stream: oceTAUY
(PID.TID 0000.0001) Output Frequency:      -3600.000000 ; Phase:        1800.000000
(PID.TID 0000.0001)  Averaging Freq.:          0.000000 , Phase:           0.000000 , Cycle:   1
(PID.TID 0000.0001)  missing value: -9.990000000000E+02
(PID.TID 0000.0001)  Levels:    will be set later
(PID.TID 0000.0001)  Fields:    oceTAUY
(PID.TID 0000.0001) Creating Output Stream: oceFWflx
(PID.TID 0000.0001) Output Frequency:      -3600.000000 ; Phase:        1800.000000
(PID.TID 0000.0001)  Averaging Freq.:          0.000000 , Phase:           0.000000 , Cycle:   1
(PID.TID 0000.0001)  missing value: -9.990000000000E+02
(PID.TID 0000.0001)  Levels:    will be set later
(PID.TID 0000.0001)  Fields:    oceFWflx
(PID.TID 0000.0001) Creating Output Stream: oceSflux
(PID.TID 0000.0001) Output Frequency:      -3600.000000 ; Phase:        1800.000000
(PID.TID 0000.0001)  Averaging Freq.:          0.000000 , Phase:           0.000000 , Cycle:   1
(PID.TID 0000.0001)  missing value: -9.990000000000E+02
(PID.TID 0000.0001)  Levels:    will be set later
(PID.TID 0000.0001)  Fields:    oceSflux
(PID.TID 0000.0001) Creating Output Stream: oceQnet
(PID.TID 0000.0001) Output Frequency:      -3600.000000 ; Phase:        1800.000000
(PID.TID 0000.0001)  Averaging Freq.:          0.000000 , Phase:           0.000000 , Cycle:   1
(PID.TID 0000.0001)  missing value: -9.990000000000E+02
(PID.TID 0000.0001)  Levels:    will be set later
(PID.TID 0000.0001)  Fields:    oceQnet
(PID.TID 0000.0001) Creating Output Stream: oceQsw
(PID.TID 0000.0001) Output Frequency:      -3600.000000 ; Phase:        1800.000000
(PID.TID 0000.0001)  Averaging Freq.:          0.000000 , Phase:           0.000000 , Cycle:   1
(PID.TID 0000.0001)  missing value: -9.990000000000E+02
(PID.TID 0000.0001)  Levels:    will be set later
(PID.TID 0000.0001)  Fields:    oceQsw
(PID.TID 0000.0001) Creating Output Stream: SSS
(PID.TID 0000.0001) Output Frequency:      -3600.000000 ; Phase:        1800.000000
(PID.TID 0000.0001)  Averaging Freq.:          0.000000 , Phase:           0.000000 , Cycle:   1
(PID.TID 0000.0001)  missing value: -9.990000000000E+02
(PID.TID 0000.0001)  Levels:       1.
(PID.TID 0000.0001)  Fields:    SALT
(PID.TID 0000.0001) Creating Output Stream: SST
(PID.TID 0000.0001) Output Frequency:      -3600.000000 ; Phase:        1800.000000
(PID.TID 0000.0001)  Averaging Freq.:          0.000000 , Phase:           0.000000 , Cycle:   1
(PID.TID 0000.0001)  missing value: -9.990000000000E+02
(PID.TID 0000.0001)  Levels:       1.
(PID.TID 0000.0001)  Fields:    THETA
(PID.TID 0000.0001) Creating Output Stream: UVEL1
(PID.TID 0000.0001) Output Frequency:      -3600.000000 ; Phase:        1800.000000
(PID.TID 0000.0001)  Averaging Freq.:          0.000000 , Phase:           0.000000 , Cycle:   1
(PID.TID 0000.0001)  missing value: -9.990000000000E+02
(PID.TID 0000.0001)  Levels:       1.
(PID.TID 0000.0001)  Fields:    UVELMASS
(PID.TID 0000.0001) Creating Output Stream: VVEL1
(PID.TID 0000.0001) Output Frequency:      -3600.000000 ; Phase:        1800.000000
(PID.TID 0000.0001)  Averaging Freq.:          0.000000 , Phase:           0.000000 , Cycle:   1
(PID.TID 0000.0001)  missing value: -9.990000000000E+02
(PID.TID 0000.0001)  Levels:       1.
(PID.TID 0000.0001)  Fields:    VVELMASS
(PID.TID 0000.0001) -----------------------------------------------------
(PID.TID 0000.0001)  DIAGNOSTICS_READPARMS: statistics diags. summary:
(PID.TID 0000.0001) -----------------------------------------------------
(PID.TID 0000.0001) 
(PID.TID 0000.0001) SET_PARMS: done
(PID.TID 0000.0001) Enter INI_VERTICAL_GRID: setInterFDr=    T ; setCenterDr=    F
(PID.TID 0000.0001) tile:   1 ; Read from file grid_cs32.face001.bin
(PID.TID 0000.0001)   => xC yC dxF dyF rA xG yG dxV dyU rAz dxC dyC rAw rAs dxG dyG AngleCS AngleSN
(PID.TID 0000.0001) %MON XC_max                       =   1.7854351589505E+02
(PID.TID 0000.0001) %MON XC_min                       =  -1.7854351589505E+02
(PID.TID 0000.0001) %MON XC_mean                      =  -4.6999441375798E-15
(PID.TID 0000.0001) %MON XC_sd                        =   1.0355545336287E+02
(PID.TID 0000.0001) %MON XG_max                       =   1.8000000000000E+02
(PID.TID 0000.0001) %MON XG_min                       =  -1.7708797161002E+02
(PID.TID 0000.0001) %MON XG_mean                      =   1.8603515625000E+00
(PID.TID 0000.0001) %MON XG_sd                        =   1.0357130300504E+02
(PID.TID 0000.0001) %MON DXC_max                      =   3.2375185836900E+05
(PID.TID 0000.0001) %MON DXC_min                      =   1.1142031410131E+05
(PID.TID 0000.0001) %MON DXC_mean                     =   2.8605689051214E+05
(PID.TID 0000.0001) %MON DXC_sd                       =   3.4042087138252E+04
(PID.TID 0000.0001) %MON DXF_max                      =   3.2369947500827E+05
(PID.TID 0000.0001) %MON DXF_min                      =   1.2020820513318E+05
(PID.TID 0000.0001) %MON DXF_mean                     =   2.8605437324820E+05
(PID.TID 0000.0001) %MON DXF_sd                       =   3.4050524252539E+04
(PID.TID 0000.0001) %MON DXG_max                      =   3.2375195872773E+05
(PID.TID 0000.0001) %MON DXG_min                      =   1.0098378008791E+05
(PID.TID 0000.0001) %MON DXG_mean                     =   2.8603818508931E+05
(PID.TID 0000.0001) %MON DXG_sd                       =   3.4140406908005E+04
(PID.TID 0000.0001) %MON DXV_max                      =   3.2380418162750E+05
(PID.TID 0000.0001) %MON DXV_min                      =   8.0152299824136E+04
(PID.TID 0000.0001) %MON DXV_mean                     =   2.8603970633619E+05
(PID.TID 0000.0001) %MON DXV_sd                       =   3.4145142117723E+04
(PID.TID 0000.0001) %MON YC_max                       =   8.7940663871962E+01
(PID.TID 0000.0001) %MON YC_min                       =  -8.7940663871962E+01
(PID.TID 0000.0001) %MON YC_mean                      =   0.0000000000000E+00
(PID.TID 0000.0001) %MON YC_sd                        =   3.8676242969072E+01
(PID.TID 0000.0001) %MON YG_max                       =   9.0000000000000E+01
(PID.TID 0000.0001) %MON YG_min                       =  -9.0000000000000E+01
(PID.TID 0000.0001) %MON YG_mean                      =  -1.1842378929335E-15
(PID.TID 0000.0001) %MON YG_sd                        =   3.8676895860710E+01
(PID.TID 0000.0001) %MON DYC_max                      =   3.2375185836900E+05
(PID.TID 0000.0001) %MON DYC_min                      =   1.1142031410131E+05
(PID.TID 0000.0001) %MON DYC_mean                     =   2.8605689051214E+05
(PID.TID 0000.0001) %MON DYC_sd                       =   3.4042087138252E+04
(PID.TID 0000.0001) %MON DYF_max                      =   3.2369947500827E+05
(PID.TID 0000.0001) %MON DYF_min                      =   1.2020820513318E+05
(PID.TID 0000.0001) %MON DYF_mean                     =   2.8605437324820E+05
(PID.TID 0000.0001) %MON DYF_sd                       =   3.4050524252539E+04
(PID.TID 0000.0001) %MON DYG_max                      =   3.2375195872773E+05
(PID.TID 0000.0001) %MON DYG_min                      =   1.0098378008791E+05
(PID.TID 0000.0001) %MON DYG_mean                     =   2.8603818508931E+05
(PID.TID 0000.0001) %MON DYG_sd                       =   3.4140406908005E+04
(PID.TID 0000.0001) %MON DYU_max                      =   3.2380418162750E+05
(PID.TID 0000.0001) %MON DYU_min                      =   8.0152299824136E+04
(PID.TID 0000.0001) %MON DYU_mean                     =   2.8603970633619E+05
(PID.TID 0000.0001) %MON DYU_sd                       =   3.4145142117723E+04
(PID.TID 0000.0001) %MON RA_max                       =   1.0479260248419E+11
(PID.TID 0000.0001) %MON RA_min                       =   1.4019007022556E+10
(PID.TID 0000.0001) %MON RA_mean                      =   8.2992246709265E+10
(PID.TID 0000.0001) %MON RA_sd                        =   1.7509089299457E+10
(PID.TID 0000.0001) %MON RAW_max                      =   1.0480965274559E+11
(PID.TID 0000.0001) %MON RAW_min                      =   1.2166903467143E+10
(PID.TID 0000.0001) %MON RAW_mean                     =   8.2992246709235E+10
(PID.TID 0000.0001) %MON RAW_sd                       =   1.7481917919656E+10
(PID.TID 0000.0001) %MON RAS_max                      =   1.0480965274559E+11
(PID.TID 0000.0001) %MON RAS_min                      =   1.2166903467143E+10
(PID.TID 0000.0001) %MON RAS_mean                     =   8.2992246709235E+10
(PID.TID 0000.0001) %MON RAS_sd                       =   1.7481917919656E+10
(PID.TID 0000.0001) %MON RAZ_max                      =   1.0484349334619E+11
(PID.TID 0000.0001) %MON RAZ_min                      =   8.8317900612505E+09
(PID.TID 0000.0001) %MON RAZ_mean                     =   8.2992246709235E+10
(PID.TID 0000.0001) %MON RAZ_sd                       =   1.7482297311044E+10
(PID.TID 0000.0001) %MON AngleCS_max                  =   9.9999994756719E-01
(PID.TID 0000.0001) %MON AngleCS_min                  =  -9.9968286884824E-01
(PID.TID 0000.0001) %MON AngleCS_mean                 =   3.3078922539000E-01
(PID.TID 0000.0001) %MON AngleCS_sd                   =   6.2496278958502E-01
(PID.TID 0000.0001) %MON AngleSN_max                  =   9.9968286884824E-01
(PID.TID 0000.0001) %MON AngleSN_min                  =  -9.9999994756719E-01
(PID.TID 0000.0001) %MON AngleSN_mean                 =  -3.3078922539000E-01
(PID.TID 0000.0001) %MON AngleSN_sd                   =   6.2496278958502E-01
(PID.TID 0000.0001)  MDS_READ_FIELD: opening global file: bathy_Hmin50.bin
(PID.TID 0000.0001) // =======================================================
(PID.TID 0000.0001) // Field Model R_low (ini_masks_etc)
(PID.TID 0000.0001) // CMIN =         -5.200000000000000E+03
(PID.TID 0000.0001) // CMAX =         -5.000000000000000E+01
(PID.TID 0000.0001) // CINT =          1.907407407407407E+02
(PID.TID 0000.0001) // SYMBOLS (CMIN->CMAX): -abcdefghijklmnopqrstuvwxyz+
(PID.TID 0000.0001) //                  0.0: .
(PID.TID 0000.0001) // RANGE I (Lo:Hi:Step):(    -3:    36:     1)
(PID.TID 0000.0001) // RANGE J (Lo:Hi:Step):(    36:    -3:    -1)
(PID.TID 0000.0001) // RANGE K (Lo:Hi:Step):(   1:   1:   1)
(PID.TID 0000.0001) // =======================================================
(PID.TID 0000.0001) K =   1
(PID.TID 0000.0001) //                I=6       I=16      I=26      I=36
(PID.TID 0000.0001) // |--J--|321012345|789012345|789012345|789012345|
(PID.TID 0000.0001) //     36 cbbc-ddcbcdehkhhmn..++..................
(PID.TID 0000.0001) //     35 dcac--cbbeefjkfefw+..........zpu........
(PID.TID 0000.0001) //     34 d--ba-abcehjnldcclz+........spps........
(PID.TID 0000.0001) //     33 --abbbccceiomkfdbbc+.......+s...........
(PID.TID 0000.0001) //     32 --bddefhhkqqlgfaakqz..v.+..+............
(PID.TID 0000.0001) //     31 abbcffijnpnqneaaat..umrr+s.z............
(PID.TID 0000.0001) //     30 --adgillkkkifcadcx.ymmqzqikvnnps........
(PID.TID 0000.0001) //     29 --cfiljigfjd--efdozy...+ximpnnuz........
(PID.TID 0000.0001) //     28 -abgkhfcccea-bdei........t..............
(PID.TID 0000.0001) //     27 -acghfbaaaa-achmy......................+
(PID.TID 0000.0001) //     26 -adhfca-----bfiv.......................+
(PID.TID 0000.0001) //     25 -achfa------ch+..................w......
(PID.TID 0000.0001) //     24 aaeifa--acbcei...................w......
(PID.TID 0000.0001) //     23 abfida-aabchjk...................zz.....
(PID.TID 0000.0001) //     22 -afhfaa---bfgi....................zz..rn
(PID.TID 0000.0001) //     21 babcgca----abe.....................ysstl
(PID.TID 0000.0001) //     20 fbbbcgfcaa-aae+.......................lc
(PID.TID 0000.0001) //     19 zmfeccdghfeegcbt......................aa
(PID.TID 0000.0001) //     18 ..wifedfkhfegbbcivlqfoz..............jaa
(PID.TID 0000.0001) //     17 ..+wfeefikhgcbbccaaacgn.............icaa
(PID.TID 0000.0001) //     16 ....wiheddeccdfhfbabdfl............jdbad
(PID.TID 0000.0001) //     15 ......ylea--acfihebcbbes..........sfcbbn
(PID.TID 0000.0001) //     14 ........c---acgkhdcc--di..........ofddch
(PID.TID 0000.0001) //     13 .......+b----cfkhec---afz.........nhfdff
(PID.TID 0000.0001) //     12 .......ec----chjhec---ag..........skiqdd
(PID.TID 0000.0001) //     11 ......pdca--achlheba--ai..........nkn.fd
(PID.TID 0000.0001) //     10 ......wfdb--achlhea---an.........uos..dc
(PID.TID 0000.0001) //      9 ......vgec---bfikca--cjl+.......+nnv.+cc
(PID.TID 0000.0001) //      8 .....zleca---afjfca--hdfz.......vkky.jce
(PID.TID 0000.0001) //      7 ...+zohec--abcfkhecbchbdx.......qiht.faa
(PID.TID 0000.0001) //      6 ..+yomfddcaabefkifdchaadt......uqdeisc--
(PID.TID 0000.0001) //      5 ..+nhgffkghccfhkhffgdaackz....uoibcimlaa
(PID.TID 0000.0001) //      4 .+ujhgfllfhdffhkfffca-aady...llnabdopfcb
(PID.TID 0000.0001) //      3 +vjggfcceeffffjlkjgaa---bfvheeln-aesphfd
(PID.TID 0000.0001) //      2 qifeecbbccddefilihecbaacbaajfega-aesqhff
(PID.TID 0000.0001) //      1 ebbbbaaaaaccdfhlhfefdcccaabjefbaaafonhgl
(PID.TID 0000.0001) //      0 -aaaaaaa-aacccfikkhecccbbbaaabaadfkllilm
(PID.TID 0000.0001) //     -1 --aaaaa----aacffiljgfffcca--adfikkiikimi
(PID.TID 0000.0001) //     -2 --aaa-------acdefinmlgiieb-chnnnmlmlfklk
(PID.TID 0000.0001) //     -3 a--a---aa---aedeegknmlgiigcdfhpokkimdkmk
(PID.TID 0000.0001) // =======================================================
(PID.TID 0000.0001) // END OF FIELD                                          =
(PID.TID 0000.0001) // =======================================================
(PID.TID 0000.0001) 
(PID.TID 0000.0001) // =======================================================
(PID.TID 0000.0001) // Field Model Ro_surf (ini_masks_etc)
(PID.TID 0000.0001) // CMIN =          1.000000000000000E+32
(PID.TID 0000.0001) // CMAX =         -1.000000000000000E+32
(PID.TID 0000.0001) // CINT =          0.000000000000000E+00
(PID.TID 0000.0001) // SYMBOLS (CMIN->CMAX): -abcdefghijklmnopqrstuvwxyz+
(PID.TID 0000.0001) //                  0.0: .
(PID.TID 0000.0001) // RANGE I (Lo:Hi:Step):(    -3:    36:     1)
(PID.TID 0000.0001) // RANGE J (Lo:Hi:Step):(    36:    -3:    -1)
(PID.TID 0000.0001) // RANGE K (Lo:Hi:Step):(   1:   1:   1)
(PID.TID 0000.0001) // =======================================================
(PID.TID 0000.0001) // =======================================================
(PID.TID 0000.0001) // END OF FIELD                                          =
(PID.TID 0000.0001) // =======================================================
(PID.TID 0000.0001) 
(PID.TID 0000.0001) // =======================================================
(PID.TID 0000.0001) // Field hFacC at iteration          0
(PID.TID 0000.0001) // CMIN =          1.000000000000000E+00
(PID.TID 0000.0001) // CMAX =          1.000000000000000E+00
(PID.TID 0000.0001) // CINT =          0.000000000000000E+00
(PID.TID 0000.0001) // SYMBOLS (CMIN->CMAX): -abcdefghijklmnopqrstuvwxyz+
(PID.TID 0000.0001) //                  0.0: .
(PID.TID 0000.0001) // RANGE I (Lo:Hi:Step):(    -3:    36:     1)
(PID.TID 0000.0001) // RANGE J (Lo:Hi:Step):(    36:    -3:    -1)
(PID.TID 0000.0001) // RANGE K (Lo:Hi:Step):(   1:   1:   1)
(PID.TID 0000.0001) // =======================================================
(PID.TID 0000.0001) // =======================================================
(PID.TID 0000.0001) // END OF FIELD                                          =
(PID.TID 0000.0001) // =======================================================
(PID.TID 0000.0001) 
(PID.TID 0000.0001) // =======================================================
(PID.TID 0000.0001) // Field hFacW at iteration          0
(PID.TID 0000.0001) // CMIN =          1.000000000000000E+00
(PID.TID 0000.0001) // CMAX =          1.000000000000000E+00
(PID.TID 0000.0001) // CINT =          0.000000000000000E+00
(PID.TID 0000.0001) // SYMBOLS (CMIN->CMAX): -abcdefghijklmnopqrstuvwxyz+
(PID.TID 0000.0001) //                  0.0: .
(PID.TID 0000.0001) // RANGE I (Lo:Hi:Step):(    -3:    36:     1)
(PID.TID 0000.0001) // RANGE J (Lo:Hi:Step):(    36:    -3:    -1)
(PID.TID 0000.0001) // RANGE K (Lo:Hi:Step):(   1:   1:   1)
(PID.TID 0000.0001) // =======================================================
(PID.TID 0000.0001) // =======================================================
(PID.TID 0000.0001) // END OF FIELD                                          =
(PID.TID 0000.0001) // =======================================================
(PID.TID 0000.0001) 
(PID.TID 0000.0001) // =======================================================
(PID.TID 0000.0001) // Field hFacS at iteration          0
(PID.TID 0000.0001) // CMIN =          1.000000000000000E+00
(PID.TID 0000.0001) // CMAX =          1.000000000000000E+00
(PID.TID 0000.0001) // CINT =          0.000000000000000E+00
(PID.TID 0000.0001) // SYMBOLS (CMIN->CMAX): -abcdefghijklmnopqrstuvwxyz+
(PID.TID 0000.0001) //                  0.0: .
(PID.TID 0000.0001) // RANGE I (Lo:Hi:Step):(    -3:    36:     1)
(PID.TID 0000.0001) // RANGE J (Lo:Hi:Step):(    36:    -3:    -1)
(PID.TID 0000.0001) // RANGE K (Lo:Hi:Step):(   1:   1:   1)
(PID.TID 0000.0001) // =======================================================
(PID.TID 0000.0001) // =======================================================
(PID.TID 0000.0001) // END OF FIELD                                          =
(PID.TID 0000.0001) // =======================================================
(PID.TID 0000.0001) 
(PID.TID 0000.0001) GAD_INIT_FIXED: GAD_OlMinSize=  1  0  1
(PID.TID 0000.0001) 
(PID.TID 0000.0001) // ===================================
(PID.TID 0000.0001) // GAD parameters :
(PID.TID 0000.0001) // ===================================
(PID.TID 0000.0001) tempAdvScheme =   /* Temp. Horiz.Advection scheme selector */
(PID.TID 0000.0001)                       2
(PID.TID 0000.0001)     ;
(PID.TID 0000.0001) tempVertAdvScheme =   /* Temp. Vert. Advection scheme selector */
(PID.TID 0000.0001)                       2
(PID.TID 0000.0001)     ;
(PID.TID 0000.0001) tempMultiDimAdvec =   /* use Muti-Dim Advec method for Temp */
(PID.TID 0000.0001)                   F
(PID.TID 0000.0001)     ;
(PID.TID 0000.0001) tempSOM_Advection = /* use 2nd Order Moment Advection for Temp */
(PID.TID 0000.0001)                   F
(PID.TID 0000.0001)     ;
(PID.TID 0000.0001) AdamsBashforthGt = /* apply Adams-Bashforth extrapolation on Gt */
(PID.TID 0000.0001)                   T
(PID.TID 0000.0001)     ;
(PID.TID 0000.0001) AdamsBashforth_T = /* apply Adams-Bashforth extrapolation on Temp */
(PID.TID 0000.0001)                   F
(PID.TID 0000.0001)     ;
(PID.TID 0000.0001) saltAdvScheme =   /* Salt. Horiz.advection scheme selector */
(PID.TID 0000.0001)                       2
(PID.TID 0000.0001)     ;
(PID.TID 0000.0001) saltVertAdvScheme =   /* Salt. Vert. Advection scheme selector */
(PID.TID 0000.0001)                       2
(PID.TID 0000.0001)     ;
(PID.TID 0000.0001) saltMultiDimAdvec =   /* use Muti-Dim Advec method for Salt */
(PID.TID 0000.0001)                   F
(PID.TID 0000.0001)     ;
(PID.TID 0000.0001) saltSOM_Advection = /* use 2nd Order Moment Advection for Salt */
(PID.TID 0000.0001)                   F
(PID.TID 0000.0001)     ;
(PID.TID 0000.0001) AdamsBashforthGs = /* apply Adams-Bashforth extrapolation on Gs */
(PID.TID 0000.0001)                   T
(PID.TID 0000.0001)     ;
(PID.TID 0000.0001) AdamsBashforth_S = /* apply Adams-Bashforth extrapolation on Salt */
(PID.TID 0000.0001)                   F
(PID.TID 0000.0001)     ;
(PID.TID 0000.0001) // ===================================
(PID.TID 0000.0001) ------------------------------------------------------------
(PID.TID 0000.0001) DIAGNOSTICS_SET_LEVELS: done
(PID.TID 0000.0001)  Total Nb of available Diagnostics: ndiagt=   215
(PID.TID 0000.0001)  write list of available Diagnostics to file: available_diagnostics.log
(PID.TID 0000.0001) SETDIAG: Allocate  1 x  1 Levels for Diagnostic #    81 oceTAUX
(PID.TID 0000.0001) SETDIAG: Allocate  1 x  1 Levels for Diagnostic #    82 oceTAUY
(PID.TID 0000.0001) SETDIAG: Allocate  1 x  1 Levels for Diagnostic #    85 oceFWflx
(PID.TID 0000.0001) SETDIAG: Allocate  1 x  1 Levels for Diagnostic #    86 oceSflux
(PID.TID 0000.0001) SETDIAG: Allocate  1 x  1 Levels for Diagnostic #    87 oceQnet
(PID.TID 0000.0001) SETDIAG: Allocate  1 x  1 Levels for Diagnostic #    88 oceQsw
(PID.TID 0000.0001) SETDIAG: Allocate 15 x  1 Levels for Diagnostic #    27 SALT
(PID.TID 0000.0001) SETDIAG: Allocate 15 x  1 Levels for Diagnostic #    26 THETA
(PID.TID 0000.0001) SETDIAG: Allocate 15 x  1 Levels for Diagnostic #    45 UVELMASS
(PID.TID 0000.0001) SETDIAG: Allocate 15 x  1 Levels for Diagnostic #    46 VVELMASS
(PID.TID 0000.0001)   space allocated for all diagnostics:      66 levels
(PID.TID 0000.0001)   set mate pointer for diag #    81  oceTAUX  , Parms: UU      U1 , mate:    82
(PID.TID 0000.0001)   set mate pointer for diag #    82  oceTAUY  , Parms: VV      U1 , mate:    81
(PID.TID 0000.0001)   set mate pointer for diag #    45  UVELMASS , Parms: UUr     MR , mate:    46
(PID.TID 0000.0001)   set mate pointer for diag #    46  VVELMASS , Parms: VVr     MR , mate:    45
(PID.TID 0000.0001) DIAGNOSTICS_SET_POINTERS: Set levels for Outp.Stream: oceTAUX
(PID.TID 0000.0001)  Levels:       1.
(PID.TID 0000.0001) DIAGNOSTICS_SET_POINTERS: Set levels for Outp.Stream: oceTAUY
(PID.TID 0000.0001)  Levels:       1.
(PID.TID 0000.0001) DIAGNOSTICS_SET_POINTERS: Set levels for Outp.Stream: oceFWflx
(PID.TID 0000.0001)  Levels:       1.
(PID.TID 0000.0001) DIAGNOSTICS_SET_POINTERS: Set levels for Outp.Stream: oceSflux
(PID.TID 0000.0001)  Levels:       1.
(PID.TID 0000.0001) DIAGNOSTICS_SET_POINTERS: Set levels for Outp.Stream: oceQnet
(PID.TID 0000.0001)  Levels:       1.
(PID.TID 0000.0001) DIAGNOSTICS_SET_POINTERS: Set levels for Outp.Stream: oceQsw
(PID.TID 0000.0001)  Levels:       1.
(PID.TID 0000.0001) DIAGNOSTICS_SET_POINTERS: done
(PID.TID 0000.0001) ------------------------------------------------------------
(PID.TID 0000.0001) DIAGSTATS_SET_REGIONS: define   0 regions:
(PID.TID 0000.0001) ------------------------------------------------------------
(PID.TID 0000.0001)   space allocated for all stats-diags:       0 levels
(PID.TID 0000.0001) DIAGSTATS_SET_POINTERS: done
(PID.TID 0000.0001) ------------------------------------------------------------
(PID.TID 0000.0001) INI_GLOBAL_DOMAIN: Found  19 CS-corner Pts in the domain
(PID.TID 0000.0001) %MON fCori_max                    =   1.4574827780704E-04
(PID.TID 0000.0001) %MON fCori_min                    =  -1.4574827780704E-04
(PID.TID 0000.0001) %MON fCori_mean                   =   0.0000000000000E+00
(PID.TID 0000.0001) %MON fCori_sd                     =   8.4202189509968E-05
(PID.TID 0000.0001) %MON fCoriG_max                   =   1.4584247033981E-04
(PID.TID 0000.0001) %MON fCoriG_min                   =  -1.4584247033981E-04
(PID.TID 0000.0001) %MON fCoriG_mean                  =   2.2587545260115E-21
(PID.TID 0000.0001) %MON fCoriG_sd                    =   8.4202189509968E-05
(PID.TID 0000.0001) %MON fCoriCos_max                 =   1.4580166994612E-04
(PID.TID 0000.0001) %MON fCoriCos_min                 =   5.2407700865903E-06
(PID.TID 0000.0001) %MON fCoriCos_mean                =   1.1514045869113E-04
(PID.TID 0000.0001) %MON fCoriCos_sd                  =   3.0375849106513E-05
(PID.TID 0000.0001) INI_CG2D: CG2D normalisation factor =  1.9156564154949553E-04
(PID.TID 0000.0001) 
(PID.TID 0000.0001) // =======================================================
(PID.TID 0000.0001) // Model configuration
(PID.TID 0000.0001) // =======================================================
(PID.TID 0000.0001) //
(PID.TID 0000.0001) // "Physical" paramters ( PARM01 in namelist )
(PID.TID 0000.0001) //
(PID.TID 0000.0001) buoyancyRelation = /* Type of relation to get Buoyancy */
(PID.TID 0000.0001)               'OCEANIC'
(PID.TID 0000.0001)     ;
(PID.TID 0000.0001) fluidIsAir   =  /* fluid major constituent is Air */
(PID.TID 0000.0001)                   F
(PID.TID 0000.0001)     ;
(PID.TID 0000.0001) fluidIsWater =  /* fluid major constituent is Water */
(PID.TID 0000.0001)                   T
(PID.TID 0000.0001)     ;
(PID.TID 0000.0001) usingPCoords =  /* use p (or p*) vertical coordinate */
(PID.TID 0000.0001)                   F
(PID.TID 0000.0001)     ;
(PID.TID 0000.0001) usingZCoords =  /* use z (or z*) vertical coordinate */
(PID.TID 0000.0001)                   T
(PID.TID 0000.0001)     ;
(PID.TID 0000.0001) tRef =   /* Reference temperature profile ( oC or K ) */
(PID.TID 0000.0001)    15 @  2.000000000000000E+01              /* K =  1: 15 */
(PID.TID 0000.0001)     ;
(PID.TID 0000.0001) sRef =   /* Reference salinity profile ( psu ) */
(PID.TID 0000.0001)    15 @  3.500000000000000E+01              /* K =  1: 15 */
(PID.TID 0000.0001)     ;
(PID.TID 0000.0001) useStrainTensionVisc= /* Use StrainTension Form of Viscous Operator */
(PID.TID 0000.0001)                   F
(PID.TID 0000.0001)     ;
(PID.TID 0000.0001) useVariableVisc = /* Use variable horizontal viscosity */
(PID.TID 0000.0001)                   F
(PID.TID 0000.0001)     ;
(PID.TID 0000.0001) useHarmonicVisc = /* Use harmonic horizontal viscosity */
(PID.TID 0000.0001)                   T
(PID.TID 0000.0001)     ;
(PID.TID 0000.0001) useBiharmonicVisc= /* Use biharmonic horiz.  viscosity */
(PID.TID 0000.0001)                   F
(PID.TID 0000.0001)     ;
(PID.TID 0000.0001) useSmag3D = /* Use isotropic 3-D Smagorinsky viscosity */
(PID.TID 0000.0001)                   F
(PID.TID 0000.0001)     ;
(PID.TID 0000.0001) viscAh  =   /* Lateral harmonic viscosity ( m^2/s ) */
(PID.TID 0000.0001)                 3.000000000000000E+05
(PID.TID 0000.0001)     ;
(PID.TID 0000.0001) viscA4  =   /* Lateral biharmonic viscosity ( m^4/s ) */
(PID.TID 0000.0001)                 0.000000000000000E+00
(PID.TID 0000.0001)     ;
(PID.TID 0000.0001) no_slip_sides =  /* Viscous BCs: No-slip sides */
(PID.TID 0000.0001)                   T
(PID.TID 0000.0001)     ;
(PID.TID 0000.0001) sideDragFactor = /* side-drag scaling factor (non-dim) */
(PID.TID 0000.0001)                 2.000000000000000E+00
(PID.TID 0000.0001)     ;
(PID.TID 0000.0001) viscArNr = /* vertical profile of vertical viscosity ( m^2/s )*/
(PID.TID 0000.0001)    15 @  1.000000000000000E-03              /* K =  1: 15 */
(PID.TID 0000.0001)     ;
(PID.TID 0000.0001) no_slip_bottom =  /* Viscous BCs: No-slip bottom */
(PID.TID 0000.0001)                   T
(PID.TID 0000.0001)     ;
(PID.TID 0000.0001) bottomVisc_pCell = /* Partial-cell in bottom Visc. BC */
(PID.TID 0000.0001)                   F
(PID.TID 0000.0001)     ;
(PID.TID 0000.0001) bottomDragLinear = /* linear bottom-drag coefficient ( m/s ) */
(PID.TID 0000.0001)                 0.000000000000000E+00
(PID.TID 0000.0001)     ;
(PID.TID 0000.0001) bottomDragQuadratic = /* quadratic bottom-drag coefficient (-) */
(PID.TID 0000.0001)                 0.000000000000000E+00
(PID.TID 0000.0001)     ;
(PID.TID 0000.0001) selectBotDragQuadr = /* select quadratic bottom drag options */
(PID.TID 0000.0001)                      -1
(PID.TID 0000.0001)     ;
(PID.TID 0000.0001) diffKhT =   /* Laplacian diffusion of heat laterally ( m^2/s ) */
(PID.TID 0000.0001)                 0.000000000000000E+00
(PID.TID 0000.0001)     ;
(PID.TID 0000.0001) diffK4T =   /* Biharmonic diffusion of heat laterally ( m^4/s ) */
(PID.TID 0000.0001)                 0.000000000000000E+00
(PID.TID 0000.0001)     ;
(PID.TID 0000.0001) diffKhS =   /* Laplacian diffusion of salt laterally ( m^2/s ) */
(PID.TID 0000.0001)                 0.000000000000000E+00
(PID.TID 0000.0001)     ;
(PID.TID 0000.0001) diffK4S =   /* Biharmonic diffusion of salt laterally ( m^4/s ) */
(PID.TID 0000.0001)                 0.000000000000000E+00
(PID.TID 0000.0001)     ;
(PID.TID 0000.0001) diffKrNrT = /* vertical profile of vertical diffusion of Temp ( m^2/s )*/
(PID.TID 0000.0001)    15 @  3.000000000000000E-05              /* K =  1: 15 */
(PID.TID 0000.0001)     ;
(PID.TID 0000.0001) diffKrNrS = /* vertical profile of vertical diffusion of Salt ( m^2/s )*/
(PID.TID 0000.0001)    15 @  3.000000000000000E-05              /* K =  1: 15 */
(PID.TID 0000.0001)     ;
(PID.TID 0000.0001) diffKrBL79surf = /* Surface diffusion for Bryan and Lewis 79 ( m^2/s ) */
(PID.TID 0000.0001)                 0.000000000000000E+00
(PID.TID 0000.0001)     ;
(PID.TID 0000.0001) diffKrBL79deep = /* Deep diffusion for Bryan and Lewis 1979 ( m^2/s ) */
(PID.TID 0000.0001)                 0.000000000000000E+00
(PID.TID 0000.0001)     ;
(PID.TID 0000.0001) diffKrBL79scl = /* Depth scale for Bryan and Lewis 1979 ( m ) */
(PID.TID 0000.0001)                 2.000000000000000E+02
(PID.TID 0000.0001)     ;
(PID.TID 0000.0001) diffKrBL79Ho = /* Turning depth for Bryan and Lewis 1979 ( m ) */
(PID.TID 0000.0001)                -2.000000000000000E+03
(PID.TID 0000.0001)     ;
(PID.TID 0000.0001) ivdc_kappa = /* Implicit Vertical Diffusivity for Convection ( m^2/s) */
(PID.TID 0000.0001)                 1.000000000000000E+01
(PID.TID 0000.0001)     ;
(PID.TID 0000.0001) hMixCriteria=  /* Criteria for mixed-layer diagnostic */
(PID.TID 0000.0001)                -8.000000000000000E-01
(PID.TID 0000.0001)     ;
(PID.TID 0000.0001) dRhoSmall =  /* Parameter for mixed-layer diagnostic */
(PID.TID 0000.0001)                 1.000000000000000E-06
(PID.TID 0000.0001)     ;
(PID.TID 0000.0001) hMixSmooth=  /* Smoothing parameter for mixed-layer diagnostic */
(PID.TID 0000.0001)                 0.000000000000000E+00
(PID.TID 0000.0001)     ;
(PID.TID 0000.0001) eosType =  /* Type of Equation of State */
(PID.TID 0000.0001)               'JMD95Z'
(PID.TID 0000.0001)     ;
(PID.TID 0000.0001) selectP_inEOS_Zc = /* select pressure to use in EOS (0,1,2,3) */
(PID.TID 0000.0001)                       0
(PID.TID 0000.0001)     0= -g*rhoConst*z ; 1= pRef (from tRef,sRef); 2= Hyd P ; 3= Hyd+NH P
(PID.TID 0000.0001)     ;
(PID.TID 0000.0001) HeatCapacity_Cp =  /* Specific heat capacity ( J/kg/K ) */
(PID.TID 0000.0001)                 3.994000000000000E+03
(PID.TID 0000.0001)     ;
(PID.TID 0000.0001) celsius2K = /* 0 degree Celsius converted to Kelvin ( K ) */
(PID.TID 0000.0001)                 2.731500000000000E+02
(PID.TID 0000.0001)     ;
(PID.TID 0000.0001) rhoConst  = /* Reference density (Boussinesq)  ( kg/m^3 ) */
(PID.TID 0000.0001)                 1.035000000000000E+03
(PID.TID 0000.0001)     ;
(PID.TID 0000.0001) rhoFacC = /* normalized Reference density @ cell-Center (-) */
(PID.TID 0000.0001)    15 @  1.000000000000000E+00              /* K =  1: 15 */
(PID.TID 0000.0001)     ;
(PID.TID 0000.0001) rhoFacF = /* normalized Reference density @ W-Interface (-) */
(PID.TID 0000.0001)    16 @  1.000000000000000E+00              /* K =  1: 16 */
(PID.TID 0000.0001)     ;
(PID.TID 0000.0001) rhoConstFresh = /* Fresh-water reference density ( kg/m^3 ) */
(PID.TID 0000.0001)                 1.000000000000000E+03
(PID.TID 0000.0001)     ;
(PID.TID 0000.0001) gravity =   /* Gravitational acceleration ( m/s^2 ) */
(PID.TID 0000.0001)                 9.810000000000000E+00
(PID.TID 0000.0001)     ;
(PID.TID 0000.0001) gBaro =   /* Barotropic gravity ( m/s^2 ) */
(PID.TID 0000.0001)                 9.810000000000000E+00
(PID.TID 0000.0001)     ;
(PID.TID 0000.0001) gravFacC = /* gravity factor (vs surf.) @ cell-Center (-) */
(PID.TID 0000.0001)    15 @  1.000000000000000E+00              /* K =  1: 15 */
(PID.TID 0000.0001)     ;
(PID.TID 0000.0001) gravFacF = /* gravity factor (vs surf.) @ W-Interface (-) */
(PID.TID 0000.0001)    16 @  1.000000000000000E+00              /* K =  1: 16 */
(PID.TID 0000.0001)     ;
(PID.TID 0000.0001) rotationPeriod =   /* Rotation Period ( s ) */
(PID.TID 0000.0001)                 8.616400000000000E+04
(PID.TID 0000.0001)     ;
(PID.TID 0000.0001) omega =   /* Angular velocity ( rad/s ) */
(PID.TID 0000.0001)                 7.292123516990375E-05
(PID.TID 0000.0001)     ;
(PID.TID 0000.0001) f0 =   /* Reference coriolis parameter ( 1/s ) */
(PID.TID 0000.0001)                 1.000000000000000E-04
(PID.TID 0000.0001)     ;
(PID.TID 0000.0001) beta =   /* Beta ( 1/(m.s) ) */
(PID.TID 0000.0001)                 9.999999999999999E-12
(PID.TID 0000.0001)     ;
(PID.TID 0000.0001) fPrime =   /* Second coriolis parameter ( 1/s ) */
(PID.TID 0000.0001)                 0.000000000000000E+00
(PID.TID 0000.0001)     ;
(PID.TID 0000.0001) rigidLid =   /* Rigid lid on/off flag */
(PID.TID 0000.0001)                   F
(PID.TID 0000.0001)     ;
(PID.TID 0000.0001) implicitFreeSurface =   /* Implicit free surface on/off flag */
(PID.TID 0000.0001)                   T
(PID.TID 0000.0001)     ;
(PID.TID 0000.0001) freeSurfFac =   /* Implicit free surface factor */
(PID.TID 0000.0001)                 1.000000000000000E+00
(PID.TID 0000.0001)     ;
(PID.TID 0000.0001) implicSurfPress =  /* Surface Pressure implicit factor (0-1)*/
(PID.TID 0000.0001)                 1.000000000000000E+00
(PID.TID 0000.0001)     ;
(PID.TID 0000.0001) implicDiv2DFlow =  /* Barot. Flow Div. implicit factor (0-1)*/
(PID.TID 0000.0001)                 1.000000000000000E+00
(PID.TID 0000.0001)     ;
(PID.TID 0000.0001) uniformLin_PhiSurf = /* use uniform Bo_surf on/off flag*/
(PID.TID 0000.0001)                   T
(PID.TID 0000.0001)     ;
(PID.TID 0000.0001) uniformFreeSurfLev = /* free-surface level-index is uniform */
(PID.TID 0000.0001)                   T
(PID.TID 0000.0001)     ;
(PID.TID 0000.0001) hFacMin =   /* minimum partial cell factor (hFac) */
(PID.TID 0000.0001)                 1.000000000000000E-01
(PID.TID 0000.0001)     ;
(PID.TID 0000.0001) hFacMinDr = /* minimum partial cell thickness ( m) */
(PID.TID 0000.0001)                 2.000000000000000E+01
(PID.TID 0000.0001)     ;
(PID.TID 0000.0001) exactConserv =  /* Exact Volume Conservation on/off flag*/
(PID.TID 0000.0001)                   T
(PID.TID 0000.0001)     ;
(PID.TID 0000.0001) linFSConserveTr = /* Tracer correction for Lin Free Surface on/off flag*/
(PID.TID 0000.0001)                   F
(PID.TID 0000.0001)     ;
(PID.TID 0000.0001) nonlinFreeSurf = /* Non-linear Free Surf. options (-1,0,1,2,3)*/
(PID.TID 0000.0001)                       4
(PID.TID 0000.0001)      -1,0= Off ; 1,2,3= On, 2=+rescale gU,gV, 3=+update cg2d solv.
(PID.TID 0000.0001)     ;
(PID.TID 0000.0001) hFacInf =   /* lower threshold for hFac (nonlinFreeSurf only)*/
(PID.TID 0000.0001)                 2.000000000000000E-01
(PID.TID 0000.0001)     ;
(PID.TID 0000.0001) hFacSup =   /* upper threshold for hFac (nonlinFreeSurf only)*/
(PID.TID 0000.0001)                 2.000000000000000E+00
(PID.TID 0000.0001)     ;
(PID.TID 0000.0001) select_rStar = /* r* Vertical coord. options (=0 r coord.; >0 uses r*)*/
(PID.TID 0000.0001)                       2
(PID.TID 0000.0001)     ;
(PID.TID 0000.0001) useRealFreshWaterFlux = /* Real Fresh Water Flux on/off flag*/
(PID.TID 0000.0001)                   T
(PID.TID 0000.0001)     ;
(PID.TID 0000.0001) temp_EvPrRn = /* Temp. of Evap/Prec/R (UNSET=use local T)(oC)*/
(PID.TID 0000.0001)                 1.234567000000000E+05
(PID.TID 0000.0001)     ;
(PID.TID 0000.0001) salt_EvPrRn = /* Salin. of Evap/Prec/R (UNSET=use local S)(psu)*/
(PID.TID 0000.0001)                 0.000000000000000E+00
(PID.TID 0000.0001)     ;
(PID.TID 0000.0001) selectAddFluid = /* option for mass source/sink of fluid (=0: off) */
(PID.TID 0000.0001)                       0
(PID.TID 0000.0001)     ;
(PID.TID 0000.0001) temp_addMass = /* Temp. of addMass array (UNSET=use local T)(oC)*/
(PID.TID 0000.0001)                 1.234567000000000E+05
(PID.TID 0000.0001)     ;
(PID.TID 0000.0001) salt_addMass = /* Salin. of addMass array (UNSET=use local S)(psu)*/
(PID.TID 0000.0001)                 0.000000000000000E+00
(PID.TID 0000.0001)     ;
(PID.TID 0000.0001) use3Dsolver = /* use 3-D pressure solver on/off flag */
(PID.TID 0000.0001)                   F
(PID.TID 0000.0001)     ;
(PID.TID 0000.0001) nonHydrostatic =  /* Non-Hydrostatic on/off flag */
(PID.TID 0000.0001)                   F
(PID.TID 0000.0001)     ;
(PID.TID 0000.0001) nh_Am2 = /* Non-Hydrostatic terms scaling factor */
(PID.TID 0000.0001)                 1.000000000000000E+00
(PID.TID 0000.0001)     ;
(PID.TID 0000.0001) implicitNHPress = /* Non-Hyd Pressure implicit factor (0-1)*/
(PID.TID 0000.0001)                 1.000000000000000E+00
(PID.TID 0000.0001)     ;
(PID.TID 0000.0001) selectNHfreeSurf = /* Non-Hyd (free-)Surface option */
(PID.TID 0000.0001)                       0
(PID.TID 0000.0001)     ;
(PID.TID 0000.0001) quasiHydrostatic = /* Quasi-Hydrostatic on/off flag */
(PID.TID 0000.0001)                   F
(PID.TID 0000.0001)     ;
(PID.TID 0000.0001) calc_wVelocity = /* vertical velocity calculation on/off flag */
(PID.TID 0000.0001)                   T
(PID.TID 0000.0001)     ;
(PID.TID 0000.0001) momStepping =  /* Momentum equation on/off flag */
(PID.TID 0000.0001)                   T
(PID.TID 0000.0001)     ;
(PID.TID 0000.0001) vectorInvariantMomentum= /* Vector-Invariant Momentum on/off */
(PID.TID 0000.0001)                   T
(PID.TID 0000.0001)     ;
(PID.TID 0000.0001) momAdvection =  /* Momentum advection on/off flag */
(PID.TID 0000.0001)                   T
(PID.TID 0000.0001)     ;
(PID.TID 0000.0001) momViscosity =  /* Momentum viscosity on/off flag */
(PID.TID 0000.0001)                   T
(PID.TID 0000.0001)     ;
(PID.TID 0000.0001) momImplVertAdv= /* Momentum implicit vert. advection on/off*/
(PID.TID 0000.0001)                   F
(PID.TID 0000.0001)     ;
(PID.TID 0000.0001) implicitViscosity = /* Implicit viscosity on/off flag */
(PID.TID 0000.0001)                   F
(PID.TID 0000.0001)     ;
(PID.TID 0000.0001) selectImplicitDrag= /* Implicit bot Drag options (0,1,2)*/
(PID.TID 0000.0001)                       0
(PID.TID 0000.0001)     0= Expl. ; 1= Impl. on provis. Vel ; 2= Fully Impl (with surf.P)
(PID.TID 0000.0001)     ;
(PID.TID 0000.0001) metricTerms =  /* metric-Terms on/off flag */
(PID.TID 0000.0001)                   F
(PID.TID 0000.0001)     ;
(PID.TID 0000.0001) useNHMTerms = /* Non-Hydrostatic Metric-Terms on/off */
(PID.TID 0000.0001)                   F
(PID.TID 0000.0001)     ;
(PID.TID 0000.0001) selectCoriMap = /* Coriolis Map options (0,1,2,3)*/
(PID.TID 0000.0001)                       2
(PID.TID 0000.0001)     0= f-Plane ; 1= Beta-Plane ; 2= Spherical ; 3= read from file
(PID.TID 0000.0001)     ;
(PID.TID 0000.0001) use3dCoriolis = /* 3-D Coriolis on/off flag */
(PID.TID 0000.0001)                   F
(PID.TID 0000.0001)     ;
(PID.TID 0000.0001) useCoriolis =  /* Coriolis on/off flag */
(PID.TID 0000.0001)                   T
(PID.TID 0000.0001)     ;
(PID.TID 0000.0001) useCDscheme =  /* CD scheme on/off flag */
(PID.TID 0000.0001)                   F
(PID.TID 0000.0001)     ;
(PID.TID 0000.0001) useEnergyConservingCoriolis= /* Flx-Form Coriolis scheme flag */
(PID.TID 0000.0001)                   F
(PID.TID 0000.0001)     ;
(PID.TID 0000.0001) useJamartWetPoints= /* Coriolis WetPoints method flag */
(PID.TID 0000.0001)                   F
(PID.TID 0000.0001)     ;
(PID.TID 0000.0001) useJamartMomAdv= /* V.I Non-linear terms Jamart flag */
(PID.TID 0000.0001)                   F
(PID.TID 0000.0001)     ;
(PID.TID 0000.0001) useAbsVorticity= /* V.I Works with f+zeta in Coriolis */
(PID.TID 0000.0001)                   F
(PID.TID 0000.0001)     ;
(PID.TID 0000.0001) selectVortScheme= /* V.I Scheme selector for Vorticity-Term */
(PID.TID 0000.0001)                       1
(PID.TID 0000.0001)    = 0 : enstrophy (Shallow-Water Eq.) conserving scheme by Sadourny, JAS 75
(PID.TID 0000.0001)    = 1 : same as 0 with modified hFac
(PID.TID 0000.0001)    = 2 : energy conserving scheme (used by Sadourny in JAS 75 paper)
(PID.TID 0000.0001)    = 3 : energy (general) and enstrophy (2D, nonDiv.) conserving scheme
(PID.TID 0000.0001)          from Sadourny (Burridge & Haseler, ECMWF Rep.4, 1977)
(PID.TID 0000.0001)     ;
(PID.TID 0000.0001) upwindVorticity= /* V.I Upwind bias vorticity flag */
(PID.TID 0000.0001)                   F
(PID.TID 0000.0001)     ;
(PID.TID 0000.0001) highOrderVorticity= /* V.I High order vort. advect. flag */
(PID.TID 0000.0001)                   F
(PID.TID 0000.0001)     ;
(PID.TID 0000.0001) upwindShear= /* V.I Upwind vertical Shear advection flag */
(PID.TID 0000.0001)                   F
(PID.TID 0000.0001)     ;
(PID.TID 0000.0001) selectKEscheme= /* V.I Kinetic Energy scheme selector */
(PID.TID 0000.0001)                       0
(PID.TID 0000.0001)     ;
(PID.TID 0000.0001) momForcing =  /* Momentum forcing on/off flag */
(PID.TID 0000.0001)                   T
(PID.TID 0000.0001)     ;
(PID.TID 0000.0001) momPressureForcing =  /* Momentum pressure term on/off flag */
(PID.TID 0000.0001)                   T
(PID.TID 0000.0001)     ;
(PID.TID 0000.0001) implicitIntGravWave= /* Implicit Internal Gravity Wave flag */
(PID.TID 0000.0001)                   F
(PID.TID 0000.0001)     ;
(PID.TID 0000.0001) staggerTimeStep =    /* Stagger time stepping on/off flag */
(PID.TID 0000.0001)                   T
(PID.TID 0000.0001)     ;
(PID.TID 0000.0001) doResetHFactors = /* reset thickness factors @ each time-step */
(PID.TID 0000.0001)                   F
(PID.TID 0000.0001)     ;
(PID.TID 0000.0001) multiDimAdvection =  /* enable/disable Multi-Dim Advection */
(PID.TID 0000.0001)                   T
(PID.TID 0000.0001)     ;
(PID.TID 0000.0001) useMultiDimAdvec =   /* Multi-Dim Advection is/is-not used */
(PID.TID 0000.0001)                   F
(PID.TID 0000.0001)     ;
(PID.TID 0000.0001) implicitDiffusion = /* Implicit Diffusion on/off flag */
(PID.TID 0000.0001)                   T
(PID.TID 0000.0001)     ;
(PID.TID 0000.0001) tempStepping =  /* Temperature equation on/off flag */
(PID.TID 0000.0001)                   T
(PID.TID 0000.0001)     ;
(PID.TID 0000.0001) tempAdvection = /* Temperature advection on/off flag */
(PID.TID 0000.0001)                   T
(PID.TID 0000.0001)     ;
(PID.TID 0000.0001) tempImplVertAdv = /* Temp. implicit vert. advection on/off */
(PID.TID 0000.0001)                   F
(PID.TID 0000.0001)     ;
(PID.TID 0000.0001) tempForcing  =  /* Temperature forcing on/off flag */
(PID.TID 0000.0001)                   T
(PID.TID 0000.0001)     ;
(PID.TID 0000.0001) balanceQnet  =  /* balance net heat-flux on/off flag */
(PID.TID 0000.0001)                   F
(PID.TID 0000.0001)     ;
(PID.TID 0000.0001) doThetaClimRelax = /* apply SST relaxation on/off flag */
(PID.TID 0000.0001)                   F
(PID.TID 0000.0001)     ;
(PID.TID 0000.0001) balanceThetaClimRelax= /* balance SST relaxation on/off flag */
(PID.TID 0000.0001)                   F
(PID.TID 0000.0001)     ;
(PID.TID 0000.0001) tempIsActiveTr = /* Temp. is a dynamically Active Tracer */
(PID.TID 0000.0001)                   T
(PID.TID 0000.0001)     ;
(PID.TID 0000.0001) saltStepping =  /* Salinity equation on/off flag */
(PID.TID 0000.0001)                   T
(PID.TID 0000.0001)     ;
(PID.TID 0000.0001) saltAdvection = /* Salinity advection on/off flag */
(PID.TID 0000.0001)                   T
(PID.TID 0000.0001)     ;
(PID.TID 0000.0001) saltImplVertAdv = /* Sali. implicit vert. advection on/off */
(PID.TID 0000.0001)                   F
(PID.TID 0000.0001)     ;
(PID.TID 0000.0001) saltForcing  =  /* Salinity forcing on/off flag */
(PID.TID 0000.0001)                   T
(PID.TID 0000.0001)     ;
(PID.TID 0000.0001) balanceEmPmR =  /* balance net fresh-water flux on/off flag */
(PID.TID 0000.0001)                   F
(PID.TID 0000.0001)     ;
(PID.TID 0000.0001) doSaltClimRelax = /* apply SSS relaxation on/off flag */
(PID.TID 0000.0001)                   F
(PID.TID 0000.0001)     ;
(PID.TID 0000.0001) balanceSaltClimRelax= /* balance SSS relaxation on/off flag */
(PID.TID 0000.0001)                   F
(PID.TID 0000.0001)     ;
(PID.TID 0000.0001) saltIsActiveTr = /* Salt  is a dynamically Active Tracer */
(PID.TID 0000.0001)                   T
(PID.TID 0000.0001)     ;
(PID.TID 0000.0001)  readBinaryPrec = /* Precision used for reading binary files */
(PID.TID 0000.0001)                      64
(PID.TID 0000.0001)     ;
(PID.TID 0000.0001) writeBinaryPrec = /* Precision used for writing binary files */
(PID.TID 0000.0001)                      32
(PID.TID 0000.0001)     ;
(PID.TID 0000.0001)  rwSuffixType =   /* select format of mds file suffix */
(PID.TID 0000.0001)                       0
(PID.TID 0000.0001)    = 0 : myIter (I10.10) ;   = 1 : 100*myTime (100th sec) ;
(PID.TID 0000.0001)    = 2 : myTime (seconds);   = 3 : myTime/360 (10th of hr);
(PID.TID 0000.0001)    = 4 : myTime/3600 (hours)
(PID.TID 0000.0001)     ;
(PID.TID 0000.0001)  globalFiles = /* write "global" (=not per tile) files */
(PID.TID 0000.0001)                   F
(PID.TID 0000.0001)     ;
(PID.TID 0000.0001)  useSingleCpuIO = /* only master MPI process does I/O */
(PID.TID 0000.0001)                   T
(PID.TID 0000.0001)     ;
(PID.TID 0000.0001)  useSingleCpuInput = /* only master process reads input */
(PID.TID 0000.0001)                   T
(PID.TID 0000.0001)     ;
(PID.TID 0000.0001) /* debLev[*]  : level of debug & auxiliary message printing */
(PID.TID 0000.0001) debLevZero =  0 ; /* level of disabled aux. msg printing */
(PID.TID 0000.0001)    debLevA =  1 ; /* level of minimum  aux. msg printing */
(PID.TID 0000.0001)    debLevB =  2 ; /* level of low aux. print (report read-file opening)*/
(PID.TID 0000.0001)    debLevC =  3 ; /* level of moderate debug prt (most pkgs debug msg) */
(PID.TID 0000.0001)    debLevD =  4 ; /* level of enhanced debug prt (add DEBUG_STATS prt) */
(PID.TID 0000.0001)    debLevE =  5 ; /* level of extensive debug printing */
(PID.TID 0000.0001) debugLevel =  /* select debug printing level */
(PID.TID 0000.0001)                       2
(PID.TID 0000.0001)     ;
(PID.TID 0000.0001)  plotLevel =  /* select PLOT_FIELD printing level */
(PID.TID 0000.0001)                       2
(PID.TID 0000.0001)     ;
(PID.TID 0000.0001) //
(PID.TID 0000.0001) // Elliptic solver(s) paramters ( PARM02 in namelist )
(PID.TID 0000.0001) //
(PID.TID 0000.0001) cg2dMaxIters =   /* Upper limit on 2d con. grad iterations  */
(PID.TID 0000.0001)                     150
(PID.TID 0000.0001)     ;
(PID.TID 0000.0001) cg2dChkResFreq =   /* 2d con. grad convergence test frequency */
(PID.TID 0000.0001)                       1
(PID.TID 0000.0001)     ;
(PID.TID 0000.0001) cg2dUseMinResSol= /* use cg2d last-iter(=0) / min-resid.(=1) solution */
(PID.TID 0000.0001)                       0
(PID.TID 0000.0001)     ;
(PID.TID 0000.0001) cg2dTargetResidual =   /* 2d con. grad target residual  */
(PID.TID 0000.0001)                 1.000000000000000E-07
(PID.TID 0000.0001)     ;
(PID.TID 0000.0001) cg2dTargetResWunit =   /* CG2d target residual [W units] */
(PID.TID 0000.0001)                -1.000000000000000E+00
(PID.TID 0000.0001)     ;
(PID.TID 0000.0001) cg2dPreCondFreq =   /* Freq. for updating cg2d preconditioner */
(PID.TID 0000.0001)                       1
(PID.TID 0000.0001)     ;
(PID.TID 0000.0001) useSRCGSolver =  /* use single reduction CG solver(s) */
(PID.TID 0000.0001)                   F
(PID.TID 0000.0001)     ;
(PID.TID 0000.0001) printResidualFreq = /* Freq. for printing CG residual */
(PID.TID 0000.0001)                       0
(PID.TID 0000.0001)     ;
(PID.TID 0000.0001) //
(PID.TID 0000.0001) // Time stepping paramters ( PARM03 in namelist )
(PID.TID 0000.0001) //
(PID.TID 0000.0001) deltaTMom =   /* Momentum equation timestep ( s ) */
(PID.TID 0000.0001)                 9.000000000000000E+02
(PID.TID 0000.0001)     ;
(PID.TID 0000.0001) deltaTFreeSurf = /* FreeSurface equation timestep ( s ) */
(PID.TID 0000.0001)                 9.000000000000000E+02
(PID.TID 0000.0001)     ;
(PID.TID 0000.0001) dTtracerLev =  /* Tracer equation timestep ( s ) */
(PID.TID 0000.0001)    15 @  9.000000000000000E+02              /* K =  1: 15 */
(PID.TID 0000.0001)     ;
(PID.TID 0000.0001) deltaTClock  =   /* Model clock timestep ( s ) */
(PID.TID 0000.0001)                 9.000000000000000E+02
(PID.TID 0000.0001)     ;
(PID.TID 0000.0001) cAdjFreq =   /* Convective adjustment interval ( s ) */
(PID.TID 0000.0001)                 0.000000000000000E+00
(PID.TID 0000.0001)     ;
(PID.TID 0000.0001) momForcingOutAB = /* =1: take Momentum Forcing out of Adams-Bash. stepping */
(PID.TID 0000.0001)                       0
(PID.TID 0000.0001)     ;
(PID.TID 0000.0001) tracForcingOutAB = /* =1: take T,S,pTr Forcing out of Adams-Bash. stepping */
(PID.TID 0000.0001)                       1
(PID.TID 0000.0001)     ;
(PID.TID 0000.0001) momDissip_In_AB = /* put Dissipation Tendency in Adams-Bash. stepping */
(PID.TID 0000.0001)                   T
(PID.TID 0000.0001)     ;
(PID.TID 0000.0001) doAB_onGtGs = /* apply AB on Tendencies (rather than on T,S)*/
(PID.TID 0000.0001)                   T
(PID.TID 0000.0001)     ;
(PID.TID 0000.0001) abEps =   /* Adams-Bashforth-2 stabilizing weight */
(PID.TID 0000.0001)                 1.000000000000000E-01
(PID.TID 0000.0001)     ;
(PID.TID 0000.0001) applyExchUV_early = /* Apply EXCH to U,V earlier in time-step */
(PID.TID 0000.0001)                   F
(PID.TID 0000.0001)     ;
(PID.TID 0000.0001) pickupStrictlyMatch= /* stop if pickup do not strictly match */
(PID.TID 0000.0001)                   T
(PID.TID 0000.0001)     ;
(PID.TID 0000.0001) nIter0   =   /* Run starting timestep number */
(PID.TID 0000.0001)                   72000
(PID.TID 0000.0001)     ;
(PID.TID 0000.0001) nTimeSteps = /* Number of timesteps */
(PID.TID 0000.0001)                   99999
(PID.TID 0000.0001)     ;
(PID.TID 0000.0001) nEndIter =   /* Run ending timestep number */
(PID.TID 0000.0001)                  171999
(PID.TID 0000.0001)     ;
(PID.TID 0000.0001) baseTime =   /* Model base time ( s ) */
(PID.TID 0000.0001)                 0.000000000000000E+00
(PID.TID 0000.0001)     ;
(PID.TID 0000.0001) startTime =  /* Run start time ( s ) */
(PID.TID 0000.0001)                 6.480000000000000E+07
(PID.TID 0000.0001)     ;
(PID.TID 0000.0001) endTime  =   /* Integration ending time ( s ) */
(PID.TID 0000.0001)                 1.547991000000000E+08
(PID.TID 0000.0001)     ;
(PID.TID 0000.0001) pChkPtFreq = /* Permanent restart/pickup file interval ( s ) */
(PID.TID 0000.0001)                 0.000000000000000E+00
(PID.TID 0000.0001)     ;
(PID.TID 0000.0001) chkPtFreq  = /* Rolling restart/pickup file interval ( s ) */
(PID.TID 0000.0001)                 0.000000000000000E+00
(PID.TID 0000.0001)     ;
(PID.TID 0000.0001) pickup_write_mdsio =   /* Model IO flag. */
(PID.TID 0000.0001)                   T
(PID.TID 0000.0001)     ;
(PID.TID 0000.0001) pickup_read_mdsio =   /* Model IO flag. */
(PID.TID 0000.0001)                   T
(PID.TID 0000.0001)     ;
(PID.TID 0000.0001) pickup_write_mnc =   /* Model IO flag. */
(PID.TID 0000.0001)                   F
(PID.TID 0000.0001)     ;
(PID.TID 0000.0001) pickup_read_mnc =   /* Model IO flag. */
(PID.TID 0000.0001)                   F
(PID.TID 0000.0001)     ;
(PID.TID 0000.0001) writePickupAtEnd =   /* Model IO flag. */
(PID.TID 0000.0001)                   T
(PID.TID 0000.0001)     ;
(PID.TID 0000.0001) dumpFreq =   /* Model state write out interval ( s ). */
(PID.TID 0000.0001)                 0.000000000000000E+00
(PID.TID 0000.0001)     ;
(PID.TID 0000.0001) dumpInitAndLast= /* write out Initial & Last iter. model state */
(PID.TID 0000.0001)                   T
(PID.TID 0000.0001)     ;
(PID.TID 0000.0001) snapshot_mdsio =   /* Model IO flag. */
(PID.TID 0000.0001)                   T
(PID.TID 0000.0001)     ;
(PID.TID 0000.0001) snapshot_mnc =   /* Model IO flag. */
(PID.TID 0000.0001)                   F
(PID.TID 0000.0001)     ;
(PID.TID 0000.0001) monitorFreq =   /* Monitor output interval ( s ). */
(PID.TID 0000.0001)                 1.000000000000000E+00
(PID.TID 0000.0001)     ;
(PID.TID 0000.0001) monitorSelect = /* select group of variables to monitor */
(PID.TID 0000.0001)                       3
(PID.TID 0000.0001)     ;
(PID.TID 0000.0001) monitor_stdio =   /* Model IO flag. */
(PID.TID 0000.0001)                   T
(PID.TID 0000.0001)     ;
(PID.TID 0000.0001) monitor_mnc =   /* Model IO flag. */
(PID.TID 0000.0001)                   F
(PID.TID 0000.0001)     ;
(PID.TID 0000.0001) externForcingPeriod =   /* forcing period (s) */
(PID.TID 0000.0001)                 0.000000000000000E+00
(PID.TID 0000.0001)     ;
(PID.TID 0000.0001) externForcingCycle =   /* period of the cyle (s). */
(PID.TID 0000.0001)                 0.000000000000000E+00
(PID.TID 0000.0001)     ;
(PID.TID 0000.0001) tauThetaClimRelax =   /* relaxation time scale (s) */
(PID.TID 0000.0001)                 0.000000000000000E+00
(PID.TID 0000.0001)     ;
(PID.TID 0000.0001) tauSaltClimRelax =   /* relaxation time scale (s) */
(PID.TID 0000.0001)                 0.000000000000000E+00
(PID.TID 0000.0001)     ;
(PID.TID 0000.0001) latBandClimRelax =   /* max. Lat. where relaxation */
(PID.TID 0000.0001)                 1.800000000000000E+02
(PID.TID 0000.0001)     ;
(PID.TID 0000.0001) //
(PID.TID 0000.0001) // Gridding paramters ( PARM04 in namelist )
(PID.TID 0000.0001) //
(PID.TID 0000.0001) usingCartesianGrid = /* Cartesian coordinates flag ( True/False ) */
(PID.TID 0000.0001)                   F
(PID.TID 0000.0001)     ;
(PID.TID 0000.0001) usingCylindricalGrid = /* Cylindrical coordinates flag ( True/False ) */
(PID.TID 0000.0001)                   F
(PID.TID 0000.0001)     ;
(PID.TID 0000.0001) usingSphericalPolarGrid = /* Spherical coordinates flag ( True/False ) */
(PID.TID 0000.0001)                   F
(PID.TID 0000.0001)     ;
(PID.TID 0000.0001) usingCurvilinearGrid = /* Curvilinear coordinates flag ( True/False ) */
(PID.TID 0000.0001)                   T
(PID.TID 0000.0001)     ;
(PID.TID 0000.0001) useMin4hFacEdges = /* set hFacW,S as minimum of adjacent hFacC factor */
(PID.TID 0000.0001)                   F
(PID.TID 0000.0001)     ;
(PID.TID 0000.0001) selectSigmaCoord = /* Hybrid-Sigma Vert. Coordinate option */
(PID.TID 0000.0001)                       0
(PID.TID 0000.0001)     ;
(PID.TID 0000.0001) rSigmaBnd = /* r/sigma transition ( units of r ==  m ) */
(PID.TID 0000.0001)                 1.234567000000000E+05
(PID.TID 0000.0001)     ;
(PID.TID 0000.0001) rkSign =   /* index orientation relative to vertical coordinate */
(PID.TID 0000.0001)                -1.000000000000000E+00
(PID.TID 0000.0001)     ;
(PID.TID 0000.0001) gravitySign = /* gravity orientation relative to vertical coordinate */
(PID.TID 0000.0001)                -1.000000000000000E+00
(PID.TID 0000.0001)     ;
(PID.TID 0000.0001) seaLev_Z =  /* reference height of sea-level [m] */
(PID.TID 0000.0001)                 0.000000000000000E+00
(PID.TID 0000.0001)     ;
(PID.TID 0000.0001) top_Pres =  /* reference pressure at the top [Pa] */
(PID.TID 0000.0001)                 0.000000000000000E+00
(PID.TID 0000.0001)     ;
(PID.TID 0000.0001) mass2rUnit = /* convert mass per unit area [kg/m2] to r-units [m] */
(PID.TID 0000.0001)                 9.661835748792270E-04
(PID.TID 0000.0001)     ;
(PID.TID 0000.0001) rUnit2mass = /* convert r-units [m] to mass per unit area [kg/m2] */
(PID.TID 0000.0001)                 1.035000000000000E+03
(PID.TID 0000.0001)     ;
(PID.TID 0000.0001) drC =   /* C spacing ( units of r ) */
(PID.TID 0000.0001)                 2.500000000000000E+01,      /* K =  1 */
(PID.TID 0000.0001)                 6.000000000000000E+01,      /* K =  2 */
(PID.TID 0000.0001)                 8.500000000000000E+01,      /* K =  3 */
(PID.TID 0000.0001)                 1.200000000000000E+02,      /* K =  4 */
(PID.TID 0000.0001)                 1.650000000000000E+02,      /* K =  5 */
(PID.TID 0000.0001)                 2.150000000000000E+02,      /* K =  6 */
(PID.TID 0000.0001)                 2.650000000000000E+02,      /* K =  7 */
(PID.TID 0000.0001)                 3.150000000000000E+02,      /* K =  8 */
(PID.TID 0000.0001)                 3.650000000000000E+02,      /* K =  9 */
(PID.TID 0000.0001)                 4.150000000000000E+02,      /* K = 10 */
(PID.TID 0000.0001)                 4.650000000000000E+02,      /* K = 11 */
(PID.TID 0000.0001)                 5.150000000000000E+02,      /* K = 12 */
(PID.TID 0000.0001)                 5.650000000000000E+02,      /* K = 13 */
(PID.TID 0000.0001)                 6.150000000000000E+02,      /* K = 14 */
(PID.TID 0000.0001)                 6.650000000000000E+02,      /* K = 15 */
(PID.TID 0000.0001)                 3.450000000000000E+02       /* K = 16 */
(PID.TID 0000.0001)     ;
(PID.TID 0000.0001) drF =   /* W spacing ( units of r ) */
(PID.TID 0000.0001)                 5.000000000000000E+01,      /* K =  1 */
(PID.TID 0000.0001)                 7.000000000000000E+01,      /* K =  2 */
(PID.TID 0000.0001)                 1.000000000000000E+02,      /* K =  3 */
(PID.TID 0000.0001)                 1.400000000000000E+02,      /* K =  4 */
(PID.TID 0000.0001)                 1.900000000000000E+02,      /* K =  5 */
(PID.TID 0000.0001)                 2.400000000000000E+02,      /* K =  6 */
(PID.TID 0000.0001)                 2.900000000000000E+02,      /* K =  7 */
(PID.TID 0000.0001)                 3.400000000000000E+02,      /* K =  8 */
(PID.TID 0000.0001)                 3.900000000000000E+02,      /* K =  9 */
(PID.TID 0000.0001)                 4.400000000000000E+02,      /* K = 10 */
(PID.TID 0000.0001)                 4.900000000000000E+02,      /* K = 11 */
(PID.TID 0000.0001)                 5.400000000000000E+02,      /* K = 12 */
(PID.TID 0000.0001)                 5.900000000000000E+02,      /* K = 13 */
(PID.TID 0000.0001)                 6.400000000000000E+02,      /* K = 14 */
(PID.TID 0000.0001)                 6.900000000000000E+02       /* K = 15 */
(PID.TID 0000.0001)     ;
(PID.TID 0000.0001) radius_fromHorizGrid = /* sphere Radius of input horiz. grid */
(PID.TID 0000.0001)                 6.370000000000000E+06
(PID.TID 0000.0001)     ;
(PID.TID 0000.0001) rSphere =  /* Radius ( ignored - cartesian, m - spherical ) */
(PID.TID 0000.0001)                 6.370000000000000E+06
(PID.TID 0000.0001)     ;
(PID.TID 0000.0001) deepAtmosphere = /* Deep/Shallow Atmosphere flag (True/False) */
(PID.TID 0000.0001)                   F
(PID.TID 0000.0001)     ;
(PID.TID 0000.0001) xC =  /* xC(:,1,:,1) : P-point X coord ( deg. or m if cartesian) */
(PID.TID 0000.0001)                -4.439521994760536E+01,      /* I =  1 */
(PID.TID 0000.0001)                -4.295641272275883E+01,      /* I =  2 */
(PID.TID 0000.0001)                -4.122055553388957E+01,      /* I =  3 */
(PID.TID 0000.0001)                -3.923446288487304E+01,      /* I =  4 */
(PID.TID 0000.0001)                -3.702585158682200E+01,      /* I =  5 */
(PID.TID 0000.0001)                -3.461179367094151E+01,      /* I =  6 */
(PID.TID 0000.0001)                -3.200434569041793E+01,      /* I =  7 */
(PID.TID 0000.0001)                -2.921355965632675E+01,      /* I =  8 */
(PID.TID 0000.0001)                -2.624932223028290E+01,      /* I =  9 */
(PID.TID 0000.0001)                -2.312261250426344E+01,      /* I = 10 */
(PID.TID 0000.0001)                -1.984640717127058E+01,      /* I = 11 */
(PID.TID 0000.0001)                -1.643630800555134E+01,      /* I = 12 */
(PID.TID 0000.0001)                -1.291089806302069E+01,      /* I = 13 */
(PID.TID 0000.0001)                -9.291807802719402E+00,      /* I = 14 */
(PID.TID 0000.0001)                -5.603475335822332E+00,      /* I = 15 */
(PID.TID 0000.0001)                -1.872608513033445E+00,      /* I = 16 */
(PID.TID 0000.0001)                 1.872608513033445E+00,      /* I = 17 */
(PID.TID 0000.0001)                 5.603475335822332E+00,      /* I = 18 */
(PID.TID 0000.0001)                 9.291807802719402E+00,      /* I = 19 */
(PID.TID 0000.0001)                 1.291089806302069E+01,      /* I = 20 */
(PID.TID 0000.0001)                 1.643630800555134E+01,      /* I = 21 */
(PID.TID 0000.0001)                 1.984640717127058E+01,      /* I = 22 */
(PID.TID 0000.0001)                 2.312261250426344E+01,      /* I = 23 */
(PID.TID 0000.0001)                 2.624932223028290E+01,      /* I = 24 */
(PID.TID 0000.0001)                 2.921355965632675E+01,      /* I = 25 */
(PID.TID 0000.0001)                 3.200434569041793E+01,      /* I = 26 */
(PID.TID 0000.0001)                 3.461179367094151E+01,      /* I = 27 */
(PID.TID 0000.0001)                 3.702585158682200E+01,      /* I = 28 */
(PID.TID 0000.0001)                 3.923446288487304E+01,      /* I = 29 */
(PID.TID 0000.0001)                 4.122055553388957E+01,      /* I = 30 */
(PID.TID 0000.0001)                 4.295641272275883E+01,      /* I = 31 */
(PID.TID 0000.0001)                 4.439521994760536E+01       /* I = 32 */
(PID.TID 0000.0001)     ;
(PID.TID 0000.0001) yC =  /* yC(1,:,1,:) : P-point Y coord ( deg. or m if cartesian) */
(PID.TID 0000.0001)                -3.497677942598243E+01,      /* J =  1 */
(PID.TID 0000.0001)                -3.374005967394886E+01,      /* J =  2 */
(PID.TID 0000.0001)                -3.220655175667454E+01,      /* J =  3 */
(PID.TID 0000.0001)                -3.045756348838641E+01,      /* J =  4 */
(PID.TID 0000.0001)                -2.853728129852918E+01,      /* J =  5 */
(PID.TID 0000.0001)                -2.647426640173173E+01,      /* J =  6 */
(PID.TID 0000.0001)                -2.428936657094636E+01,      /* J =  7 */
(PID.TID 0000.0001)                -2.199915808312262E+01,      /* J =  8 */
(PID.TID 0000.0001)                -1.961768597440146E+01,      /* J =  9 */
(PID.TID 0000.0001)                -1.715743888281371E+01,      /* J = 10 */
(PID.TID 0000.0001)                -1.462993396899330E+01,      /* J = 11 */
(PID.TID 0000.0001)                -1.204608340464756E+01,      /* J = 12 */
(PID.TID 0000.0001)                -9.416429130284818E+00,      /* J = 13 */
(PID.TID 0000.0001)                -6.751293662992216E+00,      /* J = 14 */
(PID.TID 0000.0001)                -4.060875511835959E+00,      /* J = 15 */
(PID.TID 0000.0001)                -1.355307764409121E+00,      /* J = 16 */
(PID.TID 0000.0001)                 1.355307764409121E+00,      /* J = 17 */
(PID.TID 0000.0001)                 4.060875511835959E+00,      /* J = 18 */
(PID.TID 0000.0001)                 6.751293662992216E+00,      /* J = 19 */
(PID.TID 0000.0001)                 9.416429130284818E+00,      /* J = 20 */
(PID.TID 0000.0001)                 1.204608340464756E+01,      /* J = 21 */
(PID.TID 0000.0001)                 1.462993396899330E+01,      /* J = 22 */
(PID.TID 0000.0001)                 1.715743888281371E+01,      /* J = 23 */
(PID.TID 0000.0001)                 1.961768597440146E+01,      /* J = 24 */
(PID.TID 0000.0001)                 2.199915808312262E+01,      /* J = 25 */
(PID.TID 0000.0001)                 2.428936657094636E+01,      /* J = 26 */
(PID.TID 0000.0001)                 2.647426640173173E+01,      /* J = 27 */
(PID.TID 0000.0001)                 2.853728129852918E+01,      /* J = 28 */
(PID.TID 0000.0001)                 3.045756348838641E+01,      /* J = 29 */
(PID.TID 0000.0001)                 3.220655175667454E+01,      /* J = 30 */
(PID.TID 0000.0001)                 3.374005967394886E+01,      /* J = 31 */
(PID.TID 0000.0001)                 3.497677942598243E+01       /* J = 32 */
(PID.TID 0000.0001)     ;
(PID.TID 0000.0001) rcoord = /* P-point R coordinate (  units of r ) */
(PID.TID 0000.0001)                -2.500000000000000E+01,      /* K =  1 */
(PID.TID 0000.0001)                -8.500000000000000E+01,      /* K =  2 */
(PID.TID 0000.0001)                -1.700000000000000E+02,      /* K =  3 */
(PID.TID 0000.0001)                -2.900000000000000E+02,      /* K =  4 */
(PID.TID 0000.0001)                -4.550000000000000E+02,      /* K =  5 */
(PID.TID 0000.0001)                -6.700000000000000E+02,      /* K =  6 */
(PID.TID 0000.0001)                -9.350000000000000E+02,      /* K =  7 */
(PID.TID 0000.0001)                -1.250000000000000E+03,      /* K =  8 */
(PID.TID 0000.0001)                -1.615000000000000E+03,      /* K =  9 */
(PID.TID 0000.0001)                -2.030000000000000E+03,      /* K = 10 */
(PID.TID 0000.0001)                -2.495000000000000E+03,      /* K = 11 */
(PID.TID 0000.0001)                -3.010000000000000E+03,      /* K = 12 */
(PID.TID 0000.0001)                -3.575000000000000E+03,      /* K = 13 */
(PID.TID 0000.0001)                -4.190000000000000E+03,      /* K = 14 */
(PID.TID 0000.0001)                -4.855000000000000E+03       /* K = 15 */
(PID.TID 0000.0001)     ;
(PID.TID 0000.0001) rF =   /* W-Interf. R coordinate (  units of r ) */
(PID.TID 0000.0001)                 0.000000000000000E+00,      /* K =  1 */
(PID.TID 0000.0001)                -5.000000000000000E+01,      /* K =  2 */
(PID.TID 0000.0001)                -1.200000000000000E+02,      /* K =  3 */
(PID.TID 0000.0001)                -2.200000000000000E+02,      /* K =  4 */
(PID.TID 0000.0001)                -3.600000000000000E+02,      /* K =  5 */
(PID.TID 0000.0001)                -5.500000000000000E+02,      /* K =  6 */
(PID.TID 0000.0001)                -7.900000000000000E+02,      /* K =  7 */
(PID.TID 0000.0001)                -1.080000000000000E+03,      /* K =  8 */
(PID.TID 0000.0001)                -1.420000000000000E+03,      /* K =  9 */
(PID.TID 0000.0001)                -1.810000000000000E+03,      /* K = 10 */
(PID.TID 0000.0001)                -2.250000000000000E+03,      /* K = 11 */
(PID.TID 0000.0001)                -2.740000000000000E+03,      /* K = 12 */
(PID.TID 0000.0001)                -3.280000000000000E+03,      /* K = 13 */
(PID.TID 0000.0001)                -3.870000000000000E+03,      /* K = 14 */
(PID.TID 0000.0001)                -4.510000000000000E+03,      /* K = 15 */
(PID.TID 0000.0001)                -5.200000000000000E+03       /* K = 16 */
(PID.TID 0000.0001)     ;
(PID.TID 0000.0001) deepFacC = /* deep-model grid factor @ cell-Center (-) */
(PID.TID 0000.0001)    15 @  1.000000000000000E+00              /* K =  1: 15 */
(PID.TID 0000.0001)     ;
(PID.TID 0000.0001) deepFacF = /* deep-model grid factor @ W-Interface (-) */
(PID.TID 0000.0001)    16 @  1.000000000000000E+00              /* K =  1: 16 */
(PID.TID 0000.0001)     ;
(PID.TID 0000.0001) rVel2wUnit = /* convert units: rVel -> wSpeed (=1 if z-coord)*/
(PID.TID 0000.0001)    16 @  1.000000000000000E+00              /* K =  1: 16 */
(PID.TID 0000.0001)     ;
(PID.TID 0000.0001) wUnit2rVel = /* convert units: wSpeed -> rVel (=1 if z-coord)*/
(PID.TID 0000.0001)    16 @  1.000000000000000E+00              /* K =  1: 16 */
(PID.TID 0000.0001)     ;
(PID.TID 0000.0001) dBdrRef = /* Vertical grad. of reference buoyancy [(m/s/r)^2] */
(PID.TID 0000.0001)    15 @  0.000000000000000E+00              /* K =  1: 15 */
(PID.TID 0000.0001)     ;
(PID.TID 0000.0001) rotateGrid = /* use rotated grid ( True/False ) */
(PID.TID 0000.0001)                   F
(PID.TID 0000.0001)     ;
(PID.TID 0000.0001) phiEuler = /* Euler angle, rotation about original z-coordinate [rad] */
(PID.TID 0000.0001)                 0.000000000000000E+00
(PID.TID 0000.0001)     ;
(PID.TID 0000.0001) thetaEuler = /* Euler angle, rotation about new x-coordinate [rad] */
(PID.TID 0000.0001)                 0.000000000000000E+00
(PID.TID 0000.0001)     ;
(PID.TID 0000.0001) psiEuler = /* Euler angle, rotation about new z-coordinate [rad] */
(PID.TID 0000.0001)                 0.000000000000000E+00
(PID.TID 0000.0001)     ;
(PID.TID 0000.0001) dxF =  /* dxF(:,1,:,1) ( units: m ) */
(PID.TID 0000.0001)                 1.202082051331828E+05,      /* I =  1 */
(PID.TID 0000.0001)                 1.563594089971120E+05,      /* I =  2 */
(PID.TID 0000.0001)                 1.835530058121492E+05,      /* I =  3 */
(PID.TID 0000.0001)                 2.045883481718707E+05,      /* I =  4 */
(PID.TID 0000.0001)                 2.218350349844185E+05,      /* I =  5 */
(PID.TID 0000.0001)                 2.364352994647058E+05,      /* I =  6 */
(PID.TID 0000.0001)                 2.490022710862746E+05,      /* I =  7 */
(PID.TID 0000.0001)                 2.598919724358304E+05,      /* I =  8 */
(PID.TID 0000.0001)                 2.693210245495156E+05,      /* I =  9 */
(PID.TID 0000.0001)                 2.774243179696503E+05,      /* I = 10 */
(PID.TID 0000.0001)                 2.842862532064524E+05,      /* I = 11 */
(PID.TID 0000.0001)                 2.899590699694043E+05,      /* I = 12 */
(PID.TID 0000.0001)                 2.944742915095688E+05,      /* I = 13 */
(PID.TID 0000.0001)                 2.978501920522794E+05,      /* I = 14 */
(PID.TID 0000.0001)                 3.000967749619962E+05,      /* I = 15 */
(PID.TID 0000.0001)     2 @  3.012190981969055E+05,             /* I = 16: 17 */
(PID.TID 0000.0001)                 3.000967749619962E+05,      /* I = 18 */
(PID.TID 0000.0001)                 2.978501920522794E+05,      /* I = 19 */
(PID.TID 0000.0001)                 2.944742915095688E+05,      /* I = 20 */
(PID.TID 0000.0001)                 2.899590699694043E+05,      /* I = 21 */
(PID.TID 0000.0001)                 2.842862532064524E+05,      /* I = 22 */
(PID.TID 0000.0001)                 2.774243179696503E+05,      /* I = 23 */
(PID.TID 0000.0001)                 2.693210245495156E+05,      /* I = 24 */
(PID.TID 0000.0001)                 2.598919724358304E+05,      /* I = 25 */
(PID.TID 0000.0001)                 2.490022710862746E+05,      /* I = 26 */
(PID.TID 0000.0001)                 2.364352994647058E+05,      /* I = 27 */
(PID.TID 0000.0001)                 2.218350349844185E+05,      /* I = 28 */
(PID.TID 0000.0001)                 2.045883481718707E+05,      /* I = 29 */
(PID.TID 0000.0001)                 1.835530058121492E+05,      /* I = 30 */
(PID.TID 0000.0001)                 1.563594089971120E+05,      /* I = 31 */
(PID.TID 0000.0001)                 1.202082051331828E+05       /* I = 32 */
(PID.TID 0000.0001)     ;
(PID.TID 0000.0001) dxF =  /* dxF(1,:,1,:) ( units: m ) */
(PID.TID 0000.0001)                 1.202082051331828E+05,      /* J =  1 */
(PID.TID 0000.0001)                 1.572908084538706E+05,      /* J =  2 */
(PID.TID 0000.0001)                 1.840412227747703E+05,      /* J =  3 */
(PID.TID 0000.0001)                 2.048868197919576E+05,      /* J =  4 */
(PID.TID 0000.0001)                 2.220405216043041E+05,      /* J =  5 */
(PID.TID 0000.0001)                 2.365892017348392E+05,      /* J =  6 */
(PID.TID 0000.0001)                 2.491250781852558E+05,      /* J =  7 */
(PID.TID 0000.0001)                 2.599949918261881E+05,      /* J =  8 */
(PID.TID 0000.0001)                 2.694110134598581E+05,      /* J =  9 */
(PID.TID 0000.0001)                 2.775055554645015E+05,      /* J = 10 */
(PID.TID 0000.0001)                 2.843615645344775E+05,      /* J = 11 */
(PID.TID 0000.0001)                 2.900303768613599E+05,      /* J = 12 */
(PID.TID 0000.0001)                 2.945429307892709E+05,      /* J = 13 */
(PID.TID 0000.0001)                 2.979171143158405E+05,      /* J = 14 */
(PID.TID 0000.0001)                 3.001626787528886E+05,      /* J = 15 */
(PID.TID 0000.0001)     2 @  3.012844832048790E+05,             /* J = 16: 17 */
(PID.TID 0000.0001)                 3.001626787528886E+05,      /* J = 18 */
(PID.TID 0000.0001)                 2.979171143158405E+05,      /* J = 19 */
(PID.TID 0000.0001)                 2.945429307892709E+05,      /* J = 20 */
(PID.TID 0000.0001)                 2.900303768613599E+05,      /* J = 21 */
(PID.TID 0000.0001)                 2.843615645344775E+05,      /* J = 22 */
(PID.TID 0000.0001)                 2.775055554645015E+05,      /* J = 23 */
(PID.TID 0000.0001)                 2.694110134598581E+05,      /* J = 24 */
(PID.TID 0000.0001)                 2.599949918261881E+05,      /* J = 25 */
(PID.TID 0000.0001)                 2.491250781852558E+05,      /* J = 26 */
(PID.TID 0000.0001)                 2.365892017348392E+05,      /* J = 27 */
(PID.TID 0000.0001)                 2.220405216043041E+05,      /* J = 28 */
(PID.TID 0000.0001)                 2.048868197919576E+05,      /* J = 29 */
(PID.TID 0000.0001)                 1.840412227747703E+05,      /* J = 30 */
(PID.TID 0000.0001)                 1.572908084538706E+05,      /* J = 31 */
(PID.TID 0000.0001)                 1.202082051331828E+05       /* J = 32 */
(PID.TID 0000.0001)     ;
(PID.TID 0000.0001) dyF =  /* dyF(:,1,:,1) ( units: m ) */
(PID.TID 0000.0001)                 1.202082051331828E+05,      /* I =  1 */
(PID.TID 0000.0001)                 1.572908084538706E+05,      /* I =  2 */
(PID.TID 0000.0001)                 1.840412227747703E+05,      /* I =  3 */
(PID.TID 0000.0001)                 2.048868197919576E+05,      /* I =  4 */
(PID.TID 0000.0001)                 2.220405216043041E+05,      /* I =  5 */
(PID.TID 0000.0001)                 2.365892017348392E+05,      /* I =  6 */
(PID.TID 0000.0001)                 2.491250781852558E+05,      /* I =  7 */
(PID.TID 0000.0001)                 2.599949918261881E+05,      /* I =  8 */
(PID.TID 0000.0001)                 2.694110134598581E+05,      /* I =  9 */
(PID.TID 0000.0001)                 2.775055554645015E+05,      /* I = 10 */
(PID.TID 0000.0001)                 2.843615645344775E+05,      /* I = 11 */
(PID.TID 0000.0001)                 2.900303768613599E+05,      /* I = 12 */
(PID.TID 0000.0001)                 2.945429307892709E+05,      /* I = 13 */
(PID.TID 0000.0001)                 2.979171143158405E+05,      /* I = 14 */
(PID.TID 0000.0001)                 3.001626787528886E+05,      /* I = 15 */
(PID.TID 0000.0001)     2 @  3.012844832048790E+05,             /* I = 16: 17 */
(PID.TID 0000.0001)                 3.001626787528886E+05,      /* I = 18 */
(PID.TID 0000.0001)                 2.979171143158405E+05,      /* I = 19 */
(PID.TID 0000.0001)                 2.945429307892709E+05,      /* I = 20 */
(PID.TID 0000.0001)                 2.900303768613599E+05,      /* I = 21 */
(PID.TID 0000.0001)                 2.843615645344775E+05,      /* I = 22 */
(PID.TID 0000.0001)                 2.775055554645015E+05,      /* I = 23 */
(PID.TID 0000.0001)                 2.694110134598581E+05,      /* I = 24 */
(PID.TID 0000.0001)                 2.599949918261881E+05,      /* I = 25 */
(PID.TID 0000.0001)                 2.491250781852558E+05,      /* I = 26 */
(PID.TID 0000.0001)                 2.365892017348392E+05,      /* I = 27 */
(PID.TID 0000.0001)                 2.220405216043041E+05,      /* I = 28 */
(PID.TID 0000.0001)                 2.048868197919576E+05,      /* I = 29 */
(PID.TID 0000.0001)                 1.840412227747703E+05,      /* I = 30 */
(PID.TID 0000.0001)                 1.572908084538706E+05,      /* I = 31 */
(PID.TID 0000.0001)                 1.202082051331828E+05       /* I = 32 */
(PID.TID 0000.0001)     ;
(PID.TID 0000.0001) dyF =  /* dyF(1,:,1,:) ( units: m ) */
(PID.TID 0000.0001)                 1.202082051331828E+05,      /* J =  1 */
(PID.TID 0000.0001)                 1.563594089971120E+05,      /* J =  2 */
(PID.TID 0000.0001)                 1.835530058121492E+05,      /* J =  3 */
(PID.TID 0000.0001)                 2.045883481718707E+05,      /* J =  4 */
(PID.TID 0000.0001)                 2.218350349844185E+05,      /* J =  5 */
(PID.TID 0000.0001)                 2.364352994647058E+05,      /* J =  6 */
(PID.TID 0000.0001)                 2.490022710862746E+05,      /* J =  7 */
(PID.TID 0000.0001)                 2.598919724358304E+05,      /* J =  8 */
(PID.TID 0000.0001)                 2.693210245495156E+05,      /* J =  9 */
(PID.TID 0000.0001)                 2.774243179696503E+05,      /* J = 10 */
(PID.TID 0000.0001)                 2.842862532064524E+05,      /* J = 11 */
(PID.TID 0000.0001)                 2.899590699694043E+05,      /* J = 12 */
(PID.TID 0000.0001)                 2.944742915095688E+05,      /* J = 13 */
(PID.TID 0000.0001)                 2.978501920522794E+05,      /* J = 14 */
(PID.TID 0000.0001)                 3.000967749619962E+05,      /* J = 15 */
(PID.TID 0000.0001)     2 @  3.012190981969055E+05,             /* J = 16: 17 */
(PID.TID 0000.0001)                 3.000967749619962E+05,      /* J = 18 */
(PID.TID 0000.0001)                 2.978501920522794E+05,      /* J = 19 */
(PID.TID 0000.0001)                 2.944742915095688E+05,      /* J = 20 */
(PID.TID 0000.0001)                 2.899590699694043E+05,      /* J = 21 */
(PID.TID 0000.0001)                 2.842862532064524E+05,      /* J = 22 */
(PID.TID 0000.0001)                 2.774243179696503E+05,      /* J = 23 */
(PID.TID 0000.0001)                 2.693210245495156E+05,      /* J = 24 */
(PID.TID 0000.0001)                 2.598919724358304E+05,      /* J = 25 */
(PID.TID 0000.0001)                 2.490022710862746E+05,      /* J = 26 */
(PID.TID 0000.0001)                 2.364352994647058E+05,      /* J = 27 */
(PID.TID 0000.0001)                 2.218350349844185E+05,      /* J = 28 */
(PID.TID 0000.0001)                 2.045883481718707E+05,      /* J = 29 */
(PID.TID 0000.0001)                 1.835530058121492E+05,      /* J = 30 */
(PID.TID 0000.0001)                 1.563594089971120E+05,      /* J = 31 */
(PID.TID 0000.0001)                 1.202082051331828E+05       /* J = 32 */
(PID.TID 0000.0001)     ;
(PID.TID 0000.0001) dxG =  /* dxG(:,1,:,1) ( units: m ) */
(PID.TID 0000.0001)                 1.009837800879055E+05,      /* I =  1 */
(PID.TID 0000.0001)                 1.534505834330338E+05,      /* I =  2 */
(PID.TID 0000.0001)                 1.823321598773926E+05,      /* I =  3 */
(PID.TID 0000.0001)                 2.038999045536999E+05,      /* I =  4 */
(PID.TID 0000.0001)                 2.213884732245467E+05,      /* I =  5 */
(PID.TID 0000.0001)                 2.361211699596122E+05,      /* I =  6 */
(PID.TID 0000.0001)                 2.487693460283865E+05,      /* I =  7 */
(PID.TID 0000.0001)                 2.597126963772147E+05,      /* I =  8 */
(PID.TID 0000.0001)                 2.691790288994575E+05,      /* I =  9 */
(PID.TID 0000.0001)                 2.773091043277394E+05,      /* I = 10 */
(PID.TID 0000.0001)                 2.841906470085516E+05,      /* I = 11 */
(PID.TID 0000.0001)                 2.898778860929753E+05,      /* I = 12 */
(PID.TID 0000.0001)                 2.944035815526416E+05,      /* I = 13 */
(PID.TID 0000.0001)                 2.977867909042096E+05,      /* I = 14 */
(PID.TID 0000.0001)                 3.000380090330854E+05,      /* I = 15 */
(PID.TID 0000.0001)     2 @  3.011625828699101E+05,             /* I = 16: 17 */
(PID.TID 0000.0001)                 3.000380090330854E+05,      /* I = 18 */
(PID.TID 0000.0001)                 2.977867909042096E+05,      /* I = 19 */
(PID.TID 0000.0001)                 2.944035815526416E+05,      /* I = 20 */
(PID.TID 0000.0001)                 2.898778860929753E+05,      /* I = 21 */
(PID.TID 0000.0001)                 2.841906470085516E+05,      /* I = 22 */
(PID.TID 0000.0001)                 2.773091043277394E+05,      /* I = 23 */
(PID.TID 0000.0001)                 2.691790288994575E+05,      /* I = 24 */
(PID.TID 0000.0001)                 2.597126963772147E+05,      /* I = 25 */
(PID.TID 0000.0001)                 2.487693460283865E+05,      /* I = 26 */
(PID.TID 0000.0001)                 2.361211699596122E+05,      /* I = 27 */
(PID.TID 0000.0001)                 2.213884732245467E+05,      /* I = 28 */
(PID.TID 0000.0001)                 2.038999045536999E+05,      /* I = 29 */
(PID.TID 0000.0001)                 1.823321598773926E+05,      /* I = 30 */
(PID.TID 0000.0001)                 1.534505834330338E+05,      /* I = 31 */
(PID.TID 0000.0001)                 1.009837800879055E+05       /* I = 32 */
(PID.TID 0000.0001)     ;
(PID.TID 0000.0001) dxG =  /* dxG(1,:,1,:) ( units: m ) */
(PID.TID 0000.0001)                 1.009837800879055E+05,      /* J =  1 */
(PID.TID 0000.0001)                 1.403701524205398E+05,      /* J =  2 */
(PID.TID 0000.0001)                 1.716197227386011E+05,      /* J =  3 */
(PID.TID 0000.0001)                 1.950254041626018E+05,      /* J =  4 */
(PID.TID 0000.0001)                 2.138410773065497E+05,      /* J =  5 */
(PID.TID 0000.0001)                 2.295958105911512E+05,      /* J =  6 */
(PID.TID 0000.0001)                 2.430829951739083E+05,      /* J =  7 */
(PID.TID 0000.0001)                 2.547526806712889E+05,      /* J =  8 */
(PID.TID 0000.0001)                 2.648750305193301E+05,      /* J =  9 */
(PID.TID 0000.0001)                 2.736173771018112E+05,      /* J = 10 */
(PID.TID 0000.0001)                 2.810845823202647E+05,      /* J = 11 */
(PID.TID 0000.0001)                 2.873420591008078E+05,      /* J = 12 */
(PID.TID 0000.0001)                 2.924298293668651E+05,      /* J = 13 */
(PID.TID 0000.0001)                 2.963715635865306E+05,      /* J = 14 */
(PID.TID 0000.0001)                 2.991805843171258E+05,      /* J = 15 */
(PID.TID 0000.0001)                 3.008638765647886E+05,      /* J = 16 */
(PID.TID 0000.0001)                 3.014246674484008E+05,      /* J = 17 */
(PID.TID 0000.0001)                 3.008638765647886E+05,      /* J = 18 */
(PID.TID 0000.0001)                 2.991805843171258E+05,      /* J = 19 */
(PID.TID 0000.0001)                 2.963715635865306E+05,      /* J = 20 */
(PID.TID 0000.0001)                 2.924298293668651E+05,      /* J = 21 */
(PID.TID 0000.0001)                 2.873420591008078E+05,      /* J = 22 */
(PID.TID 0000.0001)                 2.810845823202647E+05,      /* J = 23 */
(PID.TID 0000.0001)                 2.736173771018112E+05,      /* J = 24 */
(PID.TID 0000.0001)                 2.648750305193301E+05,      /* J = 25 */
(PID.TID 0000.0001)                 2.547526806712889E+05,      /* J = 26 */
(PID.TID 0000.0001)                 2.430829951739083E+05,      /* J = 27 */
(PID.TID 0000.0001)                 2.295958105911512E+05,      /* J = 28 */
(PID.TID 0000.0001)                 2.138410773065497E+05,      /* J = 29 */
(PID.TID 0000.0001)                 1.950254041626018E+05,      /* J = 30 */
(PID.TID 0000.0001)                 1.716197227386011E+05,      /* J = 31 */
(PID.TID 0000.0001)                 1.403701524205398E+05       /* J = 32 */
(PID.TID 0000.0001)     ;
(PID.TID 0000.0001) dyG =  /* dyG(:,1,:,1) ( units: m ) */
(PID.TID 0000.0001)                 1.009837800879055E+05,      /* I =  1 */
(PID.TID 0000.0001)                 1.403701524205398E+05,      /* I =  2 */
(PID.TID 0000.0001)                 1.716197227386011E+05,      /* I =  3 */
(PID.TID 0000.0001)                 1.950254041626018E+05,      /* I =  4 */
(PID.TID 0000.0001)                 2.138410773065497E+05,      /* I =  5 */
(PID.TID 0000.0001)                 2.295958105911512E+05,      /* I =  6 */
(PID.TID 0000.0001)                 2.430829951739083E+05,      /* I =  7 */
(PID.TID 0000.0001)                 2.547526806712889E+05,      /* I =  8 */
(PID.TID 0000.0001)                 2.648750305193301E+05,      /* I =  9 */
(PID.TID 0000.0001)                 2.736173771018112E+05,      /* I = 10 */
(PID.TID 0000.0001)                 2.810845823202647E+05,      /* I = 11 */
(PID.TID 0000.0001)                 2.873420591008078E+05,      /* I = 12 */
(PID.TID 0000.0001)                 2.924298293668651E+05,      /* I = 13 */
(PID.TID 0000.0001)                 2.963715635865306E+05,      /* I = 14 */
(PID.TID 0000.0001)                 2.991805843171258E+05,      /* I = 15 */
(PID.TID 0000.0001)                 3.008638765647886E+05,      /* I = 16 */
(PID.TID 0000.0001)                 3.014246674484008E+05,      /* I = 17 */
(PID.TID 0000.0001)                 3.008638765647886E+05,      /* I = 18 */
(PID.TID 0000.0001)                 2.991805843171258E+05,      /* I = 19 */
(PID.TID 0000.0001)                 2.963715635865306E+05,      /* I = 20 */
(PID.TID 0000.0001)                 2.924298293668651E+05,      /* I = 21 */
(PID.TID 0000.0001)                 2.873420591008078E+05,      /* I = 22 */
(PID.TID 0000.0001)                 2.810845823202647E+05,      /* I = 23 */
(PID.TID 0000.0001)                 2.736173771018112E+05,      /* I = 24 */
(PID.TID 0000.0001)                 2.648750305193301E+05,      /* I = 25 */
(PID.TID 0000.0001)                 2.547526806712889E+05,      /* I = 26 */
(PID.TID 0000.0001)                 2.430829951739083E+05,      /* I = 27 */
(PID.TID 0000.0001)                 2.295958105911512E+05,      /* I = 28 */
(PID.TID 0000.0001)                 2.138410773065497E+05,      /* I = 29 */
(PID.TID 0000.0001)                 1.950254041626018E+05,      /* I = 30 */
(PID.TID 0000.0001)                 1.716197227386011E+05,      /* I = 31 */
(PID.TID 0000.0001)                 1.403701524205398E+05       /* I = 32 */
(PID.TID 0000.0001)     ;
(PID.TID 0000.0001) dyG =  /* dyG(1,:,1,:) ( units: m ) */
(PID.TID 0000.0001)                 1.009837800879055E+05,      /* J =  1 */
(PID.TID 0000.0001)                 1.534505834330338E+05,      /* J =  2 */
(PID.TID 0000.0001)                 1.823321598773926E+05,      /* J =  3 */
(PID.TID 0000.0001)                 2.038999045536999E+05,      /* J =  4 */
(PID.TID 0000.0001)                 2.213884732245467E+05,      /* J =  5 */
(PID.TID 0000.0001)                 2.361211699596122E+05,      /* J =  6 */
(PID.TID 0000.0001)                 2.487693460283865E+05,      /* J =  7 */
(PID.TID 0000.0001)                 2.597126963772147E+05,      /* J =  8 */
(PID.TID 0000.0001)                 2.691790288994575E+05,      /* J =  9 */
(PID.TID 0000.0001)                 2.773091043277394E+05,      /* J = 10 */
(PID.TID 0000.0001)                 2.841906470085516E+05,      /* J = 11 */
(PID.TID 0000.0001)                 2.898778860929753E+05,      /* J = 12 */
(PID.TID 0000.0001)                 2.944035815526416E+05,      /* J = 13 */
(PID.TID 0000.0001)                 2.977867909042096E+05,      /* J = 14 */
(PID.TID 0000.0001)                 3.000380090330854E+05,      /* J = 15 */
(PID.TID 0000.0001)     2 @  3.011625828699101E+05,             /* J = 16: 17 */
(PID.TID 0000.0001)                 3.000380090330854E+05,      /* J = 18 */
(PID.TID 0000.0001)                 2.977867909042096E+05,      /* J = 19 */
(PID.TID 0000.0001)                 2.944035815526416E+05,      /* J = 20 */
(PID.TID 0000.0001)                 2.898778860929753E+05,      /* J = 21 */
(PID.TID 0000.0001)                 2.841906470085516E+05,      /* J = 22 */
(PID.TID 0000.0001)                 2.773091043277394E+05,      /* J = 23 */
(PID.TID 0000.0001)                 2.691790288994575E+05,      /* J = 24 */
(PID.TID 0000.0001)                 2.597126963772147E+05,      /* J = 25 */
(PID.TID 0000.0001)                 2.487693460283865E+05,      /* J = 26 */
(PID.TID 0000.0001)                 2.361211699596122E+05,      /* J = 27 */
(PID.TID 0000.0001)                 2.213884732245467E+05,      /* J = 28 */
(PID.TID 0000.0001)                 2.038999045536999E+05,      /* J = 29 */
(PID.TID 0000.0001)                 1.823321598773926E+05,      /* J = 30 */
(PID.TID 0000.0001)                 1.534505834330338E+05,      /* J = 31 */
(PID.TID 0000.0001)                 1.009837800879055E+05       /* J = 32 */
(PID.TID 0000.0001)     ;
(PID.TID 0000.0001) dxC =  /* dxC(:,1,:,1) ( units: m ) */
(PID.TID 0000.0001)                 1.114203141013064E+05,      /* I =  1 */
(PID.TID 0000.0001)                 1.391343389937106E+05,      /* I =  2 */
(PID.TID 0000.0001)                 1.709574999026266E+05,      /* I =  3 */
(PID.TID 0000.0001)                 1.946503699269892E+05,      /* I =  4 */
(PID.TID 0000.0001)                 2.135964483342134E+05,      /* I =  5 */
(PID.TID 0000.0001)                 2.294195678257306E+05,      /* I =  6 */
(PID.TID 0000.0001)                 2.429464709770498E+05,      /* I =  7 */
(PID.TID 0000.0001)                 2.546408290696998E+05,      /* I =  8 */
(PID.TID 0000.0001)                 2.647791839299727E+05,      /* I =  9 */
(PID.TID 0000.0001)                 2.735321911346108E+05,      /* I = 10 */
(PID.TID 0000.0001)                 2.810065951609633E+05,      /* I = 11 */
(PID.TID 0000.0001)                 2.872689479506990E+05,      /* I = 12 */
(PID.TID 0000.0001)                 2.923599955312932E+05,      /* I = 13 */
(PID.TID 0000.0001)                 2.963038832565530E+05,      /* I = 14 */
(PID.TID 0000.0001)                 2.991142470004740E+05,      /* I = 15 */
(PID.TID 0000.0001)                 3.007982711627968E+05,      /* I = 16 */
(PID.TID 0000.0001)                 3.013593857228136E+05,      /* I = 17 */
(PID.TID 0000.0001)                 3.007982711627968E+05,      /* I = 18 */
(PID.TID 0000.0001)                 2.991142470004740E+05,      /* I = 19 */
(PID.TID 0000.0001)                 2.963038832565530E+05,      /* I = 20 */
(PID.TID 0000.0001)                 2.923599955312932E+05,      /* I = 21 */
(PID.TID 0000.0001)                 2.872689479506990E+05,      /* I = 22 */
(PID.TID 0000.0001)                 2.810065951609633E+05,      /* I = 23 */
(PID.TID 0000.0001)                 2.735321911346108E+05,      /* I = 24 */
(PID.TID 0000.0001)                 2.647791839299727E+05,      /* I = 25 */
(PID.TID 0000.0001)                 2.546408290696998E+05,      /* I = 26 */
(PID.TID 0000.0001)                 2.429464709770498E+05,      /* I = 27 */
(PID.TID 0000.0001)                 2.294195678257306E+05,      /* I = 28 */
(PID.TID 0000.0001)                 2.135964483342134E+05,      /* I = 29 */
(PID.TID 0000.0001)                 1.946503699269892E+05,      /* I = 30 */
(PID.TID 0000.0001)                 1.709574999026266E+05,      /* I = 31 */
(PID.TID 0000.0001)                 1.391343389937106E+05       /* I = 32 */
(PID.TID 0000.0001)     ;
(PID.TID 0000.0001) dxC =  /* dxC(1,:,1,:) ( units: m ) */
(PID.TID 0000.0001)                 1.114203141013064E+05,      /* J =  1 */
(PID.TID 0000.0001)                 1.549545757850771E+05,      /* J =  2 */
(PID.TID 0000.0001)                 1.829777599966776E+05,      /* J =  3 */
(PID.TID 0000.0001)                 2.042717761866506E+05,      /* J =  4 */
(PID.TID 0000.0001)                 2.216367828252819E+05,      /* J =  5 */
(PID.TID 0000.0001)                 2.363029564123586E+05,      /* J =  6 */
(PID.TID 0000.0001)                 2.489113743322025E+05,      /* J =  7 */
(PID.TID 0000.0001)                 2.598293319150326E+05,      /* J =  8 */
(PID.TID 0000.0001)                 2.692787333338535E+05,      /* J =  9 */
(PID.TID 0000.0001)                 2.773972106720365E+05,      /* J = 10 */
(PID.TID 0000.0001)                 2.842706922224557E+05,      /* J = 11 */
(PID.TID 0000.0001)                 2.899523122489403E+05,      /* J = 12 */
(PID.TID 0000.0001)                 2.944741346384699E+05,      /* J = 13 */
(PID.TID 0000.0001)                 2.978547649292580E+05,      /* J = 14 */
(PID.TID 0000.0001)                 3.001044073506459E+05,      /* J = 15 */
(PID.TID 0000.0001)     2 @  3.012281885409289E+05,             /* J = 16: 17 */
(PID.TID 0000.0001)                 3.001044073506459E+05,      /* J = 18 */
(PID.TID 0000.0001)                 2.978547649292580E+05,      /* J = 19 */
(PID.TID 0000.0001)                 2.944741346384699E+05,      /* J = 20 */
(PID.TID 0000.0001)                 2.899523122489403E+05,      /* J = 21 */
(PID.TID 0000.0001)                 2.842706922224557E+05,      /* J = 22 */
(PID.TID 0000.0001)                 2.773972106720365E+05,      /* J = 23 */
(PID.TID 0000.0001)                 2.692787333338535E+05,      /* J = 24 */
(PID.TID 0000.0001)                 2.598293319150326E+05,      /* J = 25 */
(PID.TID 0000.0001)                 2.489113743322025E+05,      /* J = 26 */
(PID.TID 0000.0001)                 2.363029564123586E+05,      /* J = 27 */
(PID.TID 0000.0001)                 2.216367828252819E+05,      /* J = 28 */
(PID.TID 0000.0001)                 2.042717761866506E+05,      /* J = 29 */
(PID.TID 0000.0001)                 1.829777599966776E+05,      /* J = 30 */
(PID.TID 0000.0001)                 1.549545757850771E+05,      /* J = 31 */
(PID.TID 0000.0001)                 1.114203141013064E+05       /* J = 32 */
(PID.TID 0000.0001)     ;
(PID.TID 0000.0001) dyC =  /* dyC(:,1,:,1) ( units: m ) */
(PID.TID 0000.0001)                 1.114203141013064E+05,      /* I =  1 */
(PID.TID 0000.0001)                 1.549545757850771E+05,      /* I =  2 */
(PID.TID 0000.0001)                 1.829777599966776E+05,      /* I =  3 */
(PID.TID 0000.0001)                 2.042717761866506E+05,      /* I =  4 */
(PID.TID 0000.0001)                 2.216367828252819E+05,      /* I =  5 */
(PID.TID 0000.0001)                 2.363029564123586E+05,      /* I =  6 */
(PID.TID 0000.0001)                 2.489113743322025E+05,      /* I =  7 */
(PID.TID 0000.0001)                 2.598293319150326E+05,      /* I =  8 */
(PID.TID 0000.0001)                 2.692787333338535E+05,      /* I =  9 */
(PID.TID 0000.0001)                 2.773972106720365E+05,      /* I = 10 */
(PID.TID 0000.0001)                 2.842706922224557E+05,      /* I = 11 */
(PID.TID 0000.0001)                 2.899523122489403E+05,      /* I = 12 */
(PID.TID 0000.0001)                 2.944741346384699E+05,      /* I = 13 */
(PID.TID 0000.0001)                 2.978547649292580E+05,      /* I = 14 */
(PID.TID 0000.0001)                 3.001044073506459E+05,      /* I = 15 */
(PID.TID 0000.0001)     2 @  3.012281885409289E+05,             /* I = 16: 17 */
(PID.TID 0000.0001)                 3.001044073506459E+05,      /* I = 18 */
(PID.TID 0000.0001)                 2.978547649292580E+05,      /* I = 19 */
(PID.TID 0000.0001)                 2.944741346384699E+05,      /* I = 20 */
(PID.TID 0000.0001)                 2.899523122489403E+05,      /* I = 21 */
(PID.TID 0000.0001)                 2.842706922224557E+05,      /* I = 22 */
(PID.TID 0000.0001)                 2.773972106720365E+05,      /* I = 23 */
(PID.TID 0000.0001)                 2.692787333338535E+05,      /* I = 24 */
(PID.TID 0000.0001)                 2.598293319150326E+05,      /* I = 25 */
(PID.TID 0000.0001)                 2.489113743322025E+05,      /* I = 26 */
(PID.TID 0000.0001)                 2.363029564123586E+05,      /* I = 27 */
(PID.TID 0000.0001)                 2.216367828252819E+05,      /* I = 28 */
(PID.TID 0000.0001)                 2.042717761866506E+05,      /* I = 29 */
(PID.TID 0000.0001)                 1.829777599966776E+05,      /* I = 30 */
(PID.TID 0000.0001)                 1.549545757850771E+05,      /* I = 31 */
(PID.TID 0000.0001)                 1.114203141013064E+05       /* I = 32 */
(PID.TID 0000.0001)     ;
(PID.TID 0000.0001) dyC =  /* dyC(1,:,1,:) ( units: m ) */
(PID.TID 0000.0001)                 1.114203141013064E+05,      /* J =  1 */
(PID.TID 0000.0001)                 1.391343389937106E+05,      /* J =  2 */
(PID.TID 0000.0001)                 1.709574999026266E+05,      /* J =  3 */
(PID.TID 0000.0001)                 1.946503699269892E+05,      /* J =  4 */
(PID.TID 0000.0001)                 2.135964483342134E+05,      /* J =  5 */
(PID.TID 0000.0001)                 2.294195678257306E+05,      /* J =  6 */
(PID.TID 0000.0001)                 2.429464709770498E+05,      /* J =  7 */
(PID.TID 0000.0001)                 2.546408290696998E+05,      /* J =  8 */
(PID.TID 0000.0001)                 2.647791839299727E+05,      /* J =  9 */
(PID.TID 0000.0001)                 2.735321911346108E+05,      /* J = 10 */
(PID.TID 0000.0001)                 2.810065951609633E+05,      /* J = 11 */
(PID.TID 0000.0001)                 2.872689479506990E+05,      /* J = 12 */
(PID.TID 0000.0001)                 2.923599955312932E+05,      /* J = 13 */
(PID.TID 0000.0001)                 2.963038832565530E+05,      /* J = 14 */
(PID.TID 0000.0001)                 2.991142470004740E+05,      /* J = 15 */
(PID.TID 0000.0001)                 3.007982711627968E+05,      /* J = 16 */
(PID.TID 0000.0001)                 3.013593857228136E+05,      /* J = 17 */
(PID.TID 0000.0001)                 3.007982711627968E+05,      /* J = 18 */
(PID.TID 0000.0001)                 2.991142470004740E+05,      /* J = 19 */
(PID.TID 0000.0001)                 2.963038832565530E+05,      /* J = 20 */
(PID.TID 0000.0001)                 2.923599955312932E+05,      /* J = 21 */
(PID.TID 0000.0001)                 2.872689479506990E+05,      /* J = 22 */
(PID.TID 0000.0001)                 2.810065951609633E+05,      /* J = 23 */
(PID.TID 0000.0001)                 2.735321911346108E+05,      /* J = 24 */
(PID.TID 0000.0001)                 2.647791839299727E+05,      /* J = 25 */
(PID.TID 0000.0001)                 2.546408290696998E+05,      /* J = 26 */
(PID.TID 0000.0001)                 2.429464709770498E+05,      /* J = 27 */
(PID.TID 0000.0001)                 2.294195678257306E+05,      /* J = 28 */
(PID.TID 0000.0001)                 2.135964483342134E+05,      /* J = 29 */
(PID.TID 0000.0001)                 1.946503699269892E+05,      /* J = 30 */
(PID.TID 0000.0001)                 1.709574999026266E+05,      /* J = 31 */
(PID.TID 0000.0001)                 1.391343389937106E+05       /* J = 32 */
(PID.TID 0000.0001)     ;
(PID.TID 0000.0001) dxV =  /* dxV(:,1,:,1) ( units: m ) */
(PID.TID 0000.0001)                 8.015229982413632E+04,      /* I =  1 */
(PID.TID 0000.0001)                 1.333130744933864E+05,      /* I =  2 */
(PID.TID 0000.0001)                 1.691744868129062E+05,      /* I =  3 */
(PID.TID 0000.0001)                 1.937548202849060E+05,      /* I =  4 */
(PID.TID 0000.0001)                 2.130490056267208E+05,      /* I =  5 */
(PID.TID 0000.0001)                 2.290479919481738E+05,      /* I =  6 */
(PID.TID 0000.0001)                 2.426774358027003E+05,      /* I =  7 */
(PID.TID 0000.0001)                 2.544372984215561E+05,      /* I =  8 */
(PID.TID 0000.0001)                 2.646201463834826E+05,      /* I =  9 */
(PID.TID 0000.0001)                 2.734046499619031E+05,      /* I = 10 */
(PID.TID 0000.0001)                 2.809019351693761E+05,      /* I = 11 */
(PID.TID 0000.0001)                 2.871811105274442E+05,      /* I = 12 */
(PID.TID 0000.0001)                 2.922844849381675E+05,      /* I = 13 */
(PID.TID 0000.0001)                 2.962371870847826E+05,      /* I = 14 */
(PID.TID 0000.0001)                 2.990534755671296E+05,      /* I = 15 */
(PID.TID 0000.0001)                 3.007409169495504E+05,      /* I = 16 */
(PID.TID 0000.0001)                 3.013031486919771E+05,      /* I = 17 */
(PID.TID 0000.0001)                 3.007409169495504E+05,      /* I = 18 */
(PID.TID 0000.0001)                 2.990534755671296E+05,      /* I = 19 */
(PID.TID 0000.0001)                 2.962371870847826E+05,      /* I = 20 */
(PID.TID 0000.0001)                 2.922844849381675E+05,      /* I = 21 */
(PID.TID 0000.0001)                 2.871811105274442E+05,      /* I = 22 */
(PID.TID 0000.0001)                 2.809019351693761E+05,      /* I = 23 */
(PID.TID 0000.0001)                 2.734046499619031E+05,      /* I = 24 */
(PID.TID 0000.0001)                 2.646201463834826E+05,      /* I = 25 */
(PID.TID 0000.0001)                 2.544372984215561E+05,      /* I = 26 */
(PID.TID 0000.0001)                 2.426774358027003E+05,      /* I = 27 */
(PID.TID 0000.0001)                 2.290479919481738E+05,      /* I = 28 */
(PID.TID 0000.0001)                 2.130490056267208E+05,      /* I = 29 */
(PID.TID 0000.0001)                 1.937548202849060E+05,      /* I = 30 */
(PID.TID 0000.0001)                 1.691744868129062E+05,      /* I = 31 */
(PID.TID 0000.0001)                 1.333130744933864E+05       /* I = 32 */
(PID.TID 0000.0001)     ;
(PID.TID 0000.0001) dxV =  /* dxV(1,:,1,:) ( units: m ) */
(PID.TID 0000.0001)                 8.015229982413632E+04,      /* J =  1 */
(PID.TID 0000.0001)                 1.362652340208229E+05,      /* J =  2 */
(PID.TID 0000.0001)                 1.701080315742101E+05,      /* J =  3 */
(PID.TID 0000.0001)                 1.942331448101592E+05,      /* J =  4 */
(PID.TID 0000.0001)                 2.133486626971531E+05,      /* J =  5 */
(PID.TID 0000.0001)                 2.292584591272880E+05,      /* J =  6 */
(PID.TID 0000.0001)                 2.428369969078989E+05,      /* J =  7 */
(PID.TID 0000.0001)                 2.545652950875683E+05,      /* J =  8 */
(PID.TID 0000.0001)                 2.647274964828301E+05,      /* J =  9 */
(PID.TID 0000.0001)                 2.734980225206389E+05,      /* J = 10 */
(PID.TID 0000.0001)                 2.809856491525217E+05,      /* J = 11 */
(PID.TID 0000.0001)                 2.872580915202295E+05,      /* J = 12 */
(PID.TID 0000.0001)                 2.923567890694162E+05,      /* J = 13 */
(PID.TID 0000.0001)                 2.963063101754721E+05,      /* J = 14 */
(PID.TID 0000.0001)                 2.991205495886625E+05,      /* J = 15 */
(PID.TID 0000.0001)                 3.008068453676764E+05,      /* J = 16 */
(PID.TID 0000.0001)                 3.013686170436881E+05,      /* J = 17 */
(PID.TID 0000.0001)                 3.008068453676764E+05,      /* J = 18 */
(PID.TID 0000.0001)                 2.991205495886625E+05,      /* J = 19 */
(PID.TID 0000.0001)                 2.963063101754721E+05,      /* J = 20 */
(PID.TID 0000.0001)                 2.923567890694162E+05,      /* J = 21 */
(PID.TID 0000.0001)                 2.872580915202295E+05,      /* J = 22 */
(PID.TID 0000.0001)                 2.809856491525217E+05,      /* J = 23 */
(PID.TID 0000.0001)                 2.734980225206389E+05,      /* J = 24 */
(PID.TID 0000.0001)                 2.647274964828301E+05,      /* J = 25 */
(PID.TID 0000.0001)                 2.545652950875683E+05,      /* J = 26 */
(PID.TID 0000.0001)                 2.428369969078989E+05,      /* J = 27 */
(PID.TID 0000.0001)                 2.292584591272880E+05,      /* J = 28 */
(PID.TID 0000.0001)                 2.133486626971531E+05,      /* J = 29 */
(PID.TID 0000.0001)                 1.942331448101592E+05,      /* J = 30 */
(PID.TID 0000.0001)                 1.701080315742101E+05,      /* J = 31 */
(PID.TID 0000.0001)                 1.362652340208229E+05       /* J = 32 */
(PID.TID 0000.0001)     ;
(PID.TID 0000.0001) dyU =  /* dyU(:,1,:,1) ( units: m ) */
(PID.TID 0000.0001)                 8.015229982413632E+04,      /* I =  1 */
(PID.TID 0000.0001)                 1.362652340208229E+05,      /* I =  2 */
(PID.TID 0000.0001)                 1.701080315742101E+05,      /* I =  3 */
(PID.TID 0000.0001)                 1.942331448101592E+05,      /* I =  4 */
(PID.TID 0000.0001)                 2.133486626971531E+05,      /* I =  5 */
(PID.TID 0000.0001)                 2.292584591272880E+05,      /* I =  6 */
(PID.TID 0000.0001)                 2.428369969078989E+05,      /* I =  7 */
(PID.TID 0000.0001)                 2.545652950875683E+05,      /* I =  8 */
(PID.TID 0000.0001)                 2.647274964828301E+05,      /* I =  9 */
(PID.TID 0000.0001)                 2.734980225206389E+05,      /* I = 10 */
(PID.TID 0000.0001)                 2.809856491525217E+05,      /* I = 11 */
(PID.TID 0000.0001)                 2.872580915202295E+05,      /* I = 12 */
(PID.TID 0000.0001)                 2.923567890694162E+05,      /* I = 13 */
(PID.TID 0000.0001)                 2.963063101754721E+05,      /* I = 14 */
(PID.TID 0000.0001)                 2.991205495886625E+05,      /* I = 15 */
(PID.TID 0000.0001)                 3.008068453676764E+05,      /* I = 16 */
(PID.TID 0000.0001)                 3.013686170436881E+05,      /* I = 17 */
(PID.TID 0000.0001)                 3.008068453676764E+05,      /* I = 18 */
(PID.TID 0000.0001)                 2.991205495886625E+05,      /* I = 19 */
(PID.TID 0000.0001)                 2.963063101754721E+05,      /* I = 20 */
(PID.TID 0000.0001)                 2.923567890694162E+05,      /* I = 21 */
(PID.TID 0000.0001)                 2.872580915202295E+05,      /* I = 22 */
(PID.TID 0000.0001)                 2.809856491525217E+05,      /* I = 23 */
(PID.TID 0000.0001)                 2.734980225206389E+05,      /* I = 24 */
(PID.TID 0000.0001)                 2.647274964828301E+05,      /* I = 25 */
(PID.TID 0000.0001)                 2.545652950875683E+05,      /* I = 26 */
(PID.TID 0000.0001)                 2.428369969078989E+05,      /* I = 27 */
(PID.TID 0000.0001)                 2.292584591272880E+05,      /* I = 28 */
(PID.TID 0000.0001)                 2.133486626971531E+05,      /* I = 29 */
(PID.TID 0000.0001)                 1.942331448101592E+05,      /* I = 30 */
(PID.TID 0000.0001)                 1.701080315742101E+05,      /* I = 31 */
(PID.TID 0000.0001)                 1.362652340208229E+05       /* I = 32 */
(PID.TID 0000.0001)     ;
(PID.TID 0000.0001) dyU =  /* dyU(1,:,1,:) ( units: m ) */
(PID.TID 0000.0001)                 8.015229982413632E+04,      /* J =  1 */
(PID.TID 0000.0001)                 1.333130744933864E+05,      /* J =  2 */
(PID.TID 0000.0001)                 1.691744868129062E+05,      /* J =  3 */
(PID.TID 0000.0001)                 1.937548202849060E+05,      /* J =  4 */
(PID.TID 0000.0001)                 2.130490056267208E+05,      /* J =  5 */
(PID.TID 0000.0001)                 2.290479919481738E+05,      /* J =  6 */
(PID.TID 0000.0001)                 2.426774358027003E+05,      /* J =  7 */
(PID.TID 0000.0001)                 2.544372984215561E+05,      /* J =  8 */
(PID.TID 0000.0001)                 2.646201463834826E+05,      /* J =  9 */
(PID.TID 0000.0001)                 2.734046499619031E+05,      /* J = 10 */
(PID.TID 0000.0001)                 2.809019351693761E+05,      /* J = 11 */
(PID.TID 0000.0001)                 2.871811105274442E+05,      /* J = 12 */
(PID.TID 0000.0001)                 2.922844849381675E+05,      /* J = 13 */
(PID.TID 0000.0001)                 2.962371870847826E+05,      /* J = 14 */
(PID.TID 0000.0001)                 2.990534755671296E+05,      /* J = 15 */
(PID.TID 0000.0001)                 3.007409169495504E+05,      /* J = 16 */
(PID.TID 0000.0001)                 3.013031486919771E+05,      /* J = 17 */
(PID.TID 0000.0001)                 3.007409169495504E+05,      /* J = 18 */
(PID.TID 0000.0001)                 2.990534755671296E+05,      /* J = 19 */
(PID.TID 0000.0001)                 2.962371870847826E+05,      /* J = 20 */
(PID.TID 0000.0001)                 2.922844849381675E+05,      /* J = 21 */
(PID.TID 0000.0001)                 2.871811105274442E+05,      /* J = 22 */
(PID.TID 0000.0001)                 2.809019351693761E+05,      /* J = 23 */
(PID.TID 0000.0001)                 2.734046499619031E+05,      /* J = 24 */
(PID.TID 0000.0001)                 2.646201463834826E+05,      /* J = 25 */
(PID.TID 0000.0001)                 2.544372984215561E+05,      /* J = 26 */
(PID.TID 0000.0001)                 2.426774358027003E+05,      /* J = 27 */
(PID.TID 0000.0001)                 2.290479919481738E+05,      /* J = 28 */
(PID.TID 0000.0001)                 2.130490056267208E+05,      /* J = 29 */
(PID.TID 0000.0001)                 1.937548202849060E+05,      /* J = 30 */
(PID.TID 0000.0001)                 1.691744868129062E+05,      /* J = 31 */
(PID.TID 0000.0001)                 1.333130744933864E+05       /* J = 32 */
(PID.TID 0000.0001)     ;
(PID.TID 0000.0001) rA  =  /* rA (:,1,:,1) ( units: m^2 ) */
(PID.TID 0000.0001)                 1.401900702255611E+10,      /* I =  1 */
(PID.TID 0000.0001)                 2.459906945574446E+10,      /* I =  2 */
(PID.TID 0000.0001)                 3.378518544307869E+10,      /* I =  3 */
(PID.TID 0000.0001)                 4.192037169898667E+10,      /* I =  4 */
(PID.TID 0000.0001)                 4.925938996118163E+10,      /* I =  5 */
(PID.TID 0000.0001)                 5.594154126607553E+10,      /* I =  6 */
(PID.TID 0000.0001)                 6.203683527772523E+10,      /* I =  7 */
(PID.TID 0000.0001)                 6.757541173817516E+10,      /* I =  8 */
(PID.TID 0000.0001)                 7.256353271748119E+10,      /* I =  9 */
(PID.TID 0000.0001)                 7.699293007098555E+10,      /* I = 10 */
(PID.TID 0000.0001)                 8.084683449728902E+10,      /* I = 11 */
(PID.TID 0000.0001)                 8.410423102796223E+10,      /* I = 12 */
(PID.TID 0000.0001)                 8.674306976737517E+10,      /* I = 13 */
(PID.TID 0000.0001)                 8.874277443041928E+10,      /* I = 14 */
(PID.TID 0000.0001)                 9.008620045350865E+10,      /* I = 15 */
(PID.TID 0000.0001)                 9.076111290418457E+10,      /* I = 16 */
(PID.TID 0000.0001)                 9.076111290422060E+10,      /* I = 17 */
(PID.TID 0000.0001)                 9.008620045354469E+10,      /* I = 18 */
(PID.TID 0000.0001)                 8.874277443041928E+10,      /* I = 19 */
(PID.TID 0000.0001)                 8.674306976741121E+10,      /* I = 20 */
(PID.TID 0000.0001)                 8.410423102799828E+10,      /* I = 21 */
(PID.TID 0000.0001)                 8.084683449728902E+10,      /* I = 22 */
(PID.TID 0000.0001)                 7.699293007098555E+10,      /* I = 23 */
(PID.TID 0000.0001)                 7.256353271748119E+10,      /* I = 24 */
(PID.TID 0000.0001)                 6.757541173817516E+10,      /* I = 25 */
(PID.TID 0000.0001)                 6.203683527772523E+10,      /* I = 26 */
(PID.TID 0000.0001)                 5.594154126611156E+10,      /* I = 27 */
(PID.TID 0000.0001)                 4.925938996118163E+10,      /* I = 28 */
(PID.TID 0000.0001)                 4.192037169898667E+10,      /* I = 29 */
(PID.TID 0000.0001)                 3.378518544304265E+10,      /* I = 30 */
(PID.TID 0000.0001)                 2.459906945574446E+10,      /* I = 31 */
(PID.TID 0000.0001)                 1.401900702259215E+10       /* I = 32 */
(PID.TID 0000.0001)     ;
(PID.TID 0000.0001) rA  =  /* rA (1,:,1,:) ( units: m^2 ) */
(PID.TID 0000.0001)                 1.401900702255611E+10,      /* J =  1 */
(PID.TID 0000.0001)                 2.459906945574446E+10,      /* J =  2 */
(PID.TID 0000.0001)                 3.378518544307869E+10,      /* J =  3 */
(PID.TID 0000.0001)                 4.192037169898667E+10,      /* J =  4 */
(PID.TID 0000.0001)                 4.925938996118163E+10,      /* J =  5 */
(PID.TID 0000.0001)                 5.594154126607553E+10,      /* J =  6 */
(PID.TID 0000.0001)                 6.203683527776127E+10,      /* J =  7 */
(PID.TID 0000.0001)                 6.757541173817516E+10,      /* J =  8 */
(PID.TID 0000.0001)                 7.256353271748119E+10,      /* J =  9 */
(PID.TID 0000.0001)                 7.699293007098555E+10,      /* J = 10 */
(PID.TID 0000.0001)                 8.084683449728902E+10,      /* J = 11 */
(PID.TID 0000.0001)                 8.410423102799828E+10,      /* J = 12 */
(PID.TID 0000.0001)                 8.674306976737517E+10,      /* J = 13 */
(PID.TID 0000.0001)                 8.874277443041928E+10,      /* J = 14 */
(PID.TID 0000.0001)                 9.008620045350865E+10,      /* J = 15 */
(PID.TID 0000.0001)                 9.076111290418457E+10,      /* J = 16 */
(PID.TID 0000.0001)                 9.076111290422060E+10,      /* J = 17 */
(PID.TID 0000.0001)                 9.008620045354469E+10,      /* J = 18 */
(PID.TID 0000.0001)                 8.874277443041928E+10,      /* J = 19 */
(PID.TID 0000.0001)                 8.674306976737517E+10,      /* J = 20 */
(PID.TID 0000.0001)                 8.410423102799828E+10,      /* J = 21 */
(PID.TID 0000.0001)                 8.084683449728902E+10,      /* J = 22 */
(PID.TID 0000.0001)                 7.699293007098555E+10,      /* J = 23 */
(PID.TID 0000.0001)                 7.256353271748119E+10,      /* J = 24 */
(PID.TID 0000.0001)                 6.757541173817516E+10,      /* J = 25 */
(PID.TID 0000.0001)                 6.203683527772523E+10,      /* J = 26 */
(PID.TID 0000.0001)                 5.594154126607553E+10,      /* J = 27 */
(PID.TID 0000.0001)                 4.925938996118163E+10,      /* J = 28 */
(PID.TID 0000.0001)                 4.192037169898667E+10,      /* J = 29 */
(PID.TID 0000.0001)                 3.378518544307869E+10,      /* J = 30 */
(PID.TID 0000.0001)                 2.459906945574446E+10,      /* J = 31 */
(PID.TID 0000.0001)                 1.401900702259215E+10       /* J = 32 */
(PID.TID 0000.0001)     ;
(PID.TID 0000.0001) rAw =  /* rAw(:,1,:,1) ( units: m^2 ) */
(PID.TID 0000.0001)                 1.216690346714270E+10,      /* I =  1 */
(PID.TID 0000.0001)                 1.974052138506315E+10,      /* I =  2 */
(PID.TID 0000.0001)                 2.943712825252015E+10,      /* I =  3 */
(PID.TID 0000.0001)                 3.801790263324359E+10,      /* I =  4 */
(PID.TID 0000.0001)                 4.571243814189866E+10,      /* I =  5 */
(PID.TID 0000.0001)                 5.269930713599979E+10,      /* I =  6 */
(PID.TID 0000.0001)                 5.907428494299063E+10,      /* I =  7 */
(PID.TID 0000.0001)                 6.488320895111514E+10,      /* I =  8 */
(PID.TID 0000.0001)                 7.014205907741882E+10,      /* I =  9 */
(PID.TID 0000.0001)                 7.484854821847499E+10,      /* I = 10 */
(PID.TID 0000.0001)                 7.898934631431560E+10,      /* I = 11 */
(PID.TID 0000.0001)                 8.254500894894537E+10,      /* I = 12 */
(PID.TID 0000.0001)                 8.549360686473492E+10,      /* I = 13 */
(PID.TID 0000.0001)                 8.781353403175085E+10,      /* I = 14 */
(PID.TID 0000.0001)                 8.948571540392021E+10,      /* I = 15 */
(PID.TID 0000.0001)                 9.049530583086168E+10,      /* I = 16 */
(PID.TID 0000.0001)                 9.083293515008307E+10,      /* I = 17 */
(PID.TID 0000.0001)                 9.049530583087070E+10,      /* I = 18 */
(PID.TID 0000.0001)                 8.948571540391121E+10,      /* I = 19 */
(PID.TID 0000.0001)                 8.781353403174185E+10,      /* I = 20 */
(PID.TID 0000.0001)                 8.549360686467184E+10,      /* I = 21 */
(PID.TID 0000.0001)                 8.254500894890933E+10,      /* I = 22 */
(PID.TID 0000.0001)                 7.898934631434262E+10,      /* I = 23 */
(PID.TID 0000.0001)                 7.484854821844795E+10,      /* I = 24 */
(PID.TID 0000.0001)                 7.014205907742783E+10,      /* I = 25 */
(PID.TID 0000.0001)                 6.488320895111514E+10,      /* I = 26 */
(PID.TID 0000.0001)                 5.907428494299063E+10,      /* I = 27 */
(PID.TID 0000.0001)                 5.269930713599078E+10,      /* I = 28 */
(PID.TID 0000.0001)                 4.571243814190767E+10,      /* I = 29 */
(PID.TID 0000.0001)                 3.801790263325260E+10,      /* I = 30 */
(PID.TID 0000.0001)                 2.943712825251114E+10,      /* I = 31 */
(PID.TID 0000.0001)                 1.974052138509018E+10       /* I = 32 */
(PID.TID 0000.0001)     ;
(PID.TID 0000.0001) rAw =  /* rAw(1,:,1,:) ( units: m^2 ) */
(PID.TID 0000.0001)                 1.216690346714270E+10,      /* J =  1 */
(PID.TID 0000.0001)                 2.390126200743558E+10,      /* J =  2 */
(PID.TID 0000.0001)                 3.341968103208270E+10,      /* J =  3 */
(PID.TID 0000.0001)                 4.168532893152940E+10,      /* J =  4 */
(PID.TID 0000.0001)                 4.909074590409593E+10,      /* J =  5 */
(PID.TID 0000.0001)                 5.581203765722643E+10,      /* J =  6 */
(PID.TID 0000.0001)                 6.193257577506788E+10,      /* J =  7 */
(PID.TID 0000.0001)                 6.748840226738273E+10,      /* J =  8 */
(PID.TID 0000.0001)                 7.248875782324815E+10,      /* J =  9 */
(PID.TID 0000.0001)                 7.692702995909871E+10,      /* J = 10 */
(PID.TID 0000.0001)                 8.078743937057304E+10,      /* J = 11 */
(PID.TID 0000.0001)                 8.404959656062837E+10,      /* J = 12 */
(PID.TID 0000.0001)                 8.669186205742538E+10,      /* J = 13 */
(PID.TID 0000.0001)                 8.869393350723613E+10,      /* J = 14 */
(PID.TID 0000.0001)                 9.003884657168852E+10,      /* J = 15 */
(PID.TID 0000.0001)     2 @  9.071447638299399E+10,             /* J = 16: 17 */
(PID.TID 0000.0001)                 9.003884657168852E+10,      /* J = 18 */
(PID.TID 0000.0001)                 8.869393350723613E+10,      /* J = 19 */
(PID.TID 0000.0001)                 8.669186205742538E+10,      /* J = 20 */
(PID.TID 0000.0001)                 8.404959656062837E+10,      /* J = 21 */
(PID.TID 0000.0001)                 8.078743937057304E+10,      /* J = 22 */
(PID.TID 0000.0001)                 7.692702995909871E+10,      /* J = 23 */
(PID.TID 0000.0001)                 7.248875782324815E+10,      /* J = 24 */
(PID.TID 0000.0001)                 6.748840226738273E+10,      /* J = 25 */
(PID.TID 0000.0001)                 6.193257577506788E+10,      /* J = 26 */
(PID.TID 0000.0001)                 5.581203765722643E+10,      /* J = 27 */
(PID.TID 0000.0001)                 4.909074590409593E+10,      /* J = 28 */
(PID.TID 0000.0001)                 4.168532893152940E+10,      /* J = 29 */
(PID.TID 0000.0001)                 3.341968103208270E+10,      /* J = 30 */
(PID.TID 0000.0001)                 2.390126200743558E+10,      /* J = 31 */
(PID.TID 0000.0001)                 1.216690346714270E+10       /* J = 32 */
(PID.TID 0000.0001)     ;
(PID.TID 0000.0001) rAs =  /* rAs(:,1,:,1) ( units: m^2 ) */
(PID.TID 0000.0001)                 1.216690346714270E+10,      /* I =  1 */
(PID.TID 0000.0001)                 2.390126200743558E+10,      /* I =  2 */
(PID.TID 0000.0001)                 3.341968103208270E+10,      /* I =  3 */
(PID.TID 0000.0001)                 4.168532893152940E+10,      /* I =  4 */
(PID.TID 0000.0001)                 4.909074590409593E+10,      /* I =  5 */
(PID.TID 0000.0001)                 5.581203765722643E+10,      /* I =  6 */
(PID.TID 0000.0001)                 6.193257577506788E+10,      /* I =  7 */
(PID.TID 0000.0001)                 6.748840226738273E+10,      /* I =  8 */
(PID.TID 0000.0001)                 7.248875782324815E+10,      /* I =  9 */
(PID.TID 0000.0001)                 7.692702995909871E+10,      /* I = 10 */
(PID.TID 0000.0001)                 8.078743937057304E+10,      /* I = 11 */
(PID.TID 0000.0001)                 8.404959656062837E+10,      /* I = 12 */
(PID.TID 0000.0001)                 8.669186205742538E+10,      /* I = 13 */
(PID.TID 0000.0001)                 8.869393350723613E+10,      /* I = 14 */
(PID.TID 0000.0001)                 9.003884657168852E+10,      /* I = 15 */
(PID.TID 0000.0001)     2 @  9.071447638299399E+10,             /* I = 16: 17 */
(PID.TID 0000.0001)                 9.003884657168852E+10,      /* I = 18 */
(PID.TID 0000.0001)                 8.869393350723613E+10,      /* I = 19 */
(PID.TID 0000.0001)                 8.669186205742538E+10,      /* I = 20 */
(PID.TID 0000.0001)                 8.404959656062837E+10,      /* I = 21 */
(PID.TID 0000.0001)                 8.078743937057304E+10,      /* I = 22 */
(PID.TID 0000.0001)                 7.692702995909871E+10,      /* I = 23 */
(PID.TID 0000.0001)                 7.248875782324815E+10,      /* I = 24 */
(PID.TID 0000.0001)                 6.748840226738273E+10,      /* I = 25 */
(PID.TID 0000.0001)                 6.193257577506788E+10,      /* I = 26 */
(PID.TID 0000.0001)                 5.581203765722643E+10,      /* I = 27 */
(PID.TID 0000.0001)                 4.909074590409593E+10,      /* I = 28 */
(PID.TID 0000.0001)                 4.168532893152940E+10,      /* I = 29 */
(PID.TID 0000.0001)                 3.341968103208270E+10,      /* I = 30 */
(PID.TID 0000.0001)                 2.390126200743558E+10,      /* I = 31 */
(PID.TID 0000.0001)                 1.216690346714270E+10       /* I = 32 */
(PID.TID 0000.0001)     ;
(PID.TID 0000.0001) rAs =  /* rAs(1,:,1,:) ( units: m^2 ) */
(PID.TID 0000.0001)                 1.216690346714270E+10,      /* J =  1 */
(PID.TID 0000.0001)                 1.974052138506315E+10,      /* J =  2 */
(PID.TID 0000.0001)                 2.943712825252015E+10,      /* J =  3 */
(PID.TID 0000.0001)                 3.801790263324359E+10,      /* J =  4 */
(PID.TID 0000.0001)                 4.571243814189866E+10,      /* J =  5 */
(PID.TID 0000.0001)                 5.269930713599979E+10,      /* J =  6 */
(PID.TID 0000.0001)                 5.907428494299063E+10,      /* J =  7 */
(PID.TID 0000.0001)                 6.488320895111514E+10,      /* J =  8 */
(PID.TID 0000.0001)                 7.014205907741882E+10,      /* J =  9 */
(PID.TID 0000.0001)                 7.484854821847499E+10,      /* J = 10 */
(PID.TID 0000.0001)                 7.898934631431560E+10,      /* J = 11 */
(PID.TID 0000.0001)                 8.254500894894537E+10,      /* J = 12 */
(PID.TID 0000.0001)                 8.549360686473492E+10,      /* J = 13 */
(PID.TID 0000.0001)                 8.781353403175085E+10,      /* J = 14 */
(PID.TID 0000.0001)                 8.948571540392021E+10,      /* J = 15 */
(PID.TID 0000.0001)                 9.049530583086168E+10,      /* J = 16 */
(PID.TID 0000.0001)                 9.083293515008307E+10,      /* J = 17 */
(PID.TID 0000.0001)                 9.049530583087070E+10,      /* J = 18 */
(PID.TID 0000.0001)                 8.948571540391121E+10,      /* J = 19 */
(PID.TID 0000.0001)                 8.781353403174185E+10,      /* J = 20 */
(PID.TID 0000.0001)                 8.549360686467184E+10,      /* J = 21 */
(PID.TID 0000.0001)                 8.254500894890933E+10,      /* J = 22 */
(PID.TID 0000.0001)                 7.898934631434262E+10,      /* J = 23 */
(PID.TID 0000.0001)                 7.484854821844795E+10,      /* J = 24 */
(PID.TID 0000.0001)                 7.014205907742783E+10,      /* J = 25 */
(PID.TID 0000.0001)                 6.488320895111514E+10,      /* J = 26 */
(PID.TID 0000.0001)                 5.907428494299063E+10,      /* J = 27 */
(PID.TID 0000.0001)                 5.269930713599078E+10,      /* J = 28 */
(PID.TID 0000.0001)                 4.571243814190767E+10,      /* J = 29 */
(PID.TID 0000.0001)                 3.801790263325260E+10,      /* J = 30 */
(PID.TID 0000.0001)                 2.943712825251114E+10,      /* J = 31 */
(PID.TID 0000.0001)                 1.974052138509018E+10       /* J = 32 */
(PID.TID 0000.0001)     ;
(PID.TID 0000.0001) globalArea = /* Integrated horizontal Area (m^2) */
(PID.TID 0000.0001)                 3.638867375081598E+14
(PID.TID 0000.0001)     ;
(PID.TID 0000.0001) hasWetCSCorners = /* Domain contains CS corners (True/False) */
(PID.TID 0000.0001)                   T
(PID.TID 0000.0001)     ;
(PID.TID 0000.0001) // =======================================================
(PID.TID 0000.0001) // End of Model config. summary
(PID.TID 0000.0001) // =======================================================
(PID.TID 0000.0001) 
(PID.TID 0000.0001) == Packages configuration : Check & print summary ==
(PID.TID 0000.0001) 
(PID.TID 0000.0001) GMREDI_CHECK: #define GMREDI
(PID.TID 0000.0001) GM_AdvForm =     /* if FALSE => use SkewFlux Form */
(PID.TID 0000.0001)                   F
(PID.TID 0000.0001)     ;
(PID.TID 0000.0001) GM_InMomAsStress = /* if TRUE => apply as Eddy Stress */
(PID.TID 0000.0001)                   F
(PID.TID 0000.0001)     ;
(PID.TID 0000.0001) GM_AdvSeparate = /* Calc Bolus & Euler Adv. separately */
(PID.TID 0000.0001)                   F
(PID.TID 0000.0001)     ;
(PID.TID 0000.0001) GM_ExtraDiag =   /* Tensor Extra Diag (line 1&2) non 0 */
(PID.TID 0000.0001)                   F
(PID.TID 0000.0001)     ;
(PID.TID 0000.0001) GM_isopycK =    /* Background Isopyc. Diffusivity [m^2/s] */
(PID.TID 0000.0001)                 8.000000000000000E+02
(PID.TID 0000.0001)     ;
(PID.TID 0000.0001) GM_skewflx*K =  /* Background GM_SkewFlx Diffusivity [m^2/s] */
(PID.TID 0000.0001)                 8.000000000000000E+02
(PID.TID 0000.0001)     ;
(PID.TID 0000.0001) GM_advec*K =    /* Backg. GM-Advec(=Bolus) Diffusivity [m^2/s]*/
(PID.TID 0000.0001)                 0.000000000000000E+00
(PID.TID 0000.0001)     ;
(PID.TID 0000.0001) GM_Kmin_horiz = /* Minimum Horizontal Diffusivity [m^2/s] */
(PID.TID 0000.0001)                 5.000000000000000E+01
(PID.TID 0000.0001)     ;
(PID.TID 0000.0001) GM_Visbeck_alpha = /* Visbeck alpha coeff. [-] */
(PID.TID 0000.0001)                 0.000000000000000E+00
(PID.TID 0000.0001)     ;
(PID.TID 0000.0001) GM_Small_Number =  /* epsilon used in slope calc */
(PID.TID 0000.0001)                 9.999999999999999E-21
(PID.TID 0000.0001)     ;
(PID.TID 0000.0001) GM_slopeSqCutoff = /* Slope^2 cut-off value */
(PID.TID 0000.0001)                 1.000000000000000E+48
(PID.TID 0000.0001)     ;
(PID.TID 0000.0001) GM_taper_scheme =  /* Type of Tapering/Clipping scheme */
(PID.TID 0000.0001)               'gkw91                                   '
(PID.TID 0000.0001)     ;
(PID.TID 0000.0001) GM_maxSlope =  /* Maximum Slope (Tapering/Clipping) */
(PID.TID 0000.0001)                 1.000000000000000E-02
(PID.TID 0000.0001)     ;
(PID.TID 0000.0001) GM_facTrL2dz = /* Minimum Trans.Layer Thick. (factor of dz) */
(PID.TID 0000.0001)                 1.000000000000000E+00
(PID.TID 0000.0001)     ;
(PID.TID 0000.0001) GM_facTrL2ML = /* Max.Trans.Layer Thick. (factor of MxL Depth)*/
(PID.TID 0000.0001)                 5.000000000000000E+00
(PID.TID 0000.0001)     ;
(PID.TID 0000.0001) GM_maxTransLay = /* Maximum Transition Layer Thickness [m] */
(PID.TID 0000.0001)                 5.000000000000000E+02
(PID.TID 0000.0001)     ;
(PID.TID 0000.0001) GM_UseBVP = /* if TRUE => use bvp a la Ferrari et al. (2010) */
(PID.TID 0000.0001)                   F
(PID.TID 0000.0001)     ;
(PID.TID 0000.0001) GM_BVP_ModeNumber = /* Vertical mode number for BVP wave speed */
(PID.TID 0000.0001)                       1
(PID.TID 0000.0001)     ;
(PID.TID 0000.0001) GM_BVP_cMin = /* Minimum wave speed for BVP [m/s] */
(PID.TID 0000.0001)                 1.000000000000000E-01
(PID.TID 0000.0001)     ;
(PID.TID 0000.0001) GM_useSubMeso = /* if TRUE => use Sub-Meso param. (B.Fox-Kemper) */
(PID.TID 0000.0001)                   F
(PID.TID 0000.0001)     ;
(PID.TID 0000.0001) subMeso_Ceff = /* efficiency coeff. of Mixed-Layer Eddies [-] */
(PID.TID 0000.0001)                 7.000000000000001E-02
(PID.TID 0000.0001)     ;
(PID.TID 0000.0001) subMeso_invTau = /* inverse of Sub-Meso mixing time-scale [/s] */
(PID.TID 0000.0001)                 2.000000000000000E-06
(PID.TID 0000.0001)     ;
(PID.TID 0000.0001) subMeso_LfMin = /* minimum length-scale "Lf" [m] */
(PID.TID 0000.0001)                 1.000000000000000E+03
(PID.TID 0000.0001)     ;
(PID.TID 0000.0001) subMeso_Lmax = /* maximum grid-scale length [m] */
(PID.TID 0000.0001)                 1.100000000000000E+05
(PID.TID 0000.0001)     ;
(PID.TID 0000.0001) GAD_CHECK: #define ALLOW_GENERIC_ADVDIFF
(PID.TID 0000.0001) // =======================================================
(PID.TID 0000.0001) // Check Model config. (CONFIG_CHECK):
(PID.TID 0000.0001) // CONFIG_CHECK : Normal End
(PID.TID 0000.0001) // =======================================================
(PID.TID 0000.0001) 
(PID.TID 0000.0001)  MDS_READ_META: opening file: pickup.0000072000.meta
(PID.TID 0000.0001)  nRecords = 123 ; filePrec =  64 ; fileIter =     72000
(PID.TID 0000.0001)     nDims =   2 , dims:
(PID.TID 0000.0001)    1: 192   1 192
(PID.TID 0000.0001)    2:  32   1  32
(PID.TID 0000.0001)     nFlds =  11 , nFl3D =   8 , fields:
(PID.TID 0000.0001)  >Uvel    < >GuNm1   < >Vvel    < >GvNm1   < >Theta   < >GtNm1   < >Salt    < >GsNm1   < >EtaN    < >dEtaHdt < >EtaH    <
(PID.TID 0000.0001) missingVal=  1.00000000000000E+00 ; nTimRec =   0 , timeList:
(PID.TID 0000.0001) READ_MFLDS_3D_RL: read field: "Uvel    ", #   1 in fldList, rec=   1
(PID.TID 0000.0001)  MDS_READ_FIELD: opening global file: pickup.0000072000
(PID.TID 0000.0001) READ_MFLDS_3D_RL: read field: "Vvel    ", #   3 in fldList, rec=   3
(PID.TID 0000.0001)  MDS_READ_FIELD: opening global file: pickup.0000072000
(PID.TID 0000.0001) READ_MFLDS_3D_RL: read field: "Theta   ", #   5 in fldList, rec=   5
(PID.TID 0000.0001)  MDS_READ_FIELD: opening global file: pickup.0000072000
(PID.TID 0000.0001) READ_MFLDS_3D_RL: read field: "Salt    ", #   7 in fldList, rec=   7
(PID.TID 0000.0001)  MDS_READ_FIELD: opening global file: pickup.0000072000
(PID.TID 0000.0001) READ_MFLDS_3D_RL: read field: "GuNm1   ", #   2 in fldList, rec=   2
(PID.TID 0000.0001)  MDS_READ_FIELD: opening global file: pickup.0000072000
(PID.TID 0000.0001) READ_MFLDS_3D_RL: read field: "GvNm1   ", #   4 in fldList, rec=   4
(PID.TID 0000.0001)  MDS_READ_FIELD: opening global file: pickup.0000072000
(PID.TID 0000.0001) READ_MFLDS_3D_RL: read field: "GtNm1   ", #   6 in fldList, rec=   6
(PID.TID 0000.0001)  MDS_READ_FIELD: opening global file: pickup.0000072000
(PID.TID 0000.0001) READ_MFLDS_3D_RL: read field: "GsNm1   ", #   8 in fldList, rec=   8
(PID.TID 0000.0001)  MDS_READ_FIELD: opening global file: pickup.0000072000
(PID.TID 0000.0001) READ_MFLDS_3D_RL: read field: "EtaN    ", #   9 in fldList, rec= 121
(PID.TID 0000.0001)  MDS_READ_FIELD: opening global file: pickup.0000072000
(PID.TID 0000.0001) READ_MFLDS_3D_RL: read field: "dEtaHdt ", #  10 in fldList, rec= 122
(PID.TID 0000.0001)  MDS_READ_FIELD: opening global file: pickup.0000072000
(PID.TID 0000.0001) READ_MFLDS_3D_RL: read field: "EtaH    ", #  11 in fldList, rec= 123
(PID.TID 0000.0001)  MDS_READ_FIELD: opening global file: pickup.0000072000
(PID.TID 0000.0001) READ_MFLDS_CHECK: - normal end ; reset MFLDS file-name: pickup.0000072000
(PID.TID 0000.0001)  write diagnostics summary to file ioUnit:     36
Iter.Nb:     72000 ; Time(s):  6.4800000000000E+07
------------------------------------------------------------------------
2D/3D diagnostics: Number of lists:    10
------------------------------------------------------------------------
listId=    1 ; file name: oceTAUX
 nFlds, nActive,       freq     &     phase        , nLev               
    1  |    1  |     -3600.000000      1800.000000 |   1
 levels:   1
 diag# | name   |   ipt  |  iMate | kLev|   count |   mate.C|           
    81 |oceTAUX |      1 |      2 |   1 |       0 |       0 |
------------------------------------------------------------------------
listId=    2 ; file name: oceTAUY
 nFlds, nActive,       freq     &     phase        , nLev               
    1  |    1  |     -3600.000000      1800.000000 |   1
 levels:   1
 diag# | name   |   ipt  |  iMate | kLev|   count |   mate.C|           
    82 |oceTAUY |      2 |      1 |   1 |       0 |       0 |
------------------------------------------------------------------------
listId=    3 ; file name: oceFWflx
 nFlds, nActive,       freq     &     phase        , nLev               
    1  |    1  |     -3600.000000      1800.000000 |   1
 levels:   1
 diag# | name   |   ipt  |  iMate | kLev|   count |   mate.C|           
    85 |oceFWflx|      3 |      0 |   1 |       0 |
------------------------------------------------------------------------
listId=    4 ; file name: oceSflux
 nFlds, nActive,       freq     &     phase        , nLev               
    1  |    1  |     -3600.000000      1800.000000 |   1
 levels:   1
 diag# | name   |   ipt  |  iMate | kLev|   count |   mate.C|           
    86 |oceSflux|      4 |      0 |   1 |       0 |
------------------------------------------------------------------------
listId=    5 ; file name: oceQnet
 nFlds, nActive,       freq     &     phase        , nLev               
    1  |    1  |     -3600.000000      1800.000000 |   1
 levels:   1
 diag# | name   |   ipt  |  iMate | kLev|   count |   mate.C|           
    87 |oceQnet |      5 |      0 |   1 |       0 |
------------------------------------------------------------------------
listId=    6 ; file name: oceQsw
 nFlds, nActive,       freq     &     phase        , nLev               
    1  |    1  |     -3600.000000      1800.000000 |   1
 levels:   1
 diag# | name   |   ipt  |  iMate | kLev|   count |   mate.C|           
    88 |oceQsw  |      6 |      0 |   1 |       0 |
------------------------------------------------------------------------
listId=    7 ; file name: SSS
 nFlds, nActive,       freq     &     phase        , nLev               
    1  |    1  |     -3600.000000      1800.000000 |   1
 levels:   1
 diag# | name   |   ipt  |  iMate | kLev|   count |   mate.C|           
    27 |SALT    |      7 |      0 |  15 |       0 |
------------------------------------------------------------------------
listId=    8 ; file name: SST
 nFlds, nActive,       freq     &     phase        , nLev               
    1  |    1  |     -3600.000000      1800.000000 |   1
 levels:   1
 diag# | name   |   ipt  |  iMate | kLev|   count |   mate.C|           
    26 |THETA   |     22 |      0 |  15 |       0 |
------------------------------------------------------------------------
listId=    9 ; file name: UVEL1
 nFlds, nActive,       freq     &     phase        , nLev               
    1  |    1  |     -3600.000000      1800.000000 |   1
 levels:   1
 diag# | name   |   ipt  |  iMate | kLev|   count |   mate.C|           
    45 |UVELMASS|     37 |     52 |  15 |       0 |       0 |
------------------------------------------------------------------------
listId=   10 ; file name: VVEL1
 nFlds, nActive,       freq     &     phase        , nLev               
    1  |    1  |     -3600.000000      1800.000000 |   1
 levels:   1
 diag# | name   |   ipt  |  iMate | kLev|   count |   mate.C|           
    46 |VVELMASS|     52 |     37 |  15 |       0 |       0 |
------------------------------------------------------------------------
Global & Regional Statistics diagnostics: Number of lists:     0
------------------------------------------------------------------------
(PID.TID 0000.0001) // =======================================================
(PID.TID 0000.0001) // Model current state
(PID.TID 0000.0001) // =======================================================
(PID.TID 0000.0001) 
(PID.TID 0000.0001) // =======================================================
(PID.TID 0000.0001) // Begin MONITOR dynamic field statistics
(PID.TID 0000.0001) // =======================================================
(PID.TID 0000.0001) %MON time_tsnumber                =                 72000
(PID.TID 0000.0001) %MON time_secondsf                =   6.4800000000000E+07
(PID.TID 0000.0001) %MON dynstat_eta_max              =   9.2249308874653E-01
(PID.TID 0000.0001) %MON dynstat_eta_min              =  -1.6181619580030E+00
(PID.TID 0000.0001) %MON dynstat_eta_mean             =   1.4427566214562E-14
(PID.TID 0000.0001) %MON dynstat_eta_sd               =   5.9907976973986E-01
(PID.TID 0000.0001) %MON dynstat_eta_del2             =   7.8581345364806E-04
(PID.TID 0000.0001) %MON dynstat_uvel_max             =   1.8639442347386E-01
(PID.TID 0000.0001) %MON dynstat_uvel_min             =  -2.8803502100767E-01
(PID.TID 0000.0001) %MON dynstat_uvel_mean            =  -4.8914430325890E-04
(PID.TID 0000.0001) %MON dynstat_uvel_sd              =   1.2021379389426E-02
(PID.TID 0000.0001) %MON dynstat_uvel_del2            =   5.1214215649781E-05
(PID.TID 0000.0001) %MON dynstat_vvel_max             =   1.7346247050018E-01
(PID.TID 0000.0001) %MON dynstat_vvel_min             =  -2.2519444280963E-01
(PID.TID 0000.0001) %MON dynstat_vvel_mean            =  -4.0398186384005E-04
(PID.TID 0000.0001) %MON dynstat_vvel_sd              =   1.2638380334010E-02
(PID.TID 0000.0001) %MON dynstat_vvel_del2            =   5.0639130168720E-05
(PID.TID 0000.0001) %MON dynstat_wvel_max             =   1.0315548206230E-04
(PID.TID 0000.0001) %MON dynstat_wvel_min             =  -2.0412092606640E-04
(PID.TID 0000.0001) %MON dynstat_wvel_mean            =   1.3594270097552E-10
(PID.TID 0000.0001) %MON dynstat_wvel_sd              =   3.8382293649569E-06
(PID.TID 0000.0001) %MON dynstat_wvel_del2            =   2.6457320450043E-08
(PID.TID 0000.0001) %MON dynstat_theta_max            =   3.0925958904704E+01
(PID.TID 0000.0001) %MON dynstat_theta_min            =  -3.0175293673864E+00
(PID.TID 0000.0001) %MON dynstat_theta_mean           =   3.9091304559860E+00
(PID.TID 0000.0001) %MON dynstat_theta_sd             =   4.5711443147581E+00
(PID.TID 0000.0001) %MON dynstat_theta_del2           =   2.6590891135791E-03
(PID.TID 0000.0001) %MON dynstat_salt_max             =   4.1386265990462E+01
(PID.TID 0000.0001) %MON dynstat_salt_min             =   1.8383410676806E+01
(PID.TID 0000.0001) %MON dynstat_salt_mean            =   3.4772068623474E+01
(PID.TID 0000.0001) %MON dynstat_salt_sd              =   5.3145226117181E-01
(PID.TID 0000.0001) %MON dynstat_salt_del2            =   8.0693627005698E-04
(PID.TID 0000.0001) %MON dynstat_sst_max              =   3.0925958904704E+01
(PID.TID 0000.0001) %MON dynstat_sst_min              =  -1.9648692042086E+00
(PID.TID 0000.0001) %MON dynstat_sst_mean             =   1.8113137824165E+01
(PID.TID 0000.0001) %MON dynstat_sst_sd               =   9.7982972159706E+00
(PID.TID 0000.0001) %MON dynstat_sst_del2             =   1.5454157826167E-02
(PID.TID 0000.0001) %MON dynstat_sss_max              =   4.1386265990462E+01
(PID.TID 0000.0001) %MON dynstat_sss_min              =   1.8383410676806E+01
(PID.TID 0000.0001) %MON dynstat_sss_mean             =   3.4632078412677E+01
(PID.TID 0000.0001) %MON dynstat_sss_sd               =   1.4684189495322E+00
(PID.TID 0000.0001) %MON dynstat_sss_del2             =   8.0812048509615E-03
(PID.TID 0000.0001) %MON forcing_qnet_max             =   0.0000000000000E+00
(PID.TID 0000.0001) %MON forcing_qnet_min             =   0.0000000000000E+00
(PID.TID 0000.0001) %MON forcing_qnet_mean            =   0.0000000000000E+00
(PID.TID 0000.0001) %MON forcing_qnet_sd              =   0.0000000000000E+00
(PID.TID 0000.0001) %MON forcing_qnet_del2            =   0.0000000000000E+00
(PID.TID 0000.0001) %MON forcing_qsw_max              =   0.0000000000000E+00
(PID.TID 0000.0001) %MON forcing_qsw_min              =   0.0000000000000E+00
(PID.TID 0000.0001) %MON forcing_qsw_mean             =   0.0000000000000E+00
(PID.TID 0000.0001) %MON forcing_qsw_sd               =   0.0000000000000E+00
(PID.TID 0000.0001) %MON forcing_qsw_del2             =   0.0000000000000E+00
(PID.TID 0000.0001) %MON forcing_empmr_max            =   0.0000000000000E+00
(PID.TID 0000.0001) %MON forcing_empmr_min            =   0.0000000000000E+00
(PID.TID 0000.0001) %MON forcing_empmr_mean           =   0.0000000000000E+00
(PID.TID 0000.0001) %MON forcing_empmr_sd             =   0.0000000000000E+00
(PID.TID 0000.0001) %MON forcing_empmr_del2           =   0.0000000000000E+00
(PID.TID 0000.0001) %MON forcing_fu_max               =   0.0000000000000E+00
(PID.TID 0000.0001) %MON forcing_fu_min               =   0.0000000000000E+00
(PID.TID 0000.0001) %MON forcing_fu_mean              =   0.0000000000000E+00
(PID.TID 0000.0001) %MON forcing_fu_sd                =   0.0000000000000E+00
(PID.TID 0000.0001) %MON forcing_fu_del2              =   0.0000000000000E+00
(PID.TID 0000.0001) %MON forcing_fv_max               =   0.0000000000000E+00
(PID.TID 0000.0001) %MON forcing_fv_min               =   0.0000000000000E+00
(PID.TID 0000.0001) %MON forcing_fv_mean              =   0.0000000000000E+00
(PID.TID 0000.0001) %MON forcing_fv_sd                =   0.0000000000000E+00
(PID.TID 0000.0001) %MON forcing_fv_del2              =   0.0000000000000E+00
(PID.TID 0000.0001) %MON trAdv_CFL_u_max              =   0.0000000000000E+00
(PID.TID 0000.0001) %MON trAdv_CFL_v_max              =   0.0000000000000E+00
(PID.TID 0000.0001) %MON trAdv_CFL_w_max              =   0.0000000000000E+00
(PID.TID 0000.0001) %MON advcfl_uvel_max              =   8.5096037087284E-04
(PID.TID 0000.0001) %MON advcfl_vvel_max              =   7.8760257411030E-04
(PID.TID 0000.0001) %MON advcfl_wvel_max              =   6.9324088098023E-04
(PID.TID 0000.0001) %MON advcfl_W_hf_max              =   7.6573916672744E-04
(PID.TID 0000.0001) %MON pe_b_mean                    =   4.7811655460464E-04
(PID.TID 0000.0001) %MON ke_max                       =   4.0700637549387E-02
(PID.TID 0000.0001) %MON ke_mean                      =   1.4067882101803E-04
(PID.TID 0000.0001) %MON ke_vol                       =   1.3398024453628E+18
(PID.TID 0000.0001) %MON vort_r_min                   =  -1.1843904755479E-06
(PID.TID 0000.0001) %MON vort_r_max                   =   1.2148454936551E-06
(PID.TID 0000.0001) %MON vort_a_mean                  =  -2.0549865324846E-05
(PID.TID 0000.0001) %MON vort_a_sd                    =   7.5259517155846E-05
(PID.TID 0000.0001) %MON vort_p_mean                  =  -2.4783469227166E-05
(PID.TID 0000.0001) %MON vort_p_sd                    =   1.2812074522595E-04
(PID.TID 0000.0001) %MON surfExpan_theta_mean         =  -3.8378290301302E-07
(PID.TID 0000.0001) %MON surfExpan_salt_mean          =  -1.6258537219558E-07
(PID.TID 0000.0001) // =======================================================
(PID.TID 0000.0001) // End MONITOR dynamic field statistics
(PID.TID 0000.0001) // =======================================================
(PID.TID 0000.0001) SOLVE_FOR_PRESSURE: putPmEinXvector =    F
(PID.TID 0000.0001) SOLVE_FOR_PRESSURE: zeroPsNH=    F , zeroMeanPnh=    F
(PID.TID 0000.0001) SOLVE_FOR_PRESSURE: oldFreeSurfTerm =    F
 cg2d: Sum(rhs),rhsMax =  -4.15914254652378E+00  1.71157971399918E+02
(PID.TID 0000.0001)      cg2d_init_res =   1.82624810261998E+00
(PID.TID 0000.0001)      cg2d_iters(min,last) =      -1       9
(PID.TID 0000.0001)      cg2d_last_res =   5.39276090171663E-08
(PID.TID 0000.0001) // =======================================================
(PID.TID 0000.0001) // Begin MONITOR dynamic field statistics
(PID.TID 0000.0001) // =======================================================
(PID.TID 0000.0001) %MON time_tsnumber                =                 72001
(PID.TID 0000.0001) %MON time_secondsf                =   6.4800900000000E+07
(PID.TID 0000.0001) %MON dynstat_eta_max              =   8.2751990356195E+00
(PID.TID 0000.0001) %MON dynstat_eta_min              =  -1.7012100674059E+00
(PID.TID 0000.0001) %MON dynstat_eta_mean             =   8.2718396867814E-03
(PID.TID 0000.0001) %MON dynstat_eta_sd               =   6.4407396021169E-01
(PID.TID 0000.0001) %MON dynstat_eta_del2             =   7.8580723570471E-03
(PID.TID 0000.0001) %MON dynstat_uvel_max             =   3.2763406120633E-01
(PID.TID 0000.0001) %MON dynstat_uvel_min             =  -2.8705232108218E-01
(PID.TID 0000.0001) %MON dynstat_uvel_mean            =  -4.7447160856995E-04
(PID.TID 0000.0001) %MON dynstat_uvel_sd              =   1.2101806270089E-02
(PID.TID 0000.0001) %MON dynstat_uvel_del2            =   5.7504487589925E-05
(PID.TID 0000.0001) %MON dynstat_vvel_max             =   2.5891137632762E-01
(PID.TID 0000.0001) %MON dynstat_vvel_min             =  -2.6128450105079E-01
(PID.TID 0000.0001) %MON dynstat_vvel_mean            =  -3.9497131657653E-04
(PID.TID 0000.0001) %MON dynstat_vvel_sd              =   1.2716843191234E-02
(PID.TID 0000.0001) %MON dynstat_vvel_del2            =   6.3776259625847E-05
(PID.TID 0000.0001) %MON dynstat_wvel_max             =   1.2092768858020E-03
(PID.TID 0000.0001) %MON dynstat_wvel_min             =  -9.5244762402226E-03
(PID.TID 0000.0001) %MON dynstat_wvel_mean            =  -2.0446754962891E-07
(PID.TID 0000.0001) %MON dynstat_wvel_sd              =   3.1991890300439E-05
(PID.TID 0000.0001) %MON dynstat_wvel_del2            =   7.8900499661810E-07
(PID.TID 0000.0001) %MON dynstat_theta_max            =   3.0925747382661E+01
(PID.TID 0000.0001) %MON dynstat_theta_min            =  -3.0174062026811E+00
(PID.TID 0000.0001) %MON dynstat_theta_mean           =   3.9089311791173E+00
(PID.TID 0000.0001) %MON dynstat_theta_sd             =   4.5705885118945E+00
(PID.TID 0000.0001) %MON dynstat_theta_del2           =   2.6547612579989E-03
(PID.TID 0000.0001) %MON dynstat_salt_max             =   4.1379252577003E+01
(PID.TID 0000.0001) %MON dynstat_salt_min             =   1.8518388103661E+01
(PID.TID 0000.0001) %MON dynstat_salt_mean            =   3.4772205186445E+01
(PID.TID 0000.0001) %MON dynstat_salt_sd              =   5.3093627929459E-01
(PID.TID 0000.0001) %MON dynstat_salt_del2            =   8.0231290190039E-04
(PID.TID 0000.0001) %MON dynstat_sst_max              =   3.0925747382661E+01
(PID.TID 0000.0001) %MON dynstat_sst_min              =  -1.8999502158664E+00
(PID.TID 0000.0001) %MON dynstat_sst_mean             =   1.8098994909650E+01
(PID.TID 0000.0001) %MON dynstat_sst_sd               =   9.8003886650000E+00
(PID.TID 0000.0001) %MON dynstat_sst_del2             =   1.5358776974322E-02
(PID.TID 0000.0001) %MON dynstat_sss_max              =   4.1379252577003E+01
(PID.TID 0000.0001) %MON dynstat_sss_min              =   1.8738343205356E+01
(PID.TID 0000.0001) %MON dynstat_sss_mean             =   3.4642203249918E+01
(PID.TID 0000.0001) %MON dynstat_sss_sd               =   1.4555330008870E+00
(PID.TID 0000.0001) %MON dynstat_sss_del2             =   8.0103918066771E-03
(PID.TID 0000.0001) %MON forcing_qnet_max             =   3.7691018750000E+05
(PID.TID 0000.0001) %MON forcing_qnet_min             =  -8.4035984375000E+04
(PID.TID 0000.0001) %MON forcing_qnet_mean            =   3.4658895098508E+03
(PID.TID 0000.0001) %MON forcing_qnet_sd              =   1.3696983344541E+04
(PID.TID 0000.0001) %MON forcing_qnet_del2            =   3.4197693693550E+02
(PID.TID 0000.0001) %MON forcing_qsw_max              =   0.0000000000000E+00
(PID.TID 0000.0001) %MON forcing_qsw_min              =   0.0000000000000E+00
(PID.TID 0000.0001) %MON forcing_qsw_mean             =   0.0000000000000E+00
(PID.TID 0000.0001) %MON forcing_qsw_sd               =   0.0000000000000E+00
(PID.TID 0000.0001) %MON forcing_qsw_del2             =   0.0000000000000E+00
(PID.TID 0000.0001) %MON forcing_empmr_max            =   1.2516015768051E+00
(PID.TID 0000.0001) %MON forcing_empmr_min            =  -9.8578329086304E+00
(PID.TID 0000.0001) %MON forcing_empmr_mean           =  -9.5126156397822E-03
(PID.TID 0000.0001) %MON forcing_empmr_sd             =   2.8327979476923E-01
(PID.TID 0000.0001) %MON forcing_empmr_del2           =   9.3819938340097E-03
(PID.TID 0000.0001) %MON forcing_fu_max               =   5.0392210567106E-01
(PID.TID 0000.0001) %MON forcing_fu_min               =  -4.7699374024704E-01
(PID.TID 0000.0001) %MON forcing_fu_mean              =  -4.5940844966297E-03
(PID.TID 0000.0001) %MON forcing_fu_sd                =   7.1237098370283E-02
(PID.TID 0000.0001) %MON forcing_fu_del2              =   7.0950200494152E-04
(PID.TID 0000.0001) %MON forcing_fv_max               =   2.7800065561017E-01
(PID.TID 0000.0001) %MON forcing_fv_min               =  -5.2741223474423E-01
(PID.TID 0000.0001) %MON forcing_fv_mean              =  -1.4957453333720E-02
(PID.TID 0000.0001) %MON forcing_fv_sd                =   6.8080960458693E-02
(PID.TID 0000.0001) %MON forcing_fv_del2              =   5.9914314864290E-04
(PID.TID 0000.0001) %MON trAdv_CFL_u_max              =   1.1280666318286E-03
(PID.TID 0000.0001) %MON trAdv_CFL_v_max              =   1.5079006322110E-03
(PID.TID 0000.0001) %MON trAdv_CFL_w_max              =   1.0966523546382E-01
(PID.TID 0000.0001) %MON advcfl_uvel_max              =   1.1495862275719E-03
(PID.TID 0000.0001) %MON advcfl_vvel_max              =   8.4492226412313E-04
(PID.TID 0000.0001) %MON advcfl_wvel_max              =   3.4288114464801E-01
(PID.TID 0000.0001) %MON advcfl_W_hf_max              =   1.1442791522360E-01
(PID.TID 0000.0001) %MON pe_b_mean                    =   5.5272305832739E-04
(PID.TID 0000.0001) %MON ke_max                       =   5.0286353092461E-02
(PID.TID 0000.0001) %MON ke_mean                      =   1.4248291367242E-04
(PID.TID 0000.0001) %MON ke_vol                       =   1.3398024453628E+18
(PID.TID 0000.0001) %MON vort_r_min                   =  -1.1879226307910E-06
(PID.TID 0000.0001) %MON vort_r_max                   =   1.2254810932156E-06
(PID.TID 0000.0001) %MON vort_a_mean                  =  -2.0549865324846E-05
(PID.TID 0000.0001) %MON vort_a_sd                    =   7.5259518466827E-05
(PID.TID 0000.0001) %MON vort_p_mean                  =  -2.4783469220072E-05
(PID.TID 0000.0001) %MON vort_p_sd                    =   1.2812073739667E-04
(PID.TID 0000.0001) %MON surfExpan_theta_mean         =  -3.8456844689420E-07
(PID.TID 0000.0001) %MON surfExpan_salt_mean          =   9.7781284251530E-07
(PID.TID 0000.0001) // =======================================================
(PID.TID 0000.0001) // End MONITOR dynamic field statistics
(PID.TID 0000.0001) // =======================================================
 cg2d: Sum(rhs),rhsMax =  -4.50305717787043E+00  1.77240683104720E+02
(PID.TID 0000.0001)      cg2d_init_res =   1.50012571290649E-01
(PID.TID 0000.0001)      cg2d_iters(min,last) =      -1       9
(PID.TID 0000.0001)      cg2d_last_res =   4.09780940376876E-08
(PID.TID 0000.0001) // =======================================================
(PID.TID 0000.0001) // Begin MONITOR dynamic field statistics
(PID.TID 0000.0001) // =======================================================
(PID.TID 0000.0001) %MON time_tsnumber                =                 72002
(PID.TID 0000.0001) %MON time_secondsf                =   6.4801800000000E+07
(PID.TID 0000.0001) %MON dynstat_eta_max              =   8.2924737031909E+00
(PID.TID 0000.0001) %MON dynstat_eta_min              =  -1.6609316658129E+00
(PID.TID 0000.0001) %MON dynstat_eta_mean             =   9.2741058817204E-03
(PID.TID 0000.0001) %MON dynstat_eta_sd               =   6.4466255238188E-01
(PID.TID 0000.0001) %MON dynstat_eta_del2             =   7.7921291098874E-03
(PID.TID 0000.0001) %MON dynstat_uvel_max             =   5.7086781393172E-01
(PID.TID 0000.0001) %MON dynstat_uvel_min             =  -3.7404205246235E-01
(PID.TID 0000.0001) %MON dynstat_uvel_mean            =  -4.5405855889446E-04
(PID.TID 0000.0001) %MON dynstat_uvel_sd              =   1.2336712224940E-02
(PID.TID 0000.0001) %MON dynstat_uvel_del2            =   7.2185119706181E-05
(PID.TID 0000.0001) %MON dynstat_vvel_max             =   4.9571642493600E-01
(PID.TID 0000.0001) %MON dynstat_vvel_min             =  -4.9639363038830E-01
(PID.TID 0000.0001) %MON dynstat_vvel_mean            =  -3.8629699779598E-04
(PID.TID 0000.0001) %MON dynstat_vvel_sd              =   1.2949915449624E-02
(PID.TID 0000.0001) %MON dynstat_vvel_del2            =   9.1279361724016E-05
(PID.TID 0000.0001) %MON dynstat_wvel_max             =   1.0350104041469E-04
(PID.TID 0000.0001) %MON dynstat_wvel_min             =  -9.6356765083645E-04
(PID.TID 0000.0001) %MON dynstat_wvel_mean            =  -1.7877887756299E-07
(PID.TID 0000.0001) %MON dynstat_wvel_sd              =   8.6783580595237E-06
(PID.TID 0000.0001) %MON dynstat_wvel_del2            =   1.0394386170328E-07
(PID.TID 0000.0001) %MON dynstat_theta_max            =   3.0925531634208E+01
(PID.TID 0000.0001) %MON dynstat_theta_min            =  -3.0169870925268E+00
(PID.TID 0000.0001) %MON dynstat_theta_mean           =   3.9089377322210E+00
(PID.TID 0000.0001) %MON dynstat_theta_sd             =   4.5706024530329E+00
(PID.TID 0000.0001) %MON dynstat_theta_del2           =   2.6548746586180E-03
(PID.TID 0000.0001) %MON dynstat_salt_max             =   4.1377063719966E+01
(PID.TID 0000.0001) %MON dynstat_salt_min             =   1.8518393949489E+01
(PID.TID 0000.0001) %MON dynstat_salt_mean            =   3.4772195154277E+01
(PID.TID 0000.0001) %MON dynstat_salt_sd              =   5.3093609641230E-01
(PID.TID 0000.0001) %MON dynstat_salt_del2            =   8.0282856140991E-04
(PID.TID 0000.0001) %MON dynstat_sst_max              =   3.0925531634208E+01
(PID.TID 0000.0001) %MON dynstat_sst_min              =  -1.8999075183919E+00
(PID.TID 0000.0001) %MON dynstat_sst_mean             =   1.8099438913028E+01
(PID.TID 0000.0001) %MON dynstat_sst_sd               =   9.8002869703951E+00
(PID.TID 0000.0001) %MON dynstat_sst_del2             =   1.5341532165415E-02
(PID.TID 0000.0001) %MON dynstat_sss_max              =   4.1377063719966E+01
(PID.TID 0000.0001) %MON dynstat_sss_min              =   1.8752704687268E+01
(PID.TID 0000.0001) %MON dynstat_sss_mean             =   3.4641788488931E+01
(PID.TID 0000.0001) %MON dynstat_sss_sd               =   1.4568492534304E+00
(PID.TID 0000.0001) %MON dynstat_sss_del2             =   8.0147952831023E-03
(PID.TID 0000.0001) %MON forcing_qnet_max             =   1.4396238281250E+04
(PID.TID 0000.0001) %MON forcing_qnet_min             =  -2.5628072265625E+04
(PID.TID 0000.0001) %MON forcing_qnet_mean            =  -1.6847109435786E+02
(PID.TID 0000.0001) %MON forcing_qnet_sd              =   1.6464626902054E+03
(PID.TID 0000.0001) %MON forcing_qnet_del2            =   4.6219597197819E+01
(PID.TID 0000.0001) %MON forcing_qsw_max              =   0.0000000000000E+00
(PID.TID 0000.0001) %MON forcing_qsw_min              =   0.0000000000000E+00
(PID.TID 0000.0001) %MON forcing_qsw_mean             =   0.0000000000000E+00
(PID.TID 0000.0001) %MON forcing_qsw_sd               =   0.0000000000000E+00
(PID.TID 0000.0001) %MON forcing_qsw_del2             =   0.0000000000000E+00
(PID.TID 0000.0001) %MON forcing_empmr_max            =   7.8170306980610E-02
(PID.TID 0000.0001) %MON forcing_empmr_min            =  -9.9729251861572E-01
(PID.TID 0000.0001) %MON forcing_empmr_mean           =  -1.1526061241800E-03
(PID.TID 0000.0001) %MON forcing_empmr_sd             =   2.3034010479330E-02
(PID.TID 0000.0001) %MON forcing_empmr_del2           =   8.6730588369191E-04
(PID.TID 0000.0001) %MON forcing_fu_max               =   5.2671822073318E-01
(PID.TID 0000.0001) %MON forcing_fu_min               =  -4.7087058370466E-01
(PID.TID 0000.0001) %MON forcing_fu_mean              =  -4.8018958018892E-03
(PID.TID 0000.0001) %MON forcing_fu_sd                =   7.3145800166944E-02
(PID.TID 0000.0001) %MON forcing_fu_del2              =   7.3379809877628E-04
(PID.TID 0000.0001) %MON forcing_fv_max               =   3.1840050944588E-01
(PID.TID 0000.0001) %MON forcing_fv_min               =  -5.1714301780227E-01
(PID.TID 0000.0001) %MON forcing_fv_mean              =  -1.4676295909040E-02
(PID.TID 0000.0001) %MON forcing_fv_sd                =   7.0627127467905E-02
(PID.TID 0000.0001) %MON forcing_fv_del2              =   6.1674491329018E-04
(PID.TID 0000.0001) %MON trAdv_CFL_u_max              =   1.8246425490305E-03
(PID.TID 0000.0001) %MON trAdv_CFL_v_max              =   2.8636540298312E-03
(PID.TID 0000.0001) %MON trAdv_CFL_w_max              =   1.5827203451070E-02
(PID.TID 0000.0001) %MON advcfl_uvel_max              =   1.9313387736092E-03
(PID.TID 0000.0001) %MON advcfl_vvel_max              =   1.6177035171678E-03
(PID.TID 0000.0001) %MON advcfl_wvel_max              =   3.4688435430112E-02
(PID.TID 0000.0001) %MON advcfl_W_hf_max              =   1.5827203451070E-02
(PID.TID 0000.0001) %MON pe_b_mean                    =   5.5375575741677E-04
(PID.TID 0000.0001) %MON ke_max                       =   1.5978060861996E-01
(PID.TID 0000.0001) %MON ke_mean                      =   1.4788291714488E-04
(PID.TID 0000.0001) %MON ke_vol                       =   1.3398054553755E+18
(PID.TID 0000.0001) %MON vort_r_min                   =  -1.6384318976267E-06
(PID.TID 0000.0001) %MON vort_r_max                   =   1.7114606022138E-06
(PID.TID 0000.0001) %MON vort_a_mean                  =  -2.0549865324846E-05
(PID.TID 0000.0001) %MON vort_a_sd                    =   7.5259520783371E-05
(PID.TID 0000.0001) %MON vort_p_mean                  =  -2.4783431322087E-05
(PID.TID 0000.0001) %MON vort_p_sd                    =   1.2811974248820E-04
(PID.TID 0000.0001) %MON surfExpan_theta_mean         =  -6.1828838693645E-06
(PID.TID 0000.0001) %MON surfExpan_salt_mean          =   6.5976177066121E-07
(PID.TID 0000.0001) // =======================================================
(PID.TID 0000.0001) // End MONITOR dynamic field statistics
(PID.TID 0000.0001) // =======================================================
 cg2d: Sum(rhs),rhsMax =  -4.96484697179872E+00  1.70737441242964E+02
(PID.TID 0000.0001)      cg2d_init_res =   1.96543031647575E-01
(PID.TID 0000.0001)      cg2d_iters(min,last) =      -1       9
(PID.TID 0000.0001)      cg2d_last_res =   4.60321122598747E-08
(PID.TID 0000.0001) // =======================================================
(PID.TID 0000.0001) // Begin MONITOR dynamic field statistics
(PID.TID 0000.0001) // =======================================================
(PID.TID 0000.0001) %MON time_tsnumber                =                 72003
(PID.TID 0000.0001) %MON time_secondsf                =   6.4802700000000E+07
(PID.TID 0000.0001) %MON dynstat_eta_max              =   7.9895427828327E+00
(PID.TID 0000.0001) %MON dynstat_eta_min              =  -1.6194172927319E+00
(PID.TID 0000.0001) %MON dynstat_eta_mean             =   9.8499904374339E-03
(PID.TID 0000.0001) %MON dynstat_eta_sd               =   6.4014919067551E-01
(PID.TID 0000.0001) %MON dynstat_eta_del2             =   7.1354236894439E-03
(PID.TID 0000.0001) %MON dynstat_uvel_max             =   8.2367986681664E-01
(PID.TID 0000.0001) %MON dynstat_uvel_min             =  -4.7295938253743E-01
(PID.TID 0000.0001) %MON dynstat_uvel_mean            =  -4.2928889752517E-04
(PID.TID 0000.0001) %MON dynstat_uvel_sd              =   1.2635937141287E-02
(PID.TID 0000.0001) %MON dynstat_uvel_del2            =   8.8532758868161E-05
(PID.TID 0000.0001) %MON dynstat_vvel_max             =   7.0979121923462E-01
(PID.TID 0000.0001) %MON dynstat_vvel_min             =  -7.1857249312148E-01
(PID.TID 0000.0001) %MON dynstat_vvel_mean            =  -3.7872206888060E-04
(PID.TID 0000.0001) %MON dynstat_vvel_sd              =   1.3234273038282E-02
(PID.TID 0000.0001) %MON dynstat_vvel_del2            =   1.1881950577211E-04
(PID.TID 0000.0001) %MON dynstat_wvel_max             =   1.0367127626248E-04
(PID.TID 0000.0001) %MON dynstat_wvel_min             =  -8.2196858514810E-04
(PID.TID 0000.0001) %MON dynstat_wvel_mean            =  -2.3224667739893E-07
(PID.TID 0000.0001) %MON dynstat_wvel_sd              =   9.6190502840779E-06
(PID.TID 0000.0001) %MON dynstat_wvel_del2            =   9.2920529945998E-08
(PID.TID 0000.0001) %MON dynstat_theta_max            =   3.0925310175903E+01
(PID.TID 0000.0001) %MON dynstat_theta_min            =  -3.0163138769539E+00
(PID.TID 0000.0001) %MON dynstat_theta_mean           =   3.9089512858894E+00
(PID.TID 0000.0001) %MON dynstat_theta_sd             =   4.5706398778846E+00
(PID.TID 0000.0001) %MON dynstat_theta_del2           =   2.6544214980022E-03
(PID.TID 0000.0001) %MON dynstat_salt_max             =   4.1376508805581E+01
(PID.TID 0000.0001) %MON dynstat_salt_min             =   1.8518404077819E+01
(PID.TID 0000.0001) %MON dynstat_salt_mean            =   3.4772187304554E+01
(PID.TID 0000.0001) %MON dynstat_salt_sd              =   5.3094588450217E-01
(PID.TID 0000.0001) %MON dynstat_salt_del2            =   8.0397142377951E-04
(PID.TID 0000.0001) %MON dynstat_sst_max              =   3.0925310175903E+01
(PID.TID 0000.0001) %MON dynstat_sst_min              =  -1.8998660997098E+00
(PID.TID 0000.0001) %MON dynstat_sst_mean             =   1.8100230816429E+01
(PID.TID 0000.0001) %MON dynstat_sst_sd               =   9.8002374026493E+00
(PID.TID 0000.0001) %MON dynstat_sst_del2             =   1.5323978686584E-02
(PID.TID 0000.0001) %MON dynstat_sss_max              =   4.1376508805581E+01
(PID.TID 0000.0001) %MON dynstat_sss_min              =   1.8753325386150E+01
(PID.TID 0000.0001) %MON dynstat_sss_mean             =   3.4641230295820E+01
(PID.TID 0000.0001) %MON dynstat_sss_sd               =   1.4573221695671E+00
(PID.TID 0000.0001) %MON dynstat_sss_del2             =   8.0316964171595E-03
(PID.TID 0000.0001) %MON forcing_qnet_max             =   5.1517792968750E+04
(PID.TID 0000.0001) %MON forcing_qnet_min             =  -1.6906220703125E+04
(PID.TID 0000.0001) %MON forcing_qnet_mean            =  -1.8018829972241E+02
(PID.TID 0000.0001) %MON forcing_qnet_sd              =   1.4483594844658E+03
(PID.TID 0000.0001) %MON forcing_qnet_del2            =   4.8110150798412E+01
(PID.TID 0000.0001) %MON forcing_qsw_max              =   0.0000000000000E+00
(PID.TID 0000.0001) %MON forcing_qsw_min              =   0.0000000000000E+00
(PID.TID 0000.0001) %MON forcing_qsw_mean             =   0.0000000000000E+00
(PID.TID 0000.0001) %MON forcing_qsw_sd               =   0.0000000000000E+00
(PID.TID 0000.0001) %MON forcing_qsw_del2             =   0.0000000000000E+00
(PID.TID 0000.0001) %MON forcing_empmr_max            =   7.5694836676121E-02
(PID.TID 0000.0001) %MON forcing_empmr_min            =  -7.3506498336792E-01
(PID.TID 0000.0001) %MON forcing_empmr_mean           =  -6.6226723907050E-04
(PID.TID 0000.0001) %MON forcing_empmr_sd             =   1.3693300851039E-02
(PID.TID 0000.0001) %MON forcing_empmr_del2           =   5.3425064262321E-04
(PID.TID 0000.0001) %MON forcing_fu_max               =   5.5437225502959E-01
(PID.TID 0000.0001) %MON forcing_fu_min               =  -4.9051988574056E-01
(PID.TID 0000.0001) %MON forcing_fu_mean              =  -4.6596749378852E-03
(PID.TID 0000.0001) %MON forcing_fu_sd                =   7.4384922149664E-02
(PID.TID 0000.0001) %MON forcing_fu_del2              =   7.4734783965042E-04
(PID.TID 0000.0001) %MON forcing_fv_max               =   3.3975748723428E-01
(PID.TID 0000.0001) %MON forcing_fv_min               =  -5.0081510540613E-01
(PID.TID 0000.0001) %MON forcing_fv_mean              =  -1.4328707443452E-02
(PID.TID 0000.0001) %MON forcing_fv_sd                =   7.2033179112445E-02
(PID.TID 0000.0001) %MON forcing_fv_del2              =   6.3402394643531E-04
(PID.TID 0000.0001) %MON trAdv_CFL_u_max              =   2.5746246549083E-03
(PID.TID 0000.0001) %MON trAdv_CFL_v_max              =   4.0588139876362E-03
(PID.TID 0000.0001) %MON trAdv_CFL_w_max              =   1.1423491753724E-02
(PID.TID 0000.0001) %MON advcfl_uvel_max              =   2.7467801361103E-03
(PID.TID 0000.0001) %MON advcfl_vvel_max              =   2.3163076590793E-03
(PID.TID 0000.0001) %MON advcfl_wvel_max              =   2.5567477682362E-02
(PID.TID 0000.0001) %MON advcfl_W_hf_max              =   1.1423491753724E-02
(PID.TID 0000.0001) %MON pe_b_mean                    =   5.4604519781155E-04
(PID.TID 0000.0001) %MON ke_max                       =   3.2608378334433E-01
(PID.TID 0000.0001) %MON ke_mean                      =   1.5475677629278E-04
(PID.TID 0000.0001) %MON ke_vol                       =   1.3398058200869E+18
(PID.TID 0000.0001) %MON vort_r_min                   =  -2.4213877143473E-06
(PID.TID 0000.0001) %MON vort_r_max                   =   2.4410028689100E-06
(PID.TID 0000.0001) %MON vort_a_mean                  =  -2.0549865324846E-05
(PID.TID 0000.0001) %MON vort_a_sd                    =   7.5259523312715E-05
(PID.TID 0000.0001) %MON vort_p_mean                  =  -2.4783424916628E-05
(PID.TID 0000.0001) %MON vort_p_sd                    =   1.2811962576706E-04
(PID.TID 0000.0001) %MON surfExpan_theta_mean         =  -6.7875504051791E-06
(PID.TID 0000.0001) %MON surfExpan_salt_mean          =   7.1914386359530E-07
(PID.TID 0000.0001) // =======================================================
(PID.TID 0000.0001) // End MONITOR dynamic field statistics
(PID.TID 0000.0001) // =======================================================
 Computing Diagnostic #     81  oceTAUX      Counter:       1   Parms: UU      U1      
           Vector  Mate for  oceTAUX      Diagnostic #     82  oceTAUY  exists 
 Computing Diagnostic #     82  oceTAUY      Counter:       1   Parms: VV      U1      
           Vector  Mate for  oceTAUY      Diagnostic #     81  oceTAUX  exists 
 Computing Diagnostic #     85  oceFWflx     Counter:       1   Parms: SM      U1      
 Computing Diagnostic #     86  oceSflux     Counter:       1   Parms: SM      U1      
 Computing Diagnostic #     87  oceQnet      Counter:       1   Parms: SM      U1      
 Computing Diagnostic #     88  oceQsw       Counter:       1   Parms: SM      U1      
 Computing Diagnostic #     27  SALT         Counter:       1   Parms: SMR     MR      
 Computing Diagnostic #     26  THETA        Counter:       1   Parms: SMR     MR      
 Computing Diagnostic #     45  UVELMASS     Counter:       1   Parms: UUr     MR      
           Vector  Mate for  UVELMASS     Diagnostic #     46  VVELMASS exists 
 Computing Diagnostic #     46  VVELMASS     Counter:       1   Parms: VVr     MR      
           Vector  Mate for  VVELMASS     Diagnostic #     45  UVELMASS exists 
 cg2d: Sum(rhs),rhsMax =  -5.53247745233584E+00  1.61502119593665E+02
(PID.TID 0000.0001)      cg2d_init_res =   2.22910488278627E-01
(PID.TID 0000.0001)      cg2d_iters(min,last) =      -1       9
(PID.TID 0000.0001)      cg2d_last_res =   4.87725643595499E-08
(PID.TID 0000.0001) // =======================================================
(PID.TID 0000.0001) // Begin MONITOR dynamic field statistics
(PID.TID 0000.0001) // =======================================================
(PID.TID 0000.0001) %MON time_tsnumber                =                 72004
(PID.TID 0000.0001) %MON time_secondsf                =   6.4803600000000E+07
(PID.TID 0000.0001) %MON dynstat_eta_max              =   7.5597029965540E+00
(PID.TID 0000.0001) %MON dynstat_eta_min              =  -1.6203950209927E+00
(PID.TID 0000.0001) %MON dynstat_eta_mean             =   1.0382430971710E-02
(PID.TID 0000.0001) %MON dynstat_eta_sd               =   6.3530171431156E-01
(PID.TID 0000.0001) %MON dynstat_eta_del2             =   6.3696864883159E-03
(PID.TID 0000.0001) %MON dynstat_uvel_max             =   1.0566236084146E+00
(PID.TID 0000.0001) %MON dynstat_uvel_min             =  -5.6475181919689E-01
(PID.TID 0000.0001) %MON dynstat_uvel_mean            =  -4.0087573836425E-04
(PID.TID 0000.0001) %MON dynstat_uvel_sd              =   1.2936758163937E-02
(PID.TID 0000.0001) %MON dynstat_uvel_del2            =   1.0351302456828E-04
(PID.TID 0000.0001) %MON dynstat_vvel_max             =   8.9571823884021E-01
(PID.TID 0000.0001) %MON dynstat_vvel_min             =  -9.2257249029822E-01
(PID.TID 0000.0001) %MON dynstat_vvel_mean            =  -3.7323674300878E-04
(PID.TID 0000.0001) %MON dynstat_vvel_sd              =   1.3510339037612E-02
(PID.TID 0000.0001) %MON dynstat_vvel_del2            =   1.4231928125596E-04
(PID.TID 0000.0001) %MON dynstat_wvel_max             =   1.0386311228166E-04
(PID.TID 0000.0001) %MON dynstat_wvel_min             =  -8.6329128221653E-04
(PID.TID 0000.0001) %MON dynstat_wvel_mean            =  -2.9324699878778E-07
(PID.TID 0000.0001) %MON dynstat_wvel_sd              =   1.0316457095820E-05
(PID.TID 0000.0001) %MON dynstat_wvel_del2            =   9.3985172734962E-08
(PID.TID 0000.0001) %MON dynstat_theta_max            =   3.0925084085012E+01
(PID.TID 0000.0001) %MON dynstat_theta_min            =  -3.0154699319929E+00
(PID.TID 0000.0001) %MON dynstat_theta_mean           =   3.9089622929579E+00
(PID.TID 0000.0001) %MON dynstat_theta_sd             =   4.5706713546352E+00
(PID.TID 0000.0001) %MON dynstat_theta_del2           =   2.6537802818474E-03
(PID.TID 0000.0001) %MON dynstat_salt_max             =   4.1375918233963E+01
(PID.TID 0000.0001) %MON dynstat_salt_min             =   1.8518413784638E+01
(PID.TID 0000.0001) %MON dynstat_salt_mean            =   3.4772179836902E+01
(PID.TID 0000.0001) %MON dynstat_salt_sd              =   5.3095828355884E-01
(PID.TID 0000.0001) %MON dynstat_salt_del2            =   8.0555972348830E-04
(PID.TID 0000.0001) %MON dynstat_sst_max              =   3.0925084085012E+01
(PID.TID 0000.0001) %MON dynstat_sst_min              =  -1.8998248493422E+00
(PID.TID 0000.0001) %MON dynstat_sst_mean             =   1.8100847380530E+01
(PID.TID 0000.0001) %MON dynstat_sst_sd               =   9.8002474273911E+00
(PID.TID 0000.0001) %MON dynstat_sst_del2             =   1.5307148019355E-02
(PID.TID 0000.0001) %MON dynstat_sss_max              =   4.1375918233963E+01
(PID.TID 0000.0001) %MON dynstat_sss_min              =   1.8752722977221E+01
(PID.TID 0000.0001) %MON dynstat_sss_mean             =   3.4640697717239E+01
(PID.TID 0000.0001) %MON dynstat_sss_sd               =   1.4576511785413E+00
(PID.TID 0000.0001) %MON dynstat_sss_del2             =   8.0564882499949E-03
(PID.TID 0000.0001) %MON forcing_qnet_max             =   4.9302703125000E+04
(PID.TID 0000.0001) %MON forcing_qnet_min             =  -9.6829541015625E+03
(PID.TID 0000.0001) %MON forcing_qnet_mean            =  -1.3372110462551E+02
(PID.TID 0000.0001) %MON forcing_qnet_sd              =   1.1715992721707E+03
(PID.TID 0000.0001) %MON forcing_qnet_del2            =   4.5675448805252E+01
(PID.TID 0000.0001) %MON forcing_qsw_max              =   0.0000000000000E+00
(PID.TID 0000.0001) %MON forcing_qsw_min              =   0.0000000000000E+00
(PID.TID 0000.0001) %MON forcing_qsw_mean             =   0.0000000000000E+00
(PID.TID 0000.0001) %MON forcing_qsw_sd               =   0.0000000000000E+00
(PID.TID 0000.0001) %MON forcing_qsw_del2             =   0.0000000000000E+00
(PID.TID 0000.0001) %MON forcing_empmr_max            =   7.7713735401630E-02
(PID.TID 0000.0001) %MON forcing_empmr_min            =  -5.9933215379715E-01
(PID.TID 0000.0001) %MON forcing_empmr_mean           =  -6.1230661441783E-04
(PID.TID 0000.0001) %MON forcing_empmr_sd             =   1.1935913468316E-02
(PID.TID 0000.0001) %MON forcing_empmr_del2           =   4.6861447684916E-04
(PID.TID 0000.0001) %MON forcing_fu_max               =   5.6987781095256E-01
(PID.TID 0000.0001) %MON forcing_fu_min               =  -4.8732787293305E-01
(PID.TID 0000.0001) %MON forcing_fu_mean              =  -4.4598491456282E-03
(PID.TID 0000.0001) %MON forcing_fu_sd                =   7.4600052710094E-02
(PID.TID 0000.0001) %MON forcing_fu_del2              =   7.5259460810829E-04
(PID.TID 0000.0001) %MON forcing_fv_max               =   3.5995201087370E-01
(PID.TID 0000.0001) %MON forcing_fv_min               =  -4.6829082786438E-01
(PID.TID 0000.0001) %MON forcing_fv_mean              =  -1.4090012263000E-02
(PID.TID 0000.0001) %MON forcing_fv_sd                =   7.2503855925313E-02
(PID.TID 0000.0001) %MON forcing_fv_del2              =   6.4145862655893E-04
(PID.TID 0000.0001) %MON trAdv_CFL_u_max              =   3.3155819389324E-03
(PID.TID 0000.0001) %MON trAdv_CFL_v_max              =   5.0123479100975E-03
(PID.TID 0000.0001) %MON trAdv_CFL_w_max              =   9.0887136624844E-03
(PID.TID 0000.0001) %MON advcfl_uvel_max              =   3.5235931529505E-03
(PID.TID 0000.0001) %MON advcfl_vvel_max              =   2.9230553446967E-03
(PID.TID 0000.0001) %MON advcfl_wvel_max              =   2.0846335784249E-02
(PID.TID 0000.0001) %MON advcfl_W_hf_max              =   9.0887136624844E-03
(PID.TID 0000.0001) %MON pe_b_mean                    =   5.3782296237232E-04
(PID.TID 0000.0001) %MON ke_max                       =   5.4126901313887E-01
(PID.TID 0000.0001) %MON ke_mean                      =   1.6170335123676E-04
(PID.TID 0000.0001) %MON ke_vol                       =   1.3398060296436E+18
(PID.TID 0000.0001) %MON vort_r_min                   =  -3.1015132121681E-06
(PID.TID 0000.0001) %MON vort_r_max                   =   3.0598910390681E-06
(PID.TID 0000.0001) %MON vort_a_mean                  =  -2.0549865324846E-05
(PID.TID 0000.0001) %MON vort_a_sd                    =   7.5259525522870E-05
(PID.TID 0000.0001) %MON vort_p_mean                  =  -2.4783420172443E-05
(PID.TID 0000.0001) %MON vort_p_sd                    =   1.2811956550419E-04
(PID.TID 0000.0001) %MON surfExpan_theta_mean         =  -7.1953835793161E-06
(PID.TID 0000.0001) %MON surfExpan_salt_mean          =   8.2680352878315E-07
(PID.TID 0000.0001) // =======================================================
(PID.TID 0000.0001) // End MONITOR dynamic field statistics
(PID.TID 0000.0001) // =======================================================
 cg2d: Sum(rhs),rhsMax =  -6.22955130941052E+00  1.50489568656344E+02
(PID.TID 0000.0001)      cg2d_init_res =   2.42948119341090E-01
(PID.TID 0000.0001)      cg2d_iters(min,last) =      -1       9
(PID.TID 0000.0001)      cg2d_last_res =   5.63179550587148E-08
(PID.TID 0000.0001) // =======================================================
(PID.TID 0000.0001) // Begin MONITOR dynamic field statistics
(PID.TID 0000.0001) // =======================================================
(PID.TID 0000.0001) %MON time_tsnumber                =                 72005
(PID.TID 0000.0001) %MON time_secondsf                =   6.4804500000000E+07
(PID.TID 0000.0001) %MON dynstat_eta_max              =   7.0469896053234E+00
(PID.TID 0000.0001) %MON dynstat_eta_min              =  -1.6213470450888E+00
(PID.TID 0000.0001) %MON dynstat_eta_mean             =   1.0893422245019E-02
(PID.TID 0000.0001) %MON dynstat_eta_sd               =   6.3070829465639E-01
(PID.TID 0000.0001) %MON dynstat_eta_del2             =   5.5666524293632E-03
(PID.TID 0000.0001) %MON dynstat_uvel_max             =   1.2661549616150E+00
(PID.TID 0000.0001) %MON dynstat_uvel_min             =  -6.4857226368979E-01
(PID.TID 0000.0001) %MON dynstat_uvel_mean            =  -3.7002364619558E-04
(PID.TID 0000.0001) %MON dynstat_uvel_sd              =   1.3205101214026E-02
(PID.TID 0000.0001) %MON dynstat_uvel_del2            =   1.1601597305788E-04
(PID.TID 0000.0001) %MON dynstat_vvel_max             =   1.0526991935842E+00
(PID.TID 0000.0001) %MON dynstat_vvel_min             =  -1.1050365604493E+00
(PID.TID 0000.0001) %MON dynstat_vvel_mean            =  -3.7051883741926E-04
(PID.TID 0000.0001) %MON dynstat_vvel_sd              =   1.3751538598622E-02
(PID.TID 0000.0001) %MON dynstat_vvel_del2            =   1.6083613898183E-04
(PID.TID 0000.0001) %MON dynstat_wvel_max             =   1.0407629330825E-04
(PID.TID 0000.0001) %MON dynstat_wvel_min             =  -8.1067736870589E-04
(PID.TID 0000.0001) %MON dynstat_wvel_mean            =  -3.4915487945706E-07
(PID.TID 0000.0001) %MON dynstat_wvel_sd              =   1.0485092900052E-05
(PID.TID 0000.0001) %MON dynstat_wvel_del2            =   9.3808747496370E-08
(PID.TID 0000.0001) %MON dynstat_theta_max            =   3.0924852209207E+01
(PID.TID 0000.0001) %MON dynstat_theta_min            =  -3.0145559974610E+00
(PID.TID 0000.0001) %MON dynstat_theta_mean           =   3.9089795542351E+00
(PID.TID 0000.0001) %MON dynstat_theta_sd             =   4.5707305667683E+00
(PID.TID 0000.0001) %MON dynstat_theta_del2           =   2.6530522371671E-03
(PID.TID 0000.0001) %MON dynstat_salt_max             =   4.1375234653790E+01
(PID.TID 0000.0001) %MON dynstat_salt_min             =   1.8518423378706E+01
(PID.TID 0000.0001) %MON dynstat_salt_mean            =   3.4772172667756E+01
(PID.TID 0000.0001) %MON dynstat_salt_sd              =   5.3097182139518E-01
(PID.TID 0000.0001) %MON dynstat_salt_del2            =   8.0756278245618E-04
(PID.TID 0000.0001) %MON dynstat_sst_max              =   3.0924852209207E+01
(PID.TID 0000.0001) %MON dynstat_sst_min              =  -1.8997848219103E+00
(PID.TID 0000.0001) %MON dynstat_sst_mean             =   1.8101888073224E+01
(PID.TID 0000.0001) %MON dynstat_sst_sd               =   9.8005644995327E+00
(PID.TID 0000.0001) %MON dynstat_sst_del2             =   1.5288283540253E-02
(PID.TID 0000.0001) %MON dynstat_sss_max              =   4.1375234653790E+01
(PID.TID 0000.0001) %MON dynstat_sss_min              =   1.8751621624909E+01
(PID.TID 0000.0001) %MON dynstat_sss_mean             =   3.4640184745263E+01
(PID.TID 0000.0001) %MON dynstat_sss_sd               =   1.4579697491876E+00
(PID.TID 0000.0001) %MON dynstat_sss_del2             =   8.0879121572196E-03
(PID.TID 0000.0001) %MON forcing_qnet_max             =   1.0297356049746E+04
(PID.TID 0000.0001) %MON forcing_qnet_min             =  -1.6052734375000E+04
(PID.TID 0000.0001) %MON forcing_qnet_mean            =  -2.4144099419780E+02
(PID.TID 0000.0001) %MON forcing_qnet_sd              =   7.7005480209397E+02
(PID.TID 0000.0001) %MON forcing_qnet_del2            =   2.7863959535110E+01
(PID.TID 0000.0001) %MON forcing_qsw_max              =   0.0000000000000E+00
(PID.TID 0000.0001) %MON forcing_qsw_min              =  -4.2152551666140E+02
(PID.TID 0000.0001) %MON forcing_qsw_mean             =  -8.7710134283915E+01
(PID.TID 0000.0001) %MON forcing_qsw_sd               =   1.2010766239944E+02
(PID.TID 0000.0001) %MON forcing_qsw_del2             =   9.1336504144926E-01
(PID.TID 0000.0001) %MON forcing_empmr_max            =   2.8360206633806E-02
(PID.TID 0000.0001) %MON forcing_empmr_min            =  -5.0657135248184E-01
(PID.TID 0000.0001) %MON forcing_empmr_mean           =  -5.8763996430519E-04
(PID.TID 0000.0001) %MON forcing_empmr_sd             =   1.0770297420389E-02
(PID.TID 0000.0001) %MON forcing_empmr_del2           =   4.2565155172459E-04
(PID.TID 0000.0001) %MON forcing_fu_max               =   5.8805700192201E-01
(PID.TID 0000.0001) %MON forcing_fu_min               =  -4.6985448870310E-01
(PID.TID 0000.0001) %MON forcing_fu_mean              =  -4.2873192189386E-03
(PID.TID 0000.0001) %MON forcing_fu_sd                =   7.4577727864185E-02
(PID.TID 0000.0001) %MON forcing_fu_del2              =   7.5466109869275E-04
(PID.TID 0000.0001) %MON forcing_fv_max               =   3.6930511075854E-01
(PID.TID 0000.0001) %MON forcing_fv_min               =  -4.3060949357760E-01
(PID.TID 0000.0001) %MON forcing_fv_mean              =  -1.3962029689308E-02
(PID.TID 0000.0001) %MON forcing_fv_sd                =   7.2684081674512E-02
(PID.TID 0000.0001) %MON forcing_fv_del2              =   6.4370746969866E-04
(PID.TID 0000.0001) %MON trAdv_CFL_u_max              =   3.9913696472563E-03
(PID.TID 0000.0001) %MON trAdv_CFL_v_max              =   5.8704976494058E-03
(PID.TID 0000.0001) %MON trAdv_CFL_w_max              =   7.4924807302810E-03
(PID.TID 0000.0001) %MON advcfl_uvel_max              =   4.2223313181647E-03
(PID.TID 0000.0001) %MON advcfl_vvel_max              =   3.4353414620075E-03
(PID.TID 0000.0001) %MON advcfl_wvel_max              =   1.7619873129803E-02
(PID.TID 0000.0001) %MON advcfl_W_hf_max              =   7.4924807302810E-03
(PID.TID 0000.0001) %MON pe_b_mean                    =   5.3009031504439E-04
(PID.TID 0000.0001) %MON ke_max                       =   7.7834234337344E-01
(PID.TID 0000.0001) %MON ke_mean                      =   1.6796514112509E-04
(PID.TID 0000.0001) %MON ke_vol                       =   1.3398062233917E+18
(PID.TID 0000.0001) %MON vort_r_min                   =  -3.6558575066121E-06
(PID.TID 0000.0001) %MON vort_r_max                   =   3.5658031135618E-06
(PID.TID 0000.0001) %MON vort_a_mean                  =  -2.0549865324846E-05
(PID.TID 0000.0001) %MON vort_a_sd                    =   7.5259527126449E-05
(PID.TID 0000.0001) %MON vort_p_mean                  =  -2.4783415409992E-05
(PID.TID 0000.0001) %MON vort_p_sd                    =   1.2811950751202E-04
(PID.TID 0000.0001) %MON surfExpan_theta_mean         =  -7.5142149667116E-06
(PID.TID 0000.0001) %MON surfExpan_salt_mean          =   9.4913723027513E-07
(PID.TID 0000.0001) // =======================================================
(PID.TID 0000.0001) // End MONITOR dynamic field statistics
(PID.TID 0000.0001) // =======================================================
 cg2d: Sum(rhs),rhsMax =  -7.10143260772642E+00  1.37982156432531E+02
(PID.TID 0000.0001)      cg2d_init_res =   2.61196405059381E-01
(PID.TID 0000.0001)      cg2d_iters(min,last) =      -1       9
(PID.TID 0000.0001)      cg2d_last_res =   6.87808533669625E-08
(PID.TID 0000.0001) // =======================================================
(PID.TID 0000.0001) // Begin MONITOR dynamic field statistics
(PID.TID 0000.0001) // =======================================================
(PID.TID 0000.0001) %MON time_tsnumber                =                 72006
(PID.TID 0000.0001) %MON time_secondsf                =   6.4805400000000E+07
(PID.TID 0000.0001) %MON dynstat_eta_max              =   6.4644472077914E+00
(PID.TID 0000.0001) %MON dynstat_eta_min              =  -1.6220209092473E+00
(PID.TID 0000.0001) %MON dynstat_eta_mean             =   1.1385970943241E-02
(PID.TID 0000.0001) %MON dynstat_eta_sd               =   6.2655169083131E-01
(PID.TID 0000.0001) %MON dynstat_eta_del2             =   4.7836518223479E-03
(PID.TID 0000.0001) %MON dynstat_uvel_max             =   1.4499833614878E+00
(PID.TID 0000.0001) %MON dynstat_uvel_min             =  -7.2368919468026E-01
(PID.TID 0000.0001) %MON dynstat_uvel_mean            =  -3.3798924081030E-04
(PID.TID 0000.0001) %MON dynstat_uvel_sd              =   1.3431183385308E-02
(PID.TID 0000.0001) %MON dynstat_uvel_del2            =   1.2576029933115E-04
(PID.TID 0000.0001) %MON dynstat_vvel_max             =   1.1797817689676E+00
(PID.TID 0000.0001) %MON dynstat_vvel_min             =  -1.2630886744749E+00
(PID.TID 0000.0001) %MON dynstat_vvel_mean            =  -3.7083693181033E-04
(PID.TID 0000.0001) %MON dynstat_vvel_sd              =   1.3949891490777E-02
(PID.TID 0000.0001) %MON dynstat_vvel_del2            =   1.7428127879652E-04
(PID.TID 0000.0001) %MON dynstat_wvel_max             =   1.0431014838131E-04
(PID.TID 0000.0001) %MON dynstat_wvel_min             =  -6.9155035617804E-04
(PID.TID 0000.0001) %MON dynstat_wvel_mean            =  -3.9601968634124E-07
(PID.TID 0000.0001) %MON dynstat_wvel_sd              =   1.0259195825405E-05
(PID.TID 0000.0001) %MON dynstat_wvel_del2            =   9.2282532000348E-08
(PID.TID 0000.0001) %MON dynstat_theta_max            =   3.0924615197890E+01
(PID.TID 0000.0001) %MON dynstat_theta_min            =  -3.0136663073045E+00
(PID.TID 0000.0001) %MON dynstat_theta_mean           =   3.9089952496345E+00
(PID.TID 0000.0001) %MON dynstat_theta_sd             =   4.5707855042067E+00
(PID.TID 0000.0001) %MON dynstat_theta_del2           =   2.6523430790249E-03
(PID.TID 0000.0001) %MON dynstat_salt_max             =   4.1374469140608E+01
(PID.TID 0000.0001) %MON dynstat_salt_min             =   1.8518432930873E+01
(PID.TID 0000.0001) %MON dynstat_salt_mean            =   3.4772165635083E+01
(PID.TID 0000.0001) %MON dynstat_salt_sd              =   5.3098609029504E-01
(PID.TID 0000.0001) %MON dynstat_salt_del2            =   8.0996174332033E-04
(PID.TID 0000.0001) %MON dynstat_sst_max              =   3.0924615197890E+01
(PID.TID 0000.0001) %MON dynstat_sst_min              =  -1.8997466591030E+00
(PID.TID 0000.0001) %MON dynstat_sst_mean             =   1.8102813275815E+01
(PID.TID 0000.0001) %MON dynstat_sst_sd               =   9.8009044524499E+00
(PID.TID 0000.0001) %MON dynstat_sst_del2             =   1.5270168730059E-02
(PID.TID 0000.0001) %MON dynstat_sss_max              =   4.1374469140608E+01
(PID.TID 0000.0001) %MON dynstat_sss_min              =   1.8751421386053E+01
(PID.TID 0000.0001) %MON dynstat_sss_mean             =   3.4639680653180E+01
(PID.TID 0000.0001) %MON dynstat_sss_sd               =   1.4583006999693E+00
(PID.TID 0000.0001) %MON dynstat_sss_del2             =   8.1255430636574E-03
(PID.TID 0000.0001) %MON forcing_qnet_max             =   1.1809890631824E+04
(PID.TID 0000.0001) %MON forcing_qnet_min             =  -3.3347046875000E+04
(PID.TID 0000.0001) %MON forcing_qnet_mean            =  -2.1646857338356E+02
(PID.TID 0000.0001) %MON forcing_qnet_sd              =   7.7768477444034E+02
(PID.TID 0000.0001) %MON forcing_qnet_del2            =   3.4007067878386E+01
(PID.TID 0000.0001) %MON forcing_qsw_max              =   0.0000000000000E+00
(PID.TID 0000.0001) %MON forcing_qsw_min              =  -4.1888626434373E+02
(PID.TID 0000.0001) %MON forcing_qsw_mean             =  -8.7856691159436E+01
(PID.TID 0000.0001) %MON forcing_qsw_sd               =   1.2017599258712E+02
(PID.TID 0000.0001) %MON forcing_qsw_del2             =   9.1662298604491E-01
(PID.TID 0000.0001) %MON forcing_empmr_max            =   2.9308961704373E-02
(PID.TID 0000.0001) %MON forcing_empmr_min            =  -4.3649327754974E-01
(PID.TID 0000.0001) %MON forcing_empmr_mean           =  -5.6643100295575E-04
(PID.TID 0000.0001) %MON forcing_empmr_sd             =   9.9333973097386E-03
(PID.TID 0000.0001) %MON forcing_empmr_del2           =   3.9504694857557E-04
(PID.TID 0000.0001) %MON forcing_fu_max               =   6.1003044262090E-01
(PID.TID 0000.0001) %MON forcing_fu_min               =  -4.4550355101385E-01
(PID.TID 0000.0001) %MON forcing_fu_mean              =  -4.1642004458442E-03
(PID.TID 0000.0001) %MON forcing_fu_sd                =   7.4509001426719E-02
(PID.TID 0000.0001) %MON forcing_fu_del2              =   7.5516742865707E-04
(PID.TID 0000.0001) %MON forcing_fv_max               =   3.6919156971385E-01
(PID.TID 0000.0001) %MON forcing_fv_min               =  -3.9409589493100E-01
(PID.TID 0000.0001) %MON forcing_fv_mean              =  -1.3893777719831E-02
(PID.TID 0000.0001) %MON forcing_fv_sd                =   7.2784507172973E-02
(PID.TID 0000.0001) %MON forcing_fv_del2              =   6.4283357521365E-04
(PID.TID 0000.0001) %MON trAdv_CFL_u_max              =   4.5939056062491E-03
(PID.TID 0000.0001) %MON trAdv_CFL_v_max              =   6.7150422966054E-03
(PID.TID 0000.0001) %MON trAdv_CFL_w_max              =   6.4700929483802E-03
(PID.TID 0000.0001) %MON advcfl_uvel_max              =   4.8353561322530E-03
(PID.TID 0000.0001) %MON advcfl_vvel_max              =   3.8500582614259E-03
(PID.TID 0000.0001) %MON advcfl_wvel_max              =   1.5182374871295E-02
(PID.TID 0000.0001) %MON advcfl_W_hf_max              =   6.4700929483802E-03
(PID.TID 0000.0001) %MON pe_b_mean                    =   5.2314297429952E-04
(PID.TID 0000.0001) %MON ke_max                       =   1.0178341165965E+00
(PID.TID 0000.0001) %MON ke_mean                      =   1.7327114507087E-04
(PID.TID 0000.0001) %MON ke_vol                       =   1.3398064093346E+18
(PID.TID 0000.0001) %MON vort_r_min                   =  -4.1690397440674E-06
(PID.TID 0000.0001) %MON vort_r_max                   =   3.9557433559666E-06
(PID.TID 0000.0001) %MON vort_a_mean                  =  -2.0549865324846E-05
(PID.TID 0000.0001) %MON vort_a_sd                    =   7.5259528011600E-05
(PID.TID 0000.0001) %MON vort_p_mean                  =  -2.4783410636486E-05
(PID.TID 0000.0001) %MON vort_p_sd                    =   1.2811945055224E-04
(PID.TID 0000.0001) %MON surfExpan_theta_mean         =  -7.7504726791916E-06
(PID.TID 0000.0001) %MON surfExpan_salt_mean          =   1.0745506015295E-06
(PID.TID 0000.0001) // =======================================================
(PID.TID 0000.0001) // End MONITOR dynamic field statistics
(PID.TID 0000.0001) // =======================================================
 cg2d: Sum(rhs),rhsMax =  -8.21389924363915E+00  1.24274827950976E+02
(PID.TID 0000.0001)      cg2d_init_res =   2.81136880873968E-01
(PID.TID 0000.0001)      cg2d_iters(min,last) =      -1       9
(PID.TID 0000.0001)      cg2d_last_res =   8.11414029388457E-08
(PID.TID 0000.0001) // =======================================================
(PID.TID 0000.0001) // Begin MONITOR dynamic field statistics
(PID.TID 0000.0001) // =======================================================
(PID.TID 0000.0001) %MON time_tsnumber                =                 72007
(PID.TID 0000.0001) %MON time_secondsf                =   6.4806300000000E+07
(PID.TID 0000.0001) %MON dynstat_eta_max              =   5.8257571637445E+00
(PID.TID 0000.0001) %MON dynstat_eta_min              =  -2.3303136588073E+00
(PID.TID 0000.0001) %MON dynstat_eta_mean             =   1.1861338910283E-02
(PID.TID 0000.0001) %MON dynstat_eta_sd               =   6.2285131876748E-01
(PID.TID 0000.0001) %MON dynstat_eta_del2             =   4.0732894462936E-03
(PID.TID 0000.0001) %MON dynstat_uvel_max             =   1.6068820014367E+00
(PID.TID 0000.0001) %MON dynstat_uvel_min             =  -7.8952140548242E-01
(PID.TID 0000.0001) %MON dynstat_uvel_mean            =  -3.0588520218189E-04
(PID.TID 0000.0001) %MON dynstat_uvel_sd              =   1.3620899784492E-02
(PID.TID 0000.0001) %MON dynstat_uvel_del2            =   1.3291179026016E-04
(PID.TID 0000.0001) %MON dynstat_vvel_max             =   1.2764597536744E+00
(PID.TID 0000.0001) %MON dynstat_vvel_min             =  -1.3944394814755E+00
(PID.TID 0000.0001) %MON dynstat_vvel_mean            =  -3.7407760975733E-04
(PID.TID 0000.0001) %MON dynstat_vvel_sd              =   1.4104895323617E-02
(PID.TID 0000.0001) %MON dynstat_vvel_del2            =   1.8293984702891E-04
(PID.TID 0000.0001) %MON dynstat_wvel_max             =   1.0456443131717E-04
(PID.TID 0000.0001) %MON dynstat_wvel_min             =  -5.3424503678238E-04
(PID.TID 0000.0001) %MON dynstat_wvel_mean            =  -4.3023431966286E-07
(PID.TID 0000.0001) %MON dynstat_wvel_sd              =   9.8141812161920E-06
(PID.TID 0000.0001) %MON dynstat_wvel_del2            =   8.9689081926744E-08
(PID.TID 0000.0001) %MON dynstat_theta_max            =   3.0924387183042E+01
(PID.TID 0000.0001) %MON dynstat_theta_min            =  -3.0128716838088E+00
(PID.TID 0000.0001) %MON dynstat_theta_mean           =   3.9090096171649E+00
(PID.TID 0000.0001) %MON dynstat_theta_sd             =   4.5708368355652E+00
(PID.TID 0000.0001) %MON dynstat_theta_del2           =   2.6519375838819E-03
(PID.TID 0000.0001) %MON dynstat_salt_max             =   4.1373639682998E+01
(PID.TID 0000.0001) %MON dynstat_salt_min             =   1.8518442467215E+01
(PID.TID 0000.0001) %MON dynstat_salt_mean            =   3.4772158717430E+01
(PID.TID 0000.0001) %MON dynstat_salt_sd              =   5.3100113608238E-01
(PID.TID 0000.0001) %MON dynstat_salt_del2            =   8.1283083110571E-04
(PID.TID 0000.0001) %MON dynstat_sst_max              =   3.0924387183042E+01
(PID.TID 0000.0001) %MON dynstat_sst_min              =  -1.8997095115040E+00
(PID.TID 0000.0001) %MON dynstat_sst_mean             =   1.8103653978358E+01
(PID.TID 0000.0001) %MON dynstat_sst_sd               =   9.8012599341834E+00
(PID.TID 0000.0001) %MON dynstat_sst_del2             =   1.5260298334884E-02
(PID.TID 0000.0001) %MON dynstat_sss_max              =   4.1373639682998E+01
(PID.TID 0000.0001) %MON dynstat_sss_min              =   1.8751385404437E+01
(PID.TID 0000.0001) %MON dynstat_sss_mean             =   3.4639186608816E+01
(PID.TID 0000.0001) %MON dynstat_sss_sd               =   1.4586555562016E+00
(PID.TID 0000.0001) %MON dynstat_sss_del2             =   8.1704729295149E-03
(PID.TID 0000.0001) %MON forcing_qnet_max             =   7.8231214964400E+03
(PID.TID 0000.0001) %MON forcing_qnet_min             =  -9.6025117187500E+03
(PID.TID 0000.0001) %MON forcing_qnet_mean            =  -1.9577219715194E+02
(PID.TID 0000.0001) %MON forcing_qnet_sd              =   6.2500350879426E+02
(PID.TID 0000.0001) %MON forcing_qnet_del2            =   2.0890585142367E+01
(PID.TID 0000.0001) %MON forcing_qsw_max              =   0.0000000000000E+00
(PID.TID 0000.0001) %MON forcing_qsw_min              =  -4.1446992092073E+02
(PID.TID 0000.0001) %MON forcing_qsw_mean             =  -8.7694937760963E+01
(PID.TID 0000.0001) %MON forcing_qsw_sd               =   1.2006111097246E+02
(PID.TID 0000.0001) %MON forcing_qsw_del2             =   9.1908074109899E-01
(PID.TID 0000.0001) %MON forcing_empmr_max            =   2.9630113393068E-02
(PID.TID 0000.0001) %MON forcing_empmr_min            =  -3.7781307101250E-01
(PID.TID 0000.0001) %MON forcing_empmr_mean           =  -5.4667316209742E-04
(PID.TID 0000.0001) %MON forcing_empmr_sd             =   9.2582075759134E-03
(PID.TID 0000.0001) %MON forcing_empmr_del2           =   3.7045148638010E-04
(PID.TID 0000.0001) %MON forcing_fu_max               =   6.3566311376125E-01
(PID.TID 0000.0001) %MON forcing_fu_min               =  -4.1698865009337E-01
(PID.TID 0000.0001) %MON forcing_fu_mean              =  -4.0955872244715E-03
(PID.TID 0000.0001) %MON forcing_fu_sd                =   7.4489890911485E-02
(PID.TID 0000.0001) %MON forcing_fu_del2              =   7.5691302880631E-04
(PID.TID 0000.0001) %MON forcing_fv_max               =   3.6428942437065E-01
(PID.TID 0000.0001) %MON forcing_fv_min               =  -3.6234219358317E-01
(PID.TID 0000.0001) %MON forcing_fv_mean              =  -1.3823590330965E-02
(PID.TID 0000.0001) %MON forcing_fv_sd                =   7.2868506144389E-02
(PID.TID 0000.0001) %MON forcing_fv_del2              =   6.4170500982569E-04
(PID.TID 0000.0001) %MON trAdv_CFL_u_max              =   5.1176046140785E-03
(PID.TID 0000.0001) %MON trAdv_CFL_v_max              =   7.4244447025768E-03
(PID.TID 0000.0001) %MON trAdv_CFL_w_max              =   6.8372203315811E-03
(PID.TID 0000.0001) %MON advcfl_uvel_max              =   5.3585764815129E-03
(PID.TID 0000.0001) %MON advcfl_vvel_max              =   4.1788135819337E-03
(PID.TID 0000.0001) %MON advcfl_wvel_max              =   1.3141324209130E-02
(PID.TID 0000.0001) %MON advcfl_W_hf_max              =   6.8372203315811E-03
(PID.TID 0000.0001) %MON pe_b_mean                    =   5.1699861398376E-04
(PID.TID 0000.0001) %MON ke_max                       =   1.2417902132046E+00
(PID.TID 0000.0001) %MON ke_mean                      =   1.7763873509339E-04
(PID.TID 0000.0001) %MON ke_vol                       =   1.3398065885666E+18
(PID.TID 0000.0001) %MON vort_r_min                   =  -4.6025855004875E-06
(PID.TID 0000.0001) %MON vort_r_max                   =   4.2289084053055E-06
(PID.TID 0000.0001) %MON vort_a_mean                  =  -2.0549865324846E-05
(PID.TID 0000.0001) %MON vort_a_sd                    =   7.5259528196914E-05
(PID.TID 0000.0001) %MON vort_p_mean                  =  -2.4783405910912E-05
(PID.TID 0000.0001) %MON vort_p_sd                    =   1.2811939583136E-04
(PID.TID 0000.0001) %MON surfExpan_theta_mean         =  -7.8671365933091E-06
(PID.TID 0000.0001) %MON surfExpan_salt_mean          =   1.1930779072446E-06
(PID.TID 0000.0001) // =======================================================
(PID.TID 0000.0001) // End MONITOR dynamic field statistics
(PID.TID 0000.0001) // =======================================================
 Computing Diagnostic #     81  oceTAUX      Counter:       1   Parms: UU      U1      
           Vector  Mate for  oceTAUX      Diagnostic #     82  oceTAUY  exists 
 Computing Diagnostic #     82  oceTAUY      Counter:       1   Parms: VV      U1      
           Vector  Mate for  oceTAUY      Diagnostic #     81  oceTAUX  exists 
 Computing Diagnostic #     85  oceFWflx     Counter:       1   Parms: SM      U1      
 Computing Diagnostic #     86  oceSflux     Counter:       1   Parms: SM      U1      
 Computing Diagnostic #     87  oceQnet      Counter:       1   Parms: SM      U1      
 Computing Diagnostic #     88  oceQsw       Counter:       1   Parms: SM      U1      
 Computing Diagnostic #     27  SALT         Counter:       1   Parms: SMR     MR      
 Computing Diagnostic #     26  THETA        Counter:       1   Parms: SMR     MR      
 Computing Diagnostic #     45  UVELMASS     Counter:       1   Parms: UUr     MR      
           Vector  Mate for  UVELMASS     Diagnostic #     46  VVELMASS exists 
 Computing Diagnostic #     46  VVELMASS     Counter:       1   Parms: VVr     MR      
           Vector  Mate for  VVELMASS     Diagnostic #     45  UVELMASS exists 
 cg2d: Sum(rhs),rhsMax =  -9.66911806655312E+00  1.09668227949766E+02
(PID.TID 0000.0001)      cg2d_init_res =   3.07346993307593E-01
(PID.TID 0000.0001)      cg2d_iters(min,last) =      -1       9
(PID.TID 0000.0001)      cg2d_last_res =   9.25030746027228E-08
(PID.TID 0000.0001) // =======================================================
(PID.TID 0000.0001) // Begin MONITOR dynamic field statistics
(PID.TID 0000.0001) // =======================================================
(PID.TID 0000.0001) %MON time_tsnumber                =                 72008
(PID.TID 0000.0001) %MON time_secondsf                =   6.4807200000000E+07
(PID.TID 0000.0001) %MON dynstat_eta_max              =   5.1448840058722E+00
(PID.TID 0000.0001) %MON dynstat_eta_min              =  -2.6957480162775E+00
(PID.TID 0000.0001) %MON dynstat_eta_mean             =   1.2321649836267E-02
(PID.TID 0000.0001) %MON dynstat_eta_sd               =   6.1957538093467E-01
(PID.TID 0000.0001) %MON dynstat_eta_del2             =   3.4751537105424E-03
(PID.TID 0000.0001) %MON dynstat_uvel_max             =   1.7365075802431E+00
(PID.TID 0000.0001) %MON dynstat_uvel_min             =  -8.4564608263850E-01
(PID.TID 0000.0001) %MON dynstat_uvel_mean            =  -2.7457785355878E-04
(PID.TID 0000.0001) %MON dynstat_uvel_sd              =   1.3785352210224E-02
(PID.TID 0000.0001) %MON dynstat_uvel_del2            =   1.3786681889685E-04
(PID.TID 0000.0001) %MON dynstat_vvel_max             =   1.3426315511530E+00
(PID.TID 0000.0001) %MON dynstat_vvel_min             =  -1.4974189529153E+00
(PID.TID 0000.0001) %MON dynstat_vvel_mean            =  -3.7983713139717E-04
(PID.TID 0000.0001) %MON dynstat_vvel_sd              =   1.4217645124969E-02
(PID.TID 0000.0001) %MON dynstat_vvel_del2            =   1.8728975869995E-04
(PID.TID 0000.0001) %MON dynstat_wvel_max             =   1.0483865895479E-04
(PID.TID 0000.0001) %MON dynstat_wvel_min             =  -5.4859546014117E-04
(PID.TID 0000.0001) %MON dynstat_wvel_mean            =  -4.5182612436822E-07
(PID.TID 0000.0001) %MON dynstat_wvel_sd              =   9.3252829400417E-06
(PID.TID 0000.0001) %MON dynstat_wvel_del2            =   8.6592794179122E-08
(PID.TID 0000.0001) %MON dynstat_theta_max            =   3.0924173995070E+01
(PID.TID 0000.0001) %MON dynstat_theta_min            =  -3.0122109928736E+00
(PID.TID 0000.0001) %MON dynstat_theta_mean           =   3.9090232532052E+00
(PID.TID 0000.0001) %MON dynstat_theta_sd             =   4.5708855597755E+00
(PID.TID 0000.0001) %MON dynstat_theta_del2           =   2.6515561178939E-03
(PID.TID 0000.0001) %MON dynstat_salt_max             =   4.1372762315075E+01
(PID.TID 0000.0001) %MON dynstat_salt_min             =   1.8518452010174E+01
(PID.TID 0000.0001) %MON dynstat_salt_mean            =   3.4772152027858E+01
(PID.TID 0000.0001) %MON dynstat_salt_sd              =   5.3101684790015E-01
(PID.TID 0000.0001) %MON dynstat_salt_del2            =   8.1606802539366E-04
(PID.TID 0000.0001) %MON dynstat_sst_max              =   3.0924173995070E+01
(PID.TID 0000.0001) %MON dynstat_sst_min              =  -1.8996747441501E+00
(PID.TID 0000.0001) %MON dynstat_sst_mean             =   1.8104443098240E+01
(PID.TID 0000.0001) %MON dynstat_sst_sd               =   9.8015968251251E+00
(PID.TID 0000.0001) %MON dynstat_sst_del2             =   1.5250931391339E-02
(PID.TID 0000.0001) %MON dynstat_sss_max              =   4.1372762315075E+01
(PID.TID 0000.0001) %MON dynstat_sss_min              =   1.8751379291318E+01
(PID.TID 0000.0001) %MON dynstat_sss_mean             =   3.4638706705575E+01
(PID.TID 0000.0001) %MON dynstat_sss_sd               =   1.4590272803449E+00
(PID.TID 0000.0001) %MON dynstat_sss_del2             =   8.2210692148850E-03
(PID.TID 0000.0001) %MON forcing_qnet_max             =   6.0842377929688E+03
(PID.TID 0000.0001) %MON forcing_qnet_min             =  -1.1108967773438E+04
(PID.TID 0000.0001) %MON forcing_qnet_mean            =  -1.8497776287478E+02
(PID.TID 0000.0001) %MON forcing_qnet_sd              =   5.8079248329609E+02
(PID.TID 0000.0001) %MON forcing_qnet_del2            =   1.9854937008538E+01
(PID.TID 0000.0001) %MON forcing_qsw_max              =   0.0000000000000E+00
(PID.TID 0000.0001) %MON forcing_qsw_min              =  -4.1394163710070E+02
(PID.TID 0000.0001) %MON forcing_qsw_mean             =  -8.7249171298493E+01
(PID.TID 0000.0001) %MON forcing_qsw_sd               =   1.1974629384058E+02
(PID.TID 0000.0001) %MON forcing_qsw_del2             =   9.2065710514483E-01
(PID.TID 0000.0001) %MON forcing_empmr_max            =   2.9572958126664E-02
(PID.TID 0000.0001) %MON forcing_empmr_min            =  -3.2989573478699E-01
(PID.TID 0000.0001) %MON forcing_empmr_mean           =  -5.2935756488146E-04
(PID.TID 0000.0001) %MON forcing_empmr_sd             =   8.7185970408104E-03
(PID.TID 0000.0001) %MON forcing_empmr_del2           =   3.5057837831388E-04
(PID.TID 0000.0001) %MON forcing_fu_max               =   6.5940273129680E-01
(PID.TID 0000.0001) %MON forcing_fu_min               =  -3.9677416145115E-01
(PID.TID 0000.0001) %MON forcing_fu_mean              =  -4.0926639879951E-03
(PID.TID 0000.0001) %MON forcing_fu_sd                =   7.4538360015231E-02
(PID.TID 0000.0001) %MON forcing_fu_del2              =   7.5970134088712E-04
(PID.TID 0000.0001) %MON forcing_fv_max               =   3.5876336148851E-01
(PID.TID 0000.0001) %MON forcing_fv_min               =  -3.3687320153730E-01
(PID.TID 0000.0001) %MON forcing_fv_mean              =  -1.3748195075141E-02
(PID.TID 0000.0001) %MON forcing_fv_sd                =   7.2971792946553E-02
(PID.TID 0000.0001) %MON forcing_fv_del2              =   6.4139799414846E-04
(PID.TID 0000.0001) %MON trAdv_CFL_u_max              =   5.5592009858536E-03
(PID.TID 0000.0001) %MON trAdv_CFL_v_max              =   7.9924928686468E-03
(PID.TID 0000.0001) %MON trAdv_CFL_w_max              =   7.0351784478725E-03
(PID.TID 0000.0001) %MON advcfl_uvel_max              =   5.7908475364962E-03
(PID.TID 0000.0001) %MON advcfl_vvel_max              =   4.4874193117842E-03
(PID.TID 0000.0001) %MON advcfl_wvel_max              =   1.1474634253460E-02
(PID.TID 0000.0001) %MON advcfl_W_hf_max              =   7.0351784478725E-03
(PID.TID 0000.0001) %MON pe_b_mean                    =   5.1159125196393E-04
(PID.TID 0000.0001) %MON ke_max                       =   1.4346858431024E+00
(PID.TID 0000.0001) %MON ke_mean                      =   1.8118512715328E-04
(PID.TID 0000.0001) %MON ke_vol                       =   1.3398067615467E+18
(PID.TID 0000.0001) %MON vort_r_min                   =  -4.9424868216945E-06
(PID.TID 0000.0001) %MON vort_r_max                   =   4.3865307064984E-06
(PID.TID 0000.0001) %MON vort_a_mean                  =  -2.0549865324846E-05
(PID.TID 0000.0001) %MON vort_a_sd                    =   7.5259527770562E-05
(PID.TID 0000.0001) %MON vort_p_mean                  =  -2.4783401285861E-05
(PID.TID 0000.0001) %MON vort_p_sd                    =   1.2811934458556E-04
(PID.TID 0000.0001) %MON surfExpan_theta_mean         =  -7.9001538917487E-06
(PID.TID 0000.0001) %MON surfExpan_salt_mean          =   1.2989776598030E-06
(PID.TID 0000.0001) // =======================================================
(PID.TID 0000.0001) // End MONITOR dynamic field statistics
(PID.TID 0000.0001) // =======================================================
 cg2d: Sum(rhs),rhsMax =  -1.16328738358802E+01  9.44616462115245E+01
(PID.TID 0000.0001)      cg2d_init_res =   3.46627399695698E-01
(PID.TID 0000.0001)      cg2d_iters(min,last) =      -1      10
(PID.TID 0000.0001)      cg2d_last_res =   2.24700457087675E-08
(PID.TID 0000.0001) // =======================================================
(PID.TID 0000.0001) // Begin MONITOR dynamic field statistics
(PID.TID 0000.0001) // =======================================================
(PID.TID 0000.0001) %MON time_tsnumber                =                 72009
(PID.TID 0000.0001) %MON time_secondsf                =   6.4808100000000E+07
(PID.TID 0000.0001) %MON dynstat_eta_max              =   4.4357448842596E+00
(PID.TID 0000.0001) %MON dynstat_eta_min              =  -2.6956804688532E+00
(PID.TID 0000.0001) %MON dynstat_eta_mean             =   1.2768612319000E-02
(PID.TID 0000.0001) %MON dynstat_eta_sd               =   6.1671650817358E-01
(PID.TID 0000.0001) %MON dynstat_eta_del2             =   3.0102860650648E-03
(PID.TID 0000.0001) %MON dynstat_uvel_max             =   1.8391962405055E+00
(PID.TID 0000.0001) %MON dynstat_uvel_min             =  -8.9179837669531E-01
(PID.TID 0000.0001) %MON dynstat_uvel_mean            =  -2.4462946502481E-04
(PID.TID 0000.0001) %MON dynstat_uvel_sd              =   1.3931866275113E-02
(PID.TID 0000.0001) %MON dynstat_uvel_del2            =   1.4106300330589E-04
(PID.TID 0000.0001) %MON dynstat_vvel_max             =   1.3786144508508E+00
(PID.TID 0000.0001) %MON dynstat_vvel_min             =  -1.5709879848518E+00
(PID.TID 0000.0001) %MON dynstat_vvel_mean            =  -3.8747021340723E-04
(PID.TID 0000.0001) %MON dynstat_vvel_sd              =   1.4288847809254E-02
(PID.TID 0000.0001) %MON dynstat_vvel_del2            =   1.8790203897604E-04
(PID.TID 0000.0001) %MON dynstat_wvel_max             =   1.0513255828816E-04
(PID.TID 0000.0001) %MON dynstat_wvel_min             =  -5.5294742682642E-04
(PID.TID 0000.0001) %MON dynstat_wvel_mean            =  -4.6206795452421E-07
(PID.TID 0000.0001) %MON dynstat_wvel_sd              =   8.9293424858491E-06
(PID.TID 0000.0001) %MON dynstat_wvel_del2            =   8.3640544901560E-08
(PID.TID 0000.0001) %MON dynstat_theta_max            =   3.0924012730633E+01
(PID.TID 0000.0001) %MON dynstat_theta_min            =  -3.0116904082914E+00
(PID.TID 0000.0001) %MON dynstat_theta_mean           =   3.9090362330875E+00
(PID.TID 0000.0001) %MON dynstat_theta_sd             =   4.5709324146249E+00
(PID.TID 0000.0001) %MON dynstat_theta_del2           =   2.6511998350382E-03
(PID.TID 0000.0001) %MON dynstat_salt_max             =   4.1371845295223E+01
(PID.TID 0000.0001) %MON dynstat_salt_min             =   1.8518461582412E+01
(PID.TID 0000.0001) %MON dynstat_salt_mean            =   3.4772145497892E+01
(PID.TID 0000.0001) %MON dynstat_salt_sd              =   5.3103319559407E-01
(PID.TID 0000.0001) %MON dynstat_salt_del2            =   8.1962819009782E-04
(PID.TID 0000.0001) %MON dynstat_sst_max              =   3.0924012730633E+01
(PID.TID 0000.0001) %MON dynstat_sst_min              =  -1.8996425221642E+00
(PID.TID 0000.0001) %MON dynstat_sst_mean             =   1.8105192360963E+01
(PID.TID 0000.0001) %MON dynstat_sst_sd               =   9.8019315846937E+00
(PID.TID 0000.0001) %MON dynstat_sst_del2             =   1.5242233810689E-02
(PID.TID 0000.0001) %MON dynstat_sss_max              =   4.1371845295223E+01
(PID.TID 0000.0001) %MON dynstat_sss_min              =   1.8751378681632E+01
(PID.TID 0000.0001) %MON dynstat_sss_mean             =   3.4638237944938E+01
(PID.TID 0000.0001) %MON dynstat_sss_sd               =   1.4594174121096E+00
(PID.TID 0000.0001) %MON dynstat_sss_del2             =   8.2765934509948E-03
(PID.TID 0000.0001) %MON forcing_qnet_max             =   1.0216611328125E+04
(PID.TID 0000.0001) %MON forcing_qnet_min             =  -1.3176491210938E+04
(PID.TID 0000.0001) %MON forcing_qnet_mean            =  -1.7515914859739E+02
(PID.TID 0000.0001) %MON forcing_qnet_sd              =   5.6937041297355E+02
(PID.TID 0000.0001) %MON forcing_qnet_del2            =   2.0680791307084E+01
(PID.TID 0000.0001) %MON forcing_qsw_max              =   0.0000000000000E+00
(PID.TID 0000.0001) %MON forcing_qsw_min              =  -4.2009584065168E+02
(PID.TID 0000.0001) %MON forcing_qsw_mean             =  -8.9106074812118E+01
(PID.TID 0000.0001) %MON forcing_qsw_sd               =   1.2206025012706E+02
(PID.TID 0000.0001) %MON forcing_qsw_del2             =   9.3041317953274E-01
(PID.TID 0000.0001) %MON forcing_empmr_max            =   2.9304757714272E-02
(PID.TID 0000.0001) %MON forcing_empmr_min            =  -2.9141420125961E-01
(PID.TID 0000.0001) %MON forcing_empmr_mean           =  -5.1400685514319E-04
(PID.TID 0000.0001) %MON forcing_empmr_sd             =   8.2904739305448E-03
(PID.TID 0000.0001) %MON forcing_empmr_del2           =   3.3445215241941E-04
(PID.TID 0000.0001) %MON forcing_fu_max               =   6.8050705653772E-01
(PID.TID 0000.0001) %MON forcing_fu_min               =  -4.2407736317124E-01
(PID.TID 0000.0001) %MON forcing_fu_mean              =  -4.1293737005990E-03
(PID.TID 0000.0001) %MON forcing_fu_sd                =   7.4717217118171E-02
(PID.TID 0000.0001) %MON forcing_fu_del2              =   7.6359505128435E-04
(PID.TID 0000.0001) %MON forcing_fv_max               =   3.5491939706255E-01
(PID.TID 0000.0001) %MON forcing_fv_min               =  -3.2633511154828E-01
(PID.TID 0000.0001) %MON forcing_fv_mean              =  -1.3602315732386E-02
(PID.TID 0000.0001) %MON forcing_fv_sd                =   7.3170694227678E-02
(PID.TID 0000.0001) %MON forcing_fv_del2              =   6.4345631728470E-04
(PID.TID 0000.0001) %MON trAdv_CFL_u_max              =   5.9174561041327E-03
(PID.TID 0000.0001) %MON trAdv_CFL_v_max              =   8.4146150938031E-03
(PID.TID 0000.0001) %MON trAdv_CFL_w_max              =   7.0901535051208E-03
(PID.TID 0000.0001) %MON advcfl_uvel_max              =   6.1332902543237E-03
(PID.TID 0000.0001) %MON advcfl_vvel_max              =   4.7078887362015E-03
(PID.TID 0000.0001) %MON advcfl_wvel_max              =   1.0136146130769E-02
(PID.TID 0000.0001) %MON advcfl_W_hf_max              =   7.0901535051208E-03
(PID.TID 0000.0001) %MON pe_b_mean                    =   5.0689766782277E-04
(PID.TID 0000.0001) %MON ke_max                       =   1.5842228109680E+00
(PID.TID 0000.0001) %MON ke_mean                      =   1.8398848621479E-04
(PID.TID 0000.0001) %MON ke_vol                       =   1.3398069290477E+18
(PID.TID 0000.0001) %MON vort_r_min                   =  -5.1853139677800E-06
(PID.TID 0000.0001) %MON vort_r_max                   =   4.4317172492453E-06
(PID.TID 0000.0001) %MON vort_a_mean                  =  -2.0549865324846E-05
(PID.TID 0000.0001) %MON vort_a_sd                    =   7.5259526842918E-05
(PID.TID 0000.0001) %MON vort_p_mean                  =  -2.4783396790908E-05
(PID.TID 0000.0001) %MON vort_p_sd                    =   1.2811929786222E-04
(PID.TID 0000.0001) %MON surfExpan_theta_mean         =  -7.8799188468626E-06
(PID.TID 0000.0001) %MON surfExpan_salt_mean          =   1.3899492164677E-06
(PID.TID 0000.0001) // =======================================================
(PID.TID 0000.0001) // End MONITOR dynamic field statistics
(PID.TID 0000.0001) // =======================================================
 cg2d: Sum(rhs),rhsMax =  -1.43931624163206E+01  7.89466407455919E+01
(PID.TID 0000.0001)      cg2d_init_res =   4.08229787952961E-01
(PID.TID 0000.0001)      cg2d_iters(min,last) =      -1      10
(PID.TID 0000.0001)      cg2d_last_res =   2.79586300397244E-08
(PID.TID 0000.0001) // =======================================================
(PID.TID 0000.0001) // Begin MONITOR dynamic field statistics
(PID.TID 0000.0001) // =======================================================
(PID.TID 0000.0001) %MON time_tsnumber                =                 72010
(PID.TID 0000.0001) %MON time_secondsf                =   6.4809000000000E+07
(PID.TID 0000.0001) %MON dynstat_eta_max              =   3.7119101480712E+00
(PID.TID 0000.0001) %MON dynstat_eta_min              =  -2.3913921094974E+00
(PID.TID 0000.0001) %MON dynstat_eta_mean             =   1.3203560338173E-02
(PID.TID 0000.0001) %MON dynstat_eta_sd               =   6.1432870597641E-01
(PID.TID 0000.0001) %MON dynstat_eta_del2             =   2.6847696433017E-03
(PID.TID 0000.0001) %MON dynstat_uvel_max             =   1.9157581481022E+00
(PID.TID 0000.0001) %MON dynstat_uvel_min             =  -9.2786836763854E-01
(PID.TID 0000.0001) %MON dynstat_uvel_mean            =  -2.1629064527140E-04
(PID.TID 0000.0001) %MON dynstat_uvel_sd              =   1.4059195489191E-02
(PID.TID 0000.0001) %MON dynstat_uvel_del2            =   1.4283424347336E-04
(PID.TID 0000.0001) %MON dynstat_vvel_max             =   1.3851805443933E+00
(PID.TID 0000.0001) %MON dynstat_vvel_min             =  -1.6147332407490E+00
(PID.TID 0000.0001) %MON dynstat_vvel_mean            =  -3.9620241718912E-04
(PID.TID 0000.0001) %MON dynstat_vvel_sd              =   1.4319078633081E-02
(PID.TID 0000.0001) %MON dynstat_vvel_del2            =   1.8537384579145E-04
(PID.TID 0000.0001) %MON dynstat_wvel_max             =   1.0544552573107E-04
(PID.TID 0000.0001) %MON dynstat_wvel_min             =  -5.4821907885844E-04
(PID.TID 0000.0001) %MON dynstat_wvel_mean            =  -4.6292923581969E-07
(PID.TID 0000.0001) %MON dynstat_wvel_sd              =   8.6904963954409E-06
(PID.TID 0000.0001) %MON dynstat_wvel_del2            =   8.1378454372776E-08
(PID.TID 0000.0001) %MON dynstat_theta_max            =   3.0923881080224E+01
(PID.TID 0000.0001) %MON dynstat_theta_min            =  -3.0112889434049E+00
(PID.TID 0000.0001) %MON dynstat_theta_mean           =   3.9090480726464E+00
(PID.TID 0000.0001) %MON dynstat_theta_sd             =   4.5709763827305E+00
(PID.TID 0000.0001) %MON dynstat_theta_del2           =   2.6508819286537E-03
(PID.TID 0000.0001) %MON dynstat_salt_max             =   4.1370901605801E+01
(PID.TID 0000.0001) %MON dynstat_salt_min             =   1.8518471201769E+01
(PID.TID 0000.0001) %MON dynstat_salt_mean            =   3.4772139084676E+01
(PID.TID 0000.0001) %MON dynstat_salt_sd              =   5.3104997651036E-01
(PID.TID 0000.0001) %MON dynstat_salt_del2            =   8.2347283987315E-04
(PID.TID 0000.0001) %MON dynstat_sst_max              =   3.0923881080224E+01
(PID.TID 0000.0001) %MON dynstat_sst_min              =  -1.8996118180399E+00
(PID.TID 0000.0001) %MON dynstat_sst_mean             =   1.8105878917319E+01
(PID.TID 0000.0001) %MON dynstat_sst_sd               =   9.8022784374913E+00
(PID.TID 0000.0001) %MON dynstat_sst_del2             =   1.5234266411972E-02
(PID.TID 0000.0001) %MON dynstat_sss_max              =   4.1370901605801E+01
(PID.TID 0000.0001) %MON dynstat_sss_min              =   1.8751379169095E+01
(PID.TID 0000.0001) %MON dynstat_sss_mean             =   3.4637780529907E+01
(PID.TID 0000.0001) %MON dynstat_sss_sd               =   1.4598246525449E+00
(PID.TID 0000.0001) %MON dynstat_sss_del2             =   8.3363968991910E-03
(PID.TID 0000.0001) %MON forcing_qnet_max             =   2.5946548828125E+04
(PID.TID 0000.0001) %MON forcing_qnet_min             =  -1.0671355468750E+04
(PID.TID 0000.0001) %MON forcing_qnet_mean            =  -1.5690121708793E+02
(PID.TID 0000.0001) %MON forcing_qnet_sd              =   6.4779631413716E+02
(PID.TID 0000.0001) %MON forcing_qnet_del2            =   2.6033795333534E+01
(PID.TID 0000.0001) %MON forcing_qsw_max              =   0.0000000000000E+00
(PID.TID 0000.0001) %MON forcing_qsw_min              =  -4.2437238646136E+02
(PID.TID 0000.0001) %MON forcing_qsw_mean             =  -8.8684923648745E+01
(PID.TID 0000.0001) %MON forcing_qsw_sd               =   1.2179014150853E+02
(PID.TID 0000.0001) %MON forcing_qsw_del2             =   9.3718354599700E-01
(PID.TID 0000.0001) %MON forcing_empmr_max            =   2.8891509398818E-02
(PID.TID 0000.0001) %MON forcing_empmr_min            =  -2.6054066419601E-01
(PID.TID 0000.0001) %MON forcing_empmr_mean           =  -5.0019022204915E-04
(PID.TID 0000.0001) %MON forcing_empmr_sd             =   7.9538099110982E-03
(PID.TID 0000.0001) %MON forcing_empmr_del2           =   3.2142778817644E-04
(PID.TID 0000.0001) %MON forcing_fu_max               =   6.9291717127231E-01
(PID.TID 0000.0001) %MON forcing_fu_min               =  -4.4906961118759E-01
(PID.TID 0000.0001) %MON forcing_fu_mean              =  -4.1315714391604E-03
(PID.TID 0000.0001) %MON forcing_fu_sd                =   7.4781421010784E-02
(PID.TID 0000.0001) %MON forcing_fu_del2              =   7.6647276081283E-04
(PID.TID 0000.0001) %MON forcing_fv_max               =   3.5020968517549E-01
(PID.TID 0000.0001) %MON forcing_fv_min               =  -3.3075907928419E-01
(PID.TID 0000.0001) %MON forcing_fv_mean              =  -1.3387502719166E-02
(PID.TID 0000.0001) %MON forcing_fv_sd                =   7.3340661400564E-02
(PID.TID 0000.0001) %MON forcing_fv_del2              =   6.4499772500626E-04
(PID.TID 0000.0001) %MON trAdv_CFL_u_max              =   6.1927898398418E-03
(PID.TID 0000.0001) %MON trAdv_CFL_v_max              =   8.6879664056653E-03
(PID.TID 0000.0001) %MON trAdv_CFL_w_max              =   7.0299115968229E-03
(PID.TID 0000.0001) %MON advcfl_uvel_max              =   6.3886063491338E-03
(PID.TID 0000.0001) %MON advcfl_vvel_max              =   4.8389831808992E-03
(PID.TID 0000.0001) %MON advcfl_wvel_max              =   9.0622839720353E-03
(PID.TID 0000.0001) %MON advcfl_W_hf_max              =   7.0299115968229E-03
(PID.TID 0000.0001) %MON pe_b_mean                    =   5.0299672172929E-04
(PID.TID 0000.0001) %MON ke_max                       =   1.6818765629510E+00
(PID.TID 0000.0001) %MON ke_mean                      =   1.8602453656375E-04
(PID.TID 0000.0001) %MON ke_vol                       =   1.3398070916914E+18
(PID.TID 0000.0001) %MON vort_r_min                   =  -5.6349225354850E-06
(PID.TID 0000.0001) %MON vort_r_max                   =   4.3692706015130E-06
(PID.TID 0000.0001) %MON vort_a_mean                  =  -2.0549865324846E-05
(PID.TID 0000.0001) %MON vort_a_sd                    =   7.5259525526527E-05
(PID.TID 0000.0001) %MON vort_p_mean                  =  -2.4783392443492E-05
(PID.TID 0000.0001) %MON vort_p_sd                    =   1.2811925662030E-04
(PID.TID 0000.0001) %MON surfExpan_theta_mean         =  -7.8302244730782E-06
(PID.TID 0000.0001) %MON surfExpan_salt_mean          =   1.4633983061823E-06
(PID.TID 0000.0001) // =======================================================
(PID.TID 0000.0001) // End MONITOR dynamic field statistics
(PID.TID 0000.0001) // =======================================================
 cg2d: Sum(rhs),rhsMax =  -1.84987686784917E+01  6.34013964124591E+01
(PID.TID 0000.0001)      cg2d_init_res =   5.04824994770080E-01
(PID.TID 0000.0001)      cg2d_iters(min,last) =      -1      10
(PID.TID 0000.0001)      cg2d_last_res =   4.01692350735775E-08
(PID.TID 0000.0001) // =======================================================
(PID.TID 0000.0001) // Begin MONITOR dynamic field statistics
(PID.TID 0000.0001) // =======================================================
(PID.TID 0000.0001) %MON time_tsnumber                =                 72011
(PID.TID 0000.0001) %MON time_secondsf                =   6.4809900000000E+07
(PID.TID 0000.0001) %MON dynstat_eta_max              =   2.9863385042928E+00
(PID.TID 0000.0001) %MON dynstat_eta_min              =  -1.8629309203406E+00
(PID.TID 0000.0001) %MON dynstat_eta_mean             =   1.3628335557177E-02
(PID.TID 0000.0001) %MON dynstat_eta_sd               =   6.1251485889470E-01
(PID.TID 0000.0001) %MON dynstat_eta_del2             =   2.4985196603518E-03
(PID.TID 0000.0001) %MON dynstat_uvel_max             =   1.9672800659139E+00
(PID.TID 0000.0001) %MON dynstat_uvel_min             =  -9.5389561236572E-01
(PID.TID 0000.0001) %MON dynstat_uvel_mean            =  -1.8954205402973E-04
(PID.TID 0000.0001) %MON dynstat_uvel_sd              =   1.4158399134002E-02
(PID.TID 0000.0001) %MON dynstat_uvel_del2            =   1.4335314736484E-04
(PID.TID 0000.0001) %MON dynstat_vvel_max             =   1.3635833791489E+00
(PID.TID 0000.0001) %MON dynstat_vvel_min             =  -1.6288476038842E+00
(PID.TID 0000.0001) %MON dynstat_vvel_mean            =  -4.0521263062397E-04
(PID.TID 0000.0001) %MON dynstat_vvel_sd              =   1.4310011409339E-02
(PID.TID 0000.0001) %MON dynstat_vvel_del2            =   1.8028807919157E-04
(PID.TID 0000.0001) %MON dynstat_wvel_max             =   1.0577650439198E-04
(PID.TID 0000.0001) %MON dynstat_wvel_min             =  -5.3653440666257E-04
(PID.TID 0000.0001) %MON dynstat_wvel_mean            =  -4.5762282877888E-07
(PID.TID 0000.0001) %MON dynstat_wvel_sd              =   8.5915079199086E-06
(PID.TID 0000.0001) %MON dynstat_wvel_del2            =   8.0039938105755E-08
(PID.TID 0000.0001) %MON dynstat_theta_max            =   3.0923778665306E+01
(PID.TID 0000.0001) %MON dynstat_theta_min            =  -3.0109677903280E+00
(PID.TID 0000.0001) %MON dynstat_theta_mean           =   3.9090587123958E+00
(PID.TID 0000.0001) %MON dynstat_theta_sd             =   4.5710167110661E+00
(PID.TID 0000.0001) %MON dynstat_theta_del2           =   2.6506059107522E-03
(PID.TID 0000.0001) %MON dynstat_salt_max             =   4.1369943950441E+01
(PID.TID 0000.0001) %MON dynstat_salt_min             =   1.8518480877340E+01
(PID.TID 0000.0001) %MON dynstat_salt_mean            =   3.4772132731593E+01
(PID.TID 0000.0001) %MON dynstat_salt_sd              =   5.3106707269798E-01
(PID.TID 0000.0001) %MON dynstat_salt_del2            =   8.2756487523626E-04
(PID.TID 0000.0001) %MON dynstat_sst_max              =   3.0923778665306E+01
(PID.TID 0000.0001) %MON dynstat_sst_min              =  -1.8995837517541E+00
(PID.TID 0000.0001) %MON dynstat_sst_mean             =   1.8106483074371E+01
(PID.TID 0000.0001) %MON dynstat_sst_sd               =   9.8026190387301E+00
(PID.TID 0000.0001) %MON dynstat_sst_del2             =   1.5227469431437E-02
(PID.TID 0000.0001) %MON dynstat_sss_max              =   4.1369943950441E+01
(PID.TID 0000.0001) %MON dynstat_sss_min              =   1.8751379928611E+01
(PID.TID 0000.0001) %MON dynstat_sss_mean             =   3.4637325966761E+01
(PID.TID 0000.0001) %MON dynstat_sss_sd               =   1.4602393440507E+00
(PID.TID 0000.0001) %MON dynstat_sss_del2             =   8.3998961466074E-03
(PID.TID 0000.0001) %MON forcing_qnet_max             =   3.4033375000000E+04
(PID.TID 0000.0001) %MON forcing_qnet_min             =  -6.5755107421875E+03
(PID.TID 0000.0001) %MON forcing_qnet_mean            =  -1.3733348109033E+02
(PID.TID 0000.0001) %MON forcing_qnet_sd              =   7.0368506012016E+02
(PID.TID 0000.0001) %MON forcing_qnet_del2            =   2.9796140798278E+01
(PID.TID 0000.0001) %MON forcing_qsw_max              =   0.0000000000000E+00
(PID.TID 0000.0001) %MON forcing_qsw_min              =  -4.2685329415828E+02
(PID.TID 0000.0001) %MON forcing_qsw_mean             =  -8.7988097352563E+01
(PID.TID 0000.0001) %MON forcing_qsw_sd               =   1.2129969204588E+02
(PID.TID 0000.0001) %MON forcing_qsw_del2             =   9.4335390837284E-01
(PID.TID 0000.0001) %MON forcing_empmr_max            =   2.8325557708740E-02
(PID.TID 0000.0001) %MON forcing_empmr_min            =  -2.3721954226494E-01
(PID.TID 0000.0001) %MON forcing_empmr_mean           =  -4.8849150185467E-04
(PID.TID 0000.0001) %MON forcing_empmr_sd             =   7.6921922313930E-03
(PID.TID 0000.0001) %MON forcing_empmr_del2           =   3.1123597195194E-04
(PID.TID 0000.0001) %MON forcing_fu_max               =   6.9961705548769E-01
(PID.TID 0000.0001) %MON forcing_fu_min               =  -4.6156733019886E-01
(PID.TID 0000.0001) %MON forcing_fu_mean              =  -4.0463617103678E-03
(PID.TID 0000.0001) %MON forcing_fu_sd                =   7.4642668514114E-02
(PID.TID 0000.0001) %MON forcing_fu_del2              =   7.6754660250000E-04
(PID.TID 0000.0001) %MON forcing_fv_max               =   3.5004370919062E-01
(PID.TID 0000.0001) %MON forcing_fv_min               =  -3.3669653582441E-01
(PID.TID 0000.0001) %MON forcing_fv_mean              =  -1.3118528962499E-02
(PID.TID 0000.0001) %MON forcing_fv_sd                =   7.3488463282140E-02
(PID.TID 0000.0001) %MON forcing_fv_del2              =   6.4648685960212E-04
(PID.TID 0000.0001) %MON trAdv_CFL_u_max              =   6.3868517976653E-03
(PID.TID 0000.0001) %MON trAdv_CFL_v_max              =   8.8115849910783E-03
(PID.TID 0000.0001) %MON trAdv_CFL_w_max              =   6.8816008356535E-03
(PID.TID 0000.0001) %MON advcfl_uvel_max              =   6.5604199215191E-03
(PID.TID 0000.0001) %MON advcfl_vvel_max              =   4.8812806725820E-03
(PID.TID 0000.0001) %MON advcfl_wvel_max              =   8.2511145135631E-03
(PID.TID 0000.0001) %MON advcfl_W_hf_max              =   6.8816008356535E-03
(PID.TID 0000.0001) %MON pe_b_mean                    =   5.0004733684975E-04
(PID.TID 0000.0001) %MON ke_max                       =   1.7231855968254E+00
(PID.TID 0000.0001) %MON ke_mean                      =   1.8718859467432E-04
(PID.TID 0000.0001) %MON ke_vol                       =   1.3398072499633E+18
(PID.TID 0000.0001) %MON vort_r_min                   =  -6.3221169065138E-06
(PID.TID 0000.0001) %MON vort_r_max                   =   4.2055143144667E-06
(PID.TID 0000.0001) %MON vort_a_mean                  =  -2.0549865324846E-05
(PID.TID 0000.0001) %MON vort_a_sd                    =   7.5259523938637E-05
(PID.TID 0000.0001) %MON vort_p_mean                  =  -2.4783388254153E-05
(PID.TID 0000.0001) %MON vort_p_sd                    =   1.2811922177464E-04
(PID.TID 0000.0001) %MON surfExpan_theta_mean         =  -7.7846998380836E-06
(PID.TID 0000.0001) %MON surfExpan_salt_mean          =   1.5198282499172E-06
(PID.TID 0000.0001) // =======================================================
(PID.TID 0000.0001) // End MONITOR dynamic field statistics
(PID.TID 0000.0001) // =======================================================
 Computing Diagnostic #     81  oceTAUX      Counter:       1   Parms: UU      U1      
           Vector  Mate for  oceTAUX      Diagnostic #     82  oceTAUY  exists 
 Computing Diagnostic #     82  oceTAUY      Counter:       1   Parms: VV      U1      
           Vector  Mate for  oceTAUY      Diagnostic #     81  oceTAUX  exists 
 Computing Diagnostic #     85  oceFWflx     Counter:       1   Parms: SM      U1      
 Computing Diagnostic #     86  oceSflux     Counter:       1   Parms: SM      U1      
 Computing Diagnostic #     87  oceQnet      Counter:       1   Parms: SM      U1      
 Computing Diagnostic #     88  oceQsw       Counter:       1   Parms: SM      U1      
 Computing Diagnostic #     27  SALT         Counter:       1   Parms: SMR     MR      
 Computing Diagnostic #     26  THETA        Counter:       1   Parms: SMR     MR      
 Computing Diagnostic #     45  UVELMASS     Counter:       1   Parms: UUr     MR      
           Vector  Mate for  UVELMASS     Diagnostic #     46  VVELMASS exists 
 Computing Diagnostic #     46  VVELMASS     Counter:       1   Parms: VVr     MR      
           Vector  Mate for  VVELMASS     Diagnostic #     45  UVELMASS exists 
 cg2d: Sum(rhs),rhsMax =  -1.93709407833651E+01  6.23988521970412E+01
(PID.TID 0000.0001)      cg2d_init_res =   5.07913174638333E-01
(PID.TID 0000.0001)      cg2d_iters(min,last) =      -1      10
(PID.TID 0000.0001)      cg2d_last_res =   5.05311939956597E-08
(PID.TID 0000.0001) // =======================================================
(PID.TID 0000.0001) // Begin MONITOR dynamic field statistics
(PID.TID 0000.0001) // =======================================================
(PID.TID 0000.0001) %MON time_tsnumber                =                 72012
(PID.TID 0000.0001) %MON time_secondsf                =   6.4810800000000E+07
(PID.TID 0000.0001) %MON dynstat_eta_max              =   2.8681265747122E+00
(PID.TID 0000.0001) %MON dynstat_eta_min              =  -1.6159606217565E+00
(PID.TID 0000.0001) %MON dynstat_eta_mean             =   1.4045218109957E-02
(PID.TID 0000.0001) %MON dynstat_eta_sd               =   6.1137740184831E-01
(PID.TID 0000.0001) %MON dynstat_eta_del2             =   2.4481647990206E-03
(PID.TID 0000.0001) %MON dynstat_uvel_max             =   1.9949478577056E+00
(PID.TID 0000.0001) %MON dynstat_uvel_min             =  -9.7006147639001E-01
(PID.TID 0000.0001) %MON dynstat_uvel_mean            =  -1.6420552626553E-04
(PID.TID 0000.0001) %MON dynstat_uvel_sd              =   1.4217982276378E-02
(PID.TID 0000.0001) %MON dynstat_uvel_del2            =   1.4266896916076E-04
(PID.TID 0000.0001) %MON dynstat_vvel_max             =   1.3417547961143E+00
(PID.TID 0000.0001) %MON dynstat_vvel_min             =  -1.6140985594413E+00
(PID.TID 0000.0001) %MON dynstat_vvel_mean            =  -4.1375292825889E-04
(PID.TID 0000.0001) %MON dynstat_vvel_sd              =   1.4265373980150E-02
(PID.TID 0000.0001) %MON dynstat_vvel_del2            =   1.7319614979568E-04
(PID.TID 0000.0001) %MON dynstat_wvel_max             =   1.0612414555220E-04
(PID.TID 0000.0001) %MON dynstat_wvel_min             =  -5.3486710042485E-04
(PID.TID 0000.0001) %MON dynstat_wvel_mean            =  -4.4841850020397E-07
(PID.TID 0000.0001) %MON dynstat_wvel_sd              =   8.5701228625439E-06
(PID.TID 0000.0001) %MON dynstat_wvel_del2            =   7.9519383004407E-08
(PID.TID 0000.0001) %MON dynstat_theta_max            =   3.0923706070518E+01
(PID.TID 0000.0001) %MON dynstat_theta_min            =  -3.0106813118070E+00
(PID.TID 0000.0001) %MON dynstat_theta_mean           =   3.9090689905796E+00
(PID.TID 0000.0001) %MON dynstat_theta_sd             =   4.5710546908533E+00
(PID.TID 0000.0001) %MON dynstat_theta_del2           =   2.6504020223978E-03
(PID.TID 0000.0001) %MON dynstat_salt_max             =   4.1368983830201E+01
(PID.TID 0000.0001) %MON dynstat_salt_min             =   1.8518490610389E+01
(PID.TID 0000.0001) %MON dynstat_salt_mean            =   3.4772126597378E+01
(PID.TID 0000.0001) %MON dynstat_salt_sd              =   5.3108464730994E-01
(PID.TID 0000.0001) %MON dynstat_salt_del2            =   8.3188453462844E-04
(PID.TID 0000.0001) %MON dynstat_sst_max              =   3.0923706070518E+01
(PID.TID 0000.0001) %MON dynstat_sst_min              =  -1.8995570753963E+00
(PID.TID 0000.0001) %MON dynstat_sst_mean             =   1.8107048836955E+01
(PID.TID 0000.0001) %MON dynstat_sst_sd               =   9.8029285891113E+00
(PID.TID 0000.0001) %MON dynstat_sst_del2             =   1.5221893908571E-02
(PID.TID 0000.0001) %MON dynstat_sss_max              =   4.1368983830201E+01
(PID.TID 0000.0001) %MON dynstat_sss_min              =   1.8751380799328E+01
(PID.TID 0000.0001) %MON dynstat_sss_mean             =   3.4636884085788E+01
(PID.TID 0000.0001) %MON dynstat_sss_sd               =   1.4606668101486E+00
(PID.TID 0000.0001) %MON dynstat_sss_del2             =   8.4667432442945E-03
(PID.TID 0000.0001) %MON forcing_qnet_max             =   3.6493690489506E+03
(PID.TID 0000.0001) %MON forcing_qnet_min             =  -5.8680947265625E+03
(PID.TID 0000.0001) %MON forcing_qnet_mean            =  -1.3178854251795E+02
(PID.TID 0000.0001) %MON forcing_qnet_sd              =   4.0934669941984E+02
(PID.TID 0000.0001) %MON forcing_qnet_del2            =   1.2890812401715E+01
(PID.TID 0000.0001) %MON forcing_qsw_max              =   0.0000000000000E+00
(PID.TID 0000.0001) %MON forcing_qsw_min              =  -4.2752811326875E+02
(PID.TID 0000.0001) %MON forcing_qsw_mean             =  -8.7030924833508E+01
(PID.TID 0000.0001) %MON forcing_qsw_sd               =   1.2058810392671E+02
(PID.TID 0000.0001) %MON forcing_qsw_del2             =   9.4883421961204E-01
(PID.TID 0000.0001) %MON forcing_empmr_max            =   2.7459811419249E-02
(PID.TID 0000.0001) %MON forcing_empmr_min            =  -2.2165994346142E-01
(PID.TID 0000.0001) %MON forcing_empmr_mean           =  -4.7941493569676E-04
(PID.TID 0000.0001) %MON forcing_empmr_sd             =   7.5036016258872E-03
(PID.TID 0000.0001) %MON forcing_empmr_del2           =   3.0391578603241E-04
(PID.TID 0000.0001) %MON forcing_fu_max               =   7.0508703849171E-01
(PID.TID 0000.0001) %MON forcing_fu_min               =  -4.6710833774426E-01
(PID.TID 0000.0001) %MON forcing_fu_mean              =  -3.9382857571652E-03
(PID.TID 0000.0001) %MON forcing_fu_sd                =   7.4508057156045E-02
(PID.TID 0000.0001) %MON forcing_fu_del2              =   7.6909614090741E-04
(PID.TID 0000.0001) %MON forcing_fv_max               =   3.5821262771862E-01
(PID.TID 0000.0001) %MON forcing_fv_min               =  -3.4079054955814E-01
(PID.TID 0000.0001) %MON forcing_fv_mean              =  -1.2905506463954E-02
(PID.TID 0000.0001) %MON forcing_fv_sd                =   7.3378144636919E-02
(PID.TID 0000.0001) %MON forcing_fv_del2              =   6.4610056998368E-04
(PID.TID 0000.0001) %MON trAdv_CFL_u_max              =   6.5020661356391E-03
(PID.TID 0000.0001) %MON trAdv_CFL_v_max              =   8.7865751066919E-03
(PID.TID 0000.0001) %MON trAdv_CFL_w_max              =   6.6699967749206E-03
(PID.TID 0000.0001) %MON advcfl_uvel_max              =   6.6526855503941E-03
(PID.TID 0000.0001) %MON advcfl_vvel_max              =   4.8370811873712E-03
(PID.TID 0000.0001) %MON advcfl_wvel_max              =   7.7099110769189E-03
(PID.TID 0000.0001) %MON advcfl_W_hf_max              =   6.6699967749206E-03
(PID.TID 0000.0001) %MON pe_b_mean                    =   4.9820808728618E-04
(PID.TID 0000.0001) %MON ke_max                       =   1.7077697389641E+00
(PID.TID 0000.0001) %MON ke_mean                      =   1.8737270919864E-04
(PID.TID 0000.0001) %MON ke_vol                       =   1.3398074045333E+18
(PID.TID 0000.0001) %MON vort_r_min                   =  -6.9527014862543E-06
(PID.TID 0000.0001) %MON vort_r_max                   =   3.9481345548612E-06
(PID.TID 0000.0001) %MON vort_a_mean                  =  -2.0549865324846E-05
(PID.TID 0000.0001) %MON vort_a_sd                    =   7.5259522208305E-05
(PID.TID 0000.0001) %MON vort_p_mean                  =  -2.4783384223071E-05
(PID.TID 0000.0001) %MON vort_p_sd                    =   1.2811919420032E-04
(PID.TID 0000.0001) %MON surfExpan_theta_mean         =  -7.7443556886613E-06
(PID.TID 0000.0001) %MON surfExpan_salt_mean          =   1.5611302601040E-06
(PID.TID 0000.0001) // =======================================================
(PID.TID 0000.0001) // End MONITOR dynamic field statistics
(PID.TID 0000.0001) // =======================================================
 cg2d: Sum(rhs),rhsMax =  -1.81579366676470E+01  6.85127328776646E+01
(PID.TID 0000.0001)      cg2d_init_res =   4.51170474682910E-01
(PID.TID 0000.0001)      cg2d_iters(min,last) =      -1      10
(PID.TID 0000.0001)      cg2d_last_res =   5.16270454664270E-08
(PID.TID 0000.0001) // =======================================================
(PID.TID 0000.0001) // Begin MONITOR dynamic field statistics
(PID.TID 0000.0001) // =======================================================
(PID.TID 0000.0001) %MON time_tsnumber                =                 72013
(PID.TID 0000.0001) %MON time_secondsf                =   6.4811700000000E+07
(PID.TID 0000.0001) %MON dynstat_eta_max              =   3.1440010948340E+00
(PID.TID 0000.0001) %MON dynstat_eta_min              =  -1.6137920981471E+00
(PID.TID 0000.0001) %MON dynstat_eta_mean             =   1.4455694501189E-02
(PID.TID 0000.0001) %MON dynstat_eta_sd               =   6.1096565783361E-01
(PID.TID 0000.0001) %MON dynstat_eta_del2             =   2.5203537012625E-03
(PID.TID 0000.0001) %MON dynstat_uvel_max             =   1.9999036481130E+00
(PID.TID 0000.0001) %MON dynstat_uvel_min             =  -9.7667923374571E-01
(PID.TID 0000.0001) %MON dynstat_uvel_mean            =  -1.3997942085496E-04
(PID.TID 0000.0001) %MON dynstat_uvel_sd              =   1.4229567564202E-02
(PID.TID 0000.0001) %MON dynstat_uvel_del2            =   1.4079392260435E-04
(PID.TID 0000.0001) %MON dynstat_vvel_max             =   1.3031761512067E+00
(PID.TID 0000.0001) %MON dynstat_vvel_min             =  -1.5717850028948E+00
(PID.TID 0000.0001) %MON dynstat_vvel_mean            =  -4.2117911059326E-04
(PID.TID 0000.0001) %MON dynstat_vvel_sd              =   1.4191732342733E-02
(PID.TID 0000.0001) %MON dynstat_vvel_del2            =   1.6461941523641E-04
(PID.TID 0000.0001) %MON dynstat_wvel_max             =   1.0824463502973E-04
(PID.TID 0000.0001) %MON dynstat_wvel_min             =  -5.5214408019836E-04
(PID.TID 0000.0001) %MON dynstat_wvel_mean            =  -4.3660541311827E-07
(PID.TID 0000.0001) %MON dynstat_wvel_sd              =   8.5663707151603E-06
(PID.TID 0000.0001) %MON dynstat_wvel_del2            =   7.9451027723195E-08
(PID.TID 0000.0001) %MON dynstat_theta_max            =   3.0923733001482E+01
(PID.TID 0000.0001) %MON dynstat_theta_min            =  -3.0103879433715E+00
(PID.TID 0000.0001) %MON dynstat_theta_mean           =   3.9090786268782E+00
(PID.TID 0000.0001) %MON dynstat_theta_sd             =   4.5710905676616E+00
(PID.TID 0000.0001) %MON dynstat_theta_del2           =   2.6502487416217E-03
(PID.TID 0000.0001) %MON dynstat_salt_max             =   4.1368032082296E+01
(PID.TID 0000.0001) %MON dynstat_salt_min             =   1.8518500393536E+01
(PID.TID 0000.0001) %MON dynstat_salt_mean            =   3.4772120623929E+01
(PID.TID 0000.0001) %MON dynstat_salt_sd              =   5.3110273540683E-01
(PID.TID 0000.0001) %MON dynstat_salt_del2            =   8.3641867580723E-04
(PID.TID 0000.0001) %MON dynstat_sst_max              =   3.0923733001482E+01
(PID.TID 0000.0001) %MON dynstat_sst_min              =  -1.8995326753921E+00
(PID.TID 0000.0001) %MON dynstat_sst_mean             =   1.8107570362396E+01
(PID.TID 0000.0001) %MON dynstat_sst_sd               =   9.8032408454725E+00
(PID.TID 0000.0001) %MON dynstat_sst_del2             =   1.5218229818533E-02
(PID.TID 0000.0001) %MON dynstat_sss_max              =   4.1368032082296E+01
(PID.TID 0000.0001) %MON dynstat_sss_min              =   1.8751381613218E+01
(PID.TID 0000.0001) %MON dynstat_sss_mean             =   3.4636454209994E+01
(PID.TID 0000.0001) %MON dynstat_sss_sd               =   1.4611120597149E+00
(PID.TID 0000.0001) %MON dynstat_sss_del2             =   8.5368308201673E-03
(PID.TID 0000.0001) %MON forcing_qnet_max             =   3.5990130146294E+03
(PID.TID 0000.0001) %MON forcing_qnet_min             =  -3.0917236328125E+03
(PID.TID 0000.0001) %MON forcing_qnet_mean            =  -1.2148169751809E+02
(PID.TID 0000.0001) %MON forcing_qnet_sd              =   3.8130180014858E+02
(PID.TID 0000.0001) %MON forcing_qnet_del2            =   1.1302960131674E+01
(PID.TID 0000.0001) %MON forcing_qsw_max              =   0.0000000000000E+00
(PID.TID 0000.0001) %MON forcing_qsw_min              =  -4.2427635694663E+02
(PID.TID 0000.0001) %MON forcing_qsw_mean             =  -8.6191943270848E+01
(PID.TID 0000.0001) %MON forcing_qsw_sd               =   1.2034015287979E+02
(PID.TID 0000.0001) %MON forcing_qsw_del2             =   9.7723659670342E-01
(PID.TID 0000.0001) %MON forcing_empmr_max            =   2.6099395006895E-02
(PID.TID 0000.0001) %MON forcing_empmr_min            =  -2.0908959209919E-01
(PID.TID 0000.0001) %MON forcing_empmr_mean           =  -4.7204784991683E-04
(PID.TID 0000.0001) %MON forcing_empmr_sd             =   7.3489230098018E-03
(PID.TID 0000.0001) %MON forcing_empmr_del2           =   2.9796059705035E-04
(PID.TID 0000.0001) %MON forcing_fu_max               =   6.9639628376547E-01
(PID.TID 0000.0001) %MON forcing_fu_min               =  -4.6609315129990E-01
(PID.TID 0000.0001) %MON forcing_fu_mean              =  -3.7670587249934E-03
(PID.TID 0000.0001) %MON forcing_fu_sd                =   7.4467007129157E-02
(PID.TID 0000.0001) %MON forcing_fu_del2              =   7.6553291501532E-04
(PID.TID 0000.0001) %MON forcing_fv_max               =   3.5250684778196E-01
(PID.TID 0000.0001) %MON forcing_fv_min               =  -3.4363835496563E-01
(PID.TID 0000.0001) %MON forcing_fv_mean              =  -1.2717097620928E-02
(PID.TID 0000.0001) %MON forcing_fv_sd                =   7.3133347662659E-02
(PID.TID 0000.0001) %MON forcing_fv_del2              =   6.4455321470618E-04
(PID.TID 0000.0001) %MON trAdv_CFL_u_max              =   6.5411992612989E-03
(PID.TID 0000.0001) %MON trAdv_CFL_v_max              =   8.6163004299355E-03
(PID.TID 0000.0001) %MON trAdv_CFL_w_max              =   6.4162324284988E-03
(PID.TID 0000.0001) %MON advcfl_uvel_max              =   6.6692119548846E-03
(PID.TID 0000.0001) %MON advcfl_vvel_max              =   4.7102772154919E-03
(PID.TID 0000.0001) %MON advcfl_wvel_max              =   7.2726814643196E-03
(PID.TID 0000.0001) %MON advcfl_W_hf_max              =   6.4162324284988E-03
(PID.TID 0000.0001) %MON pe_b_mean                    =   4.9755314000616E-04
(PID.TID 0000.0001) %MON ke_max                       =   1.6390819503269E+00
(PID.TID 0000.0001) %MON ke_mean                      =   1.8655133700030E-04
(PID.TID 0000.0001) %MON ke_vol                       =   1.3398075562314E+18
(PID.TID 0000.0001) %MON vort_r_min                   =  -7.5094233702420E-06
(PID.TID 0000.0001) %MON vort_r_max                   =   3.6060376663135E-06
(PID.TID 0000.0001) %MON vort_a_mean                  =  -2.0549865324846E-05
(PID.TID 0000.0001) %MON vort_a_sd                    =   7.5259520479375E-05
(PID.TID 0000.0001) %MON vort_p_mean                  =  -2.4783380346075E-05
(PID.TID 0000.0001) %MON vort_p_sd                    =   1.2811917434478E-04
(PID.TID 0000.0001) %MON surfExpan_theta_mean         =  -7.6997484468263E-06
(PID.TID 0000.0001) %MON surfExpan_salt_mean          =   1.5876653634476E-06
(PID.TID 0000.0001) // =======================================================
(PID.TID 0000.0001) // End MONITOR dynamic field statistics
(PID.TID 0000.0001) // =======================================================
 cg2d: Sum(rhs),rhsMax =  -1.72703133359502E+01  7.40537912709042E+01
(PID.TID 0000.0001)      cg2d_init_res =   3.97722458031948E-01
(PID.TID 0000.0001)      cg2d_iters(min,last) =      -1      10
(PID.TID 0000.0001)      cg2d_last_res =   4.64143363931524E-08
(PID.TID 0000.0001) // =======================================================
(PID.TID 0000.0001) // Begin MONITOR dynamic field statistics
(PID.TID 0000.0001) // =======================================================
(PID.TID 0000.0001) %MON time_tsnumber                =                 72014
(PID.TID 0000.0001) %MON time_secondsf                =   6.4812600000000E+07
(PID.TID 0000.0001) %MON dynstat_eta_max              =   3.3940049442676E+00
(PID.TID 0000.0001) %MON dynstat_eta_min              =  -1.6115942502913E+00
(PID.TID 0000.0001) %MON dynstat_eta_mean             =   1.4861022370651E-02
(PID.TID 0000.0001) %MON dynstat_eta_sd               =   6.1124100293083E-01
(PID.TID 0000.0001) %MON dynstat_eta_del2             =   2.6851941810092E-03
(PID.TID 0000.0001) %MON dynstat_uvel_max             =   1.9831518759268E+00
(PID.TID 0000.0001) %MON dynstat_uvel_min             =  -9.7418268981414E-01
(PID.TID 0000.0001) %MON dynstat_uvel_mean            =  -1.1661322898370E-04
(PID.TID 0000.0001) %MON dynstat_uvel_sd              =   1.4191539222737E-02
(PID.TID 0000.0001) %MON dynstat_uvel_del2            =   1.3779177030379E-04
(PID.TID 0000.0001) %MON dynstat_vvel_max             =   1.2457492562567E+00
(PID.TID 0000.0001) %MON dynstat_vvel_min             =  -1.5036836557999E+00
(PID.TID 0000.0001) %MON dynstat_vvel_mean            =  -4.2703211524161E-04
(PID.TID 0000.0001) %MON dynstat_vvel_sd              =   1.4098344244917E-02
(PID.TID 0000.0001) %MON dynstat_vvel_del2            =   1.5506404271607E-04
(PID.TID 0000.0001) %MON dynstat_wvel_max             =   1.0685878727873E-04
(PID.TID 0000.0001) %MON dynstat_wvel_min             =  -5.5963064923324E-04
(PID.TID 0000.0001) %MON dynstat_wvel_mean            =  -4.2335649998879E-07
(PID.TID 0000.0001) %MON dynstat_wvel_sd              =   8.5585178865439E-06
(PID.TID 0000.0001) %MON dynstat_wvel_del2            =   7.9592042127521E-08
(PID.TID 0000.0001) %MON dynstat_theta_max            =   3.0923798427911E+01
(PID.TID 0000.0001) %MON dynstat_theta_min            =  -3.0100569083454E+00
(PID.TID 0000.0001) %MON dynstat_theta_mean           =   3.9090876945385E+00
(PID.TID 0000.0001) %MON dynstat_theta_sd             =   4.5711245389263E+00
(PID.TID 0000.0001) %MON dynstat_theta_del2           =   2.6501022651054E-03
(PID.TID 0000.0001) %MON dynstat_salt_max             =   4.1367098099148E+01
(PID.TID 0000.0001) %MON dynstat_salt_min             =   1.8518510215377E+01
(PID.TID 0000.0001) %MON dynstat_salt_mean            =   3.4772114796678E+01
(PID.TID 0000.0001) %MON dynstat_salt_sd              =   5.3112114439763E-01
(PID.TID 0000.0001) %MON dynstat_salt_del2            =   8.4113376997577E-04
(PID.TID 0000.0001) %MON dynstat_sst_max              =   3.0923798427911E+01
(PID.TID 0000.0001) %MON dynstat_sst_min              =  -1.8995101885677E+00
(PID.TID 0000.0001) %MON dynstat_sst_mean             =   1.8108052732739E+01
(PID.TID 0000.0001) %MON dynstat_sst_sd               =   9.8035492758478E+00
(PID.TID 0000.0001) %MON dynstat_sst_del2             =   1.5214786264778E-02
(PID.TID 0000.0001) %MON dynstat_sss_max              =   4.1367098099148E+01
(PID.TID 0000.0001) %MON dynstat_sss_min              =   1.8751382474276E+01
(PID.TID 0000.0001) %MON dynstat_sss_mean             =   3.4636034446314E+01
(PID.TID 0000.0001) %MON dynstat_sss_sd               =   1.4615677702110E+00
(PID.TID 0000.0001) %MON dynstat_sss_del2             =   8.6094979765288E-03
(PID.TID 0000.0001) %MON forcing_qnet_max             =   3.5498981728164E+03
(PID.TID 0000.0001) %MON forcing_qnet_min             =  -3.7572761230469E+03
(PID.TID 0000.0001) %MON forcing_qnet_mean            =  -1.1237726343313E+02
(PID.TID 0000.0001) %MON forcing_qnet_sd              =   3.7194149781543E+02
(PID.TID 0000.0001) %MON forcing_qnet_del2            =   1.0925031389807E+01
(PID.TID 0000.0001) %MON forcing_qsw_max              =   0.0000000000000E+00
(PID.TID 0000.0001) %MON forcing_qsw_min              =  -4.2135257109089E+02
(PID.TID 0000.0001) %MON forcing_qsw_mean             =  -8.5347141084802E+01
(PID.TID 0000.0001) %MON forcing_qsw_sd               =   1.1961386397218E+02
(PID.TID 0000.0001) %MON forcing_qsw_del2             =   9.8802478291939E-01
(PID.TID 0000.0001) %MON forcing_empmr_max            =   2.3828258737922E-02
(PID.TID 0000.0001) %MON forcing_empmr_min            =  -1.9887425005436E-01
(PID.TID 0000.0001) %MON forcing_empmr_mean           =  -4.6612704988078E-04
(PID.TID 0000.0001) %MON forcing_empmr_sd             =   7.2244861466764E-03
(PID.TID 0000.0001) %MON forcing_empmr_del2           =   2.9331861046836E-04
(PID.TID 0000.0001) %MON forcing_fu_max               =   6.8749210940180E-01
(PID.TID 0000.0001) %MON forcing_fu_min               =  -4.6024268401381E-01
(PID.TID 0000.0001) %MON forcing_fu_mean              =  -3.5967161911166E-03
(PID.TID 0000.0001) %MON forcing_fu_sd                =   7.4408853192831E-02
(PID.TID 0000.0001) %MON forcing_fu_del2              =   7.6182188674110E-04
(PID.TID 0000.0001) %MON forcing_fv_max               =   3.4272027997053E-01
(PID.TID 0000.0001) %MON forcing_fv_min               =  -3.4602128935491E-01
(PID.TID 0000.0001) %MON forcing_fv_mean              =  -1.2522701264232E-02
(PID.TID 0000.0001) %MON forcing_fv_sd                =   7.2858523960518E-02
(PID.TID 0000.0001) %MON forcing_fv_del2              =   6.4236875644180E-04
(PID.TID 0000.0001) %MON trAdv_CFL_u_max              =   6.5070057230092E-03
(PID.TID 0000.0001) %MON trAdv_CFL_v_max              =   8.3065337979103E-03
(PID.TID 0000.0001) %MON trAdv_CFL_w_max              =   6.1370568868654E-03
(PID.TID 0000.0001) %MON advcfl_uvel_max              =   6.6133487039549E-03
(PID.TID 0000.0001) %MON advcfl_vvel_max              =   4.5061931817505E-03
(PID.TID 0000.0001) %MON advcfl_wvel_max              =   6.9173652192821E-03
(PID.TID 0000.0001) %MON advcfl_W_hf_max              =   6.1370568868654E-03
(PID.TID 0000.0001) %MON pe_b_mean                    =   4.9801723121010E-04
(PID.TID 0000.0001) %MON ke_max                       =   1.5239053004786E+00
(PID.TID 0000.0001) %MON ke_mean                      =   1.8482862537716E-04
(PID.TID 0000.0001) %MON ke_vol                       =   1.3398077055983E+18
(PID.TID 0000.0001) %MON vort_r_min                   =  -7.9775354237703E-06
(PID.TID 0000.0001) %MON vort_r_max                   =   3.1892137968946E-06
(PID.TID 0000.0001) %MON vort_a_mean                  =  -2.0549865324846E-05
(PID.TID 0000.0001) %MON vort_a_sd                    =   7.5259518893472E-05
(PID.TID 0000.0001) %MON vort_p_mean                  =  -2.4783376622838E-05
(PID.TID 0000.0001) %MON vort_p_sd                    =   1.2811916218379E-04
(PID.TID 0000.0001) %MON surfExpan_theta_mean         =  -7.6561568242555E-06
(PID.TID 0000.0001) %MON surfExpan_salt_mean          =   1.6023833294572E-06
(PID.TID 0000.0001) // =======================================================
(PID.TID 0000.0001) // End MONITOR dynamic field statistics
(PID.TID 0000.0001) // =======================================================
 cg2d: Sum(rhs),rhsMax =  -1.66457609407216E+01  7.89070802678053E+01
(PID.TID 0000.0001)      cg2d_init_res =   3.46654794306422E-01
(PID.TID 0000.0001)      cg2d_iters(min,last) =      -1      10
(PID.TID 0000.0001)      cg2d_last_res =   4.18748991552353E-08
(PID.TID 0000.0001) // =======================================================
(PID.TID 0000.0001) // Begin MONITOR dynamic field statistics
(PID.TID 0000.0001) // =======================================================
(PID.TID 0000.0001) %MON time_tsnumber                =                 72015
(PID.TID 0000.0001) %MON time_secondsf                =   6.4813500000000E+07
(PID.TID 0000.0001) %MON dynstat_eta_max              =   3.6129281479303E+00
(PID.TID 0000.0001) %MON dynstat_eta_min              =  -1.8016742359097E+00
(PID.TID 0000.0001) %MON dynstat_eta_mean             =   1.5262328618649E-02
(PID.TID 0000.0001) %MON dynstat_eta_sd               =   6.1207718140283E-01
(PID.TID 0000.0001) %MON dynstat_eta_del2             =   2.9025273413472E-03
(PID.TID 0000.0001) %MON dynstat_uvel_max             =   1.9455239516374E+00
(PID.TID 0000.0001) %MON dynstat_uvel_min             =  -9.6311301534010E-01
(PID.TID 0000.0001) %MON dynstat_uvel_mean            =  -9.3990211629103E-05
(PID.TID 0000.0001) %MON dynstat_uvel_sd              =   1.4109689089722E-02
(PID.TID 0000.0001) %MON dynstat_uvel_del2            =   1.3381665143053E-04
(PID.TID 0000.0001) %MON dynstat_vvel_max             =   1.1714187373938E+00
(PID.TID 0000.0001) %MON dynstat_vvel_min             =  -1.4119883291715E+00
(PID.TID 0000.0001) %MON dynstat_vvel_mean            =  -4.3111474848138E-04
(PID.TID 0000.0001) %MON dynstat_vvel_sd              =   1.3996247553162E-02
(PID.TID 0000.0001) %MON dynstat_vvel_del2            =   1.4503755982126E-04
(PID.TID 0000.0001) %MON dynstat_wvel_max             =   1.1684873057343E-04
(PID.TID 0000.0001) %MON dynstat_wvel_min             =  -5.5629549551646E-04
(PID.TID 0000.0001) %MON dynstat_wvel_mean            =  -4.0990292165548E-07
(PID.TID 0000.0001) %MON dynstat_wvel_sd              =   8.5590673780969E-06
(PID.TID 0000.0001) %MON dynstat_wvel_del2            =   7.9786501624439E-08
(PID.TID 0000.0001) %MON dynstat_theta_max            =   3.0923900953844E+01
(PID.TID 0000.0001) %MON dynstat_theta_min            =  -3.0096732685133E+00
(PID.TID 0000.0001) %MON dynstat_theta_mean           =   3.9090961492131E+00
(PID.TID 0000.0001) %MON dynstat_theta_sd             =   4.5711563421894E+00
(PID.TID 0000.0001) %MON dynstat_theta_del2           =   2.6499564517198E-03
(PID.TID 0000.0001) %MON dynstat_salt_max             =   4.1366190071668E+01
(PID.TID 0000.0001) %MON dynstat_salt_min             =   1.8518520062748E+01
(PID.TID 0000.0001) %MON dynstat_salt_mean            =   3.4772109088430E+01
(PID.TID 0000.0001) %MON dynstat_salt_sd              =   5.3113984079848E-01
(PID.TID 0000.0001) %MON dynstat_salt_del2            =   8.4600029916657E-04
(PID.TID 0000.0001) %MON dynstat_sst_max              =   3.0923900953844E+01
(PID.TID 0000.0001) %MON dynstat_sst_min              =  -1.8994879997430E+00
(PID.TID 0000.0001) %MON dynstat_sst_mean             =   1.8108490007773E+01
(PID.TID 0000.0001) %MON dynstat_sst_sd               =   9.8038452996206E+00
(PID.TID 0000.0001) %MON dynstat_sst_del2             =   1.5211464309748E-02
(PID.TID 0000.0001) %MON dynstat_sss_max              =   4.1366190071668E+01
(PID.TID 0000.0001) %MON dynstat_sss_min              =   1.8751383222368E+01
(PID.TID 0000.0001) %MON dynstat_sss_mean             =   3.4635621456500E+01
(PID.TID 0000.0001) %MON dynstat_sss_sd               =   1.4620294765339E+00
(PID.TID 0000.0001) %MON dynstat_sss_del2             =   8.6843248673637E-03
(PID.TID 0000.0001) %MON forcing_qnet_max             =   3.5030081694539E+03
(PID.TID 0000.0001) %MON forcing_qnet_min             =  -3.6727331542969E+03
(PID.TID 0000.0001) %MON forcing_qnet_mean            =  -1.0246880997621E+02
(PID.TID 0000.0001) %MON forcing_qnet_sd              =   3.6337837875580E+02
(PID.TID 0000.0001) %MON forcing_qnet_del2            =   1.0399643783775E+01
(PID.TID 0000.0001) %MON forcing_qsw_max              =   0.0000000000000E+00
(PID.TID 0000.0001) %MON forcing_qsw_min              =  -4.2232521809015E+02
(PID.TID 0000.0001) %MON forcing_qsw_mean             =  -8.4273818752649E+01
(PID.TID 0000.0001) %MON forcing_qsw_sd               =   1.1865608268392E+02
(PID.TID 0000.0001) %MON forcing_qsw_del2             =   9.9770568438509E-01
(PID.TID 0000.0001) %MON forcing_empmr_max            =   2.0149797201157E-02
(PID.TID 0000.0001) %MON forcing_empmr_min            =  -1.8993645906448E-01
(PID.TID 0000.0001) %MON forcing_empmr_mean           =  -4.6150218519822E-04
(PID.TID 0000.0001) %MON forcing_empmr_sd             =   7.1064934301932E-03
(PID.TID 0000.0001) %MON forcing_empmr_del2           =   2.8882994960131E-04
(PID.TID 0000.0001) %MON forcing_fu_max               =   6.7262811087472E-01
(PID.TID 0000.0001) %MON forcing_fu_min               =  -4.5251433451394E-01
(PID.TID 0000.0001) %MON forcing_fu_mean              =  -3.5160010079992E-03
(PID.TID 0000.0001) %MON forcing_fu_sd                =   7.4019473306197E-02
(PID.TID 0000.0001) %MON forcing_fu_del2              =   7.5589650761017E-04
(PID.TID 0000.0001) %MON forcing_fv_max               =   3.3203851817624E-01
(PID.TID 0000.0001) %MON forcing_fv_min               =  -3.5051253704305E-01
(PID.TID 0000.0001) %MON forcing_fv_mean              =  -1.2326966662115E-02
(PID.TID 0000.0001) %MON forcing_fv_sd                =   7.2477422613662E-02
(PID.TID 0000.0001) %MON forcing_fv_del2              =   6.3985003483408E-04
(PID.TID 0000.0001) %MON trAdv_CFL_u_max              =   6.4020024077703E-03
(PID.TID 0000.0001) %MON trAdv_CFL_v_max              =   7.8655585981671E-03
(PID.TID 0000.0001) %MON trAdv_CFL_w_max              =   5.8446344929168E-03
(PID.TID 0000.0001) %MON advcfl_uvel_max              =   6.4878683575667E-03
(PID.TID 0000.0001) %MON advcfl_vvel_max              =   4.2314034318868E-03
(PID.TID 0000.0001) %MON advcfl_wvel_max              =   6.6064855326777E-03
(PID.TID 0000.0001) %MON advcfl_W_hf_max              =   5.8446344929168E-03
(PID.TID 0000.0001) %MON pe_b_mean                    =   4.9939598344206E-04
(PID.TID 0000.0001) %MON ke_max                       =   1.3716437784913E+00
(PID.TID 0000.0001) %MON ke_mean                      =   1.8243311915309E-04
(PID.TID 0000.0001) %MON ke_vol                       =   1.3398078530917E+18
(PID.TID 0000.0001) %MON vort_r_min                   =  -8.3450341709344E-06
(PID.TID 0000.0001) %MON vort_r_max                   =   3.1187938256533E-06
(PID.TID 0000.0001) %MON vort_a_mean                  =  -2.0549865324846E-05
(PID.TID 0000.0001) %MON vort_a_sd                    =   7.5259517558492E-05
(PID.TID 0000.0001) %MON vort_p_mean                  =  -2.4783373049729E-05
(PID.TID 0000.0001) %MON vort_p_sd                    =   1.2811915694808E-04
(PID.TID 0000.0001) %MON surfExpan_theta_mean         =  -7.6237328888384E-06
(PID.TID 0000.0001) %MON surfExpan_salt_mean          =   1.6060818765957E-06
(PID.TID 0000.0001) // =======================================================
(PID.TID 0000.0001) // End MONITOR dynamic field statistics
(PID.TID 0000.0001) // =======================================================
 Computing Diagnostic #     81  oceTAUX      Counter:       1   Parms: UU      U1      
           Vector  Mate for  oceTAUX      Diagnostic #     82  oceTAUY  exists 
 Computing Diagnostic #     82  oceTAUY      Counter:       1   Parms: VV      U1      
           Vector  Mate for  oceTAUY      Diagnostic #     81  oceTAUX  exists 
 Computing Diagnostic #     85  oceFWflx     Counter:       1   Parms: SM      U1      
 Computing Diagnostic #     86  oceSflux     Counter:       1   Parms: SM      U1      
 Computing Diagnostic #     87  oceQnet      Counter:       1   Parms: SM      U1      
 Computing Diagnostic #     88  oceQsw       Counter:       1   Parms: SM      U1      
 Computing Diagnostic #     27  SALT         Counter:       1   Parms: SMR     MR      
 Computing Diagnostic #     26  THETA        Counter:       1   Parms: SMR     MR      
 Computing Diagnostic #     45  UVELMASS     Counter:       1   Parms: UUr     MR      
           Vector  Mate for  UVELMASS     Diagnostic #     46  VVELMASS exists 
 Computing Diagnostic #     46  VVELMASS     Counter:       1   Parms: VVr     MR      
           Vector  Mate for  VVELMASS     Diagnostic #     45  UVELMASS exists 
 cg2d: Sum(rhs),rhsMax =  -1.62422026960780E+01  8.29762933655946E+01
(PID.TID 0000.0001)      cg2d_init_res =   2.99555806857652E-01
(PID.TID 0000.0001)      cg2d_iters(min,last) =      -1      10
(PID.TID 0000.0001)      cg2d_last_res =   4.24390341566336E-08
(PID.TID 0000.0001) // =======================================================
(PID.TID 0000.0001) // Begin MONITOR dynamic field statistics
(PID.TID 0000.0001) // =======================================================
(PID.TID 0000.0001) %MON time_tsnumber                =                 72016
(PID.TID 0000.0001) %MON time_secondsf                =   6.4814400000000E+07
(PID.TID 0000.0001) %MON dynstat_eta_max              =   3.7964004685001E+00
(PID.TID 0000.0001) %MON dynstat_eta_min              =  -2.0092100730360E+00
(PID.TID 0000.0001) %MON dynstat_eta_mean             =   1.5660301887090E-02
(PID.TID 0000.0001) %MON dynstat_eta_sd               =   6.1329046805817E-01
(PID.TID 0000.0001) %MON dynstat_eta_del2             =   3.1338809316414E-03
(PID.TID 0000.0001) %MON dynstat_uvel_max             =   1.8877036476007E+00
(PID.TID 0000.0001) %MON dynstat_uvel_min             =  -9.4410458007850E-01
(PID.TID 0000.0001) %MON dynstat_uvel_mean            =  -7.2117283446051E-05
(PID.TID 0000.0001) %MON dynstat_uvel_sd              =   1.3995430911122E-02
(PID.TID 0000.0001) %MON dynstat_uvel_del2            =   1.2910576166652E-04
(PID.TID 0000.0001) %MON dynstat_vvel_max             =   1.0823334913942E+00
(PID.TID 0000.0001) %MON dynstat_vvel_min             =  -1.2992422817566E+00
(PID.TID 0000.0001) %MON dynstat_vvel_mean            =  -4.3349638630930E-04
(PID.TID 0000.0001) %MON dynstat_vvel_sd              =   1.3896828899691E-02
(PID.TID 0000.0001) %MON dynstat_vvel_del2            =   1.3505956733974E-04
(PID.TID 0000.0001) %MON dynstat_wvel_max             =   1.2749935277648E-04
(PID.TID 0000.0001) %MON dynstat_wvel_min             =  -5.4177009825092E-04
(PID.TID 0000.0001) %MON dynstat_wvel_mean            =  -3.9623270900404E-07
(PID.TID 0000.0001) %MON dynstat_wvel_sd              =   8.5966192600185E-06
(PID.TID 0000.0001) %MON dynstat_wvel_del2            =   8.0135230377631E-08
(PID.TID 0000.0001) %MON dynstat_theta_max            =   3.0924040234279E+01
(PID.TID 0000.0001) %MON dynstat_theta_min            =  -3.0092379006853E+00
(PID.TID 0000.0001) %MON dynstat_theta_mean           =   3.9091037040612E+00
(PID.TID 0000.0001) %MON dynstat_theta_sd             =   4.5711861046994E+00
(PID.TID 0000.0001) %MON dynstat_theta_del2           =   2.6497872760247E-03
(PID.TID 0000.0001) %MON dynstat_salt_max             =   4.1365314996369E+01
(PID.TID 0000.0001) %MON dynstat_salt_min             =   1.8518529922785E+01
(PID.TID 0000.0001) %MON dynstat_salt_mean            =   3.4772103475083E+01
(PID.TID 0000.0001) %MON dynstat_salt_sd              =   5.3115889567700E-01
(PID.TID 0000.0001) %MON dynstat_salt_del2            =   8.5100005875531E-04
(PID.TID 0000.0001) %MON dynstat_sst_max              =   3.0924040234279E+01
(PID.TID 0000.0001) %MON dynstat_sst_min              =  -1.8994666334061E+00
(PID.TID 0000.0001) %MON dynstat_sst_mean             =   1.8108860797855E+01
(PID.TID 0000.0001) %MON dynstat_sst_sd               =   9.8041659804808E+00
(PID.TID 0000.0001) %MON dynstat_sst_del2             =   1.5207468406068E-02
(PID.TID 0000.0001) %MON dynstat_sss_max              =   4.1365314996369E+01
(PID.TID 0000.0001) %MON dynstat_sss_min              =   1.8751383975910E+01
(PID.TID 0000.0001) %MON dynstat_sss_mean             =   3.4635213724890E+01
(PID.TID 0000.0001) %MON dynstat_sss_sd               =   1.4625004663038E+00
(PID.TID 0000.0001) %MON dynstat_sss_del2             =   8.7609980218638E-03
(PID.TID 0000.0001) %MON forcing_qnet_max             =   2.2006385159318E+04
(PID.TID 0000.0001) %MON forcing_qnet_min             =  -2.1837778719976E+03
(PID.TID 0000.0001) %MON forcing_qnet_mean            =  -8.7728392743458E+01
(PID.TID 0000.0001) %MON forcing_qnet_sd              =   4.8909656322414E+02
(PID.TID 0000.0001) %MON forcing_qnet_del2            =   1.5728579462823E+01
(PID.TID 0000.0001) %MON forcing_qsw_max              =   0.0000000000000E+00
(PID.TID 0000.0001) %MON forcing_qsw_min              =  -4.2746280402790E+02
(PID.TID 0000.0001) %MON forcing_qsw_mean             =  -8.2954090177548E+01
(PID.TID 0000.0001) %MON forcing_qsw_sd               =   1.1749481220733E+02
(PID.TID 0000.0001) %MON forcing_qsw_del2             =   1.0061498045684E+00
(PID.TID 0000.0001) %MON forcing_empmr_max            =   1.4718377031386E-02
(PID.TID 0000.0001) %MON forcing_empmr_min            =  -1.8180279433727E-01
(PID.TID 0000.0001) %MON forcing_empmr_mean           =  -4.5766925870758E-04
(PID.TID 0000.0001) %MON forcing_empmr_sd             =   7.0049117210803E-03
(PID.TID 0000.0001) %MON forcing_empmr_del2           =   2.8522286475387E-04
(PID.TID 0000.0001) %MON forcing_fu_max               =   6.6128138961820E-01
(PID.TID 0000.0001) %MON forcing_fu_min               =  -4.4092178725364E-01
(PID.TID 0000.0001) %MON forcing_fu_mean              =  -3.4267938606716E-03
(PID.TID 0000.0001) %MON forcing_fu_sd                =   7.3585719254827E-02
(PID.TID 0000.0001) %MON forcing_fu_del2              =   7.4949805541784E-04
(PID.TID 0000.0001) %MON forcing_fv_max               =   3.2578493612454E-01
(PID.TID 0000.0001) %MON forcing_fv_min               =  -3.5382221619550E-01
(PID.TID 0000.0001) %MON forcing_fv_mean              =  -1.2138852377405E-02
(PID.TID 0000.0001) %MON forcing_fv_sd                =   7.2081078092220E-02
(PID.TID 0000.0001) %MON forcing_fv_del2              =   6.3621258521239E-04
(PID.TID 0000.0001) %MON trAdv_CFL_u_max              =   6.2284056630308E-03
(PID.TID 0000.0001) %MON trAdv_CFL_v_max              =   7.3041540335497E-03
(PID.TID 0000.0001) %MON trAdv_CFL_w_max              =   5.5468061826957E-03
(PID.TID 0000.0001) %MON advcfl_uvel_max              =   6.2950511369567E-03
(PID.TID 0000.0001) %MON advcfl_vvel_max              =   3.8935295259154E-03
(PID.TID 0000.0001) %MON advcfl_wvel_max              =   6.3235754552095E-03
(PID.TID 0000.0001) %MON advcfl_W_hf_max              =   5.5468061826957E-03
(PID.TID 0000.0001) %MON pe_b_mean                    =   5.0139290383963E-04
(PID.TID 0000.0001) %MON ke_max                       =   1.1934585131761E+00
(PID.TID 0000.0001) %MON ke_mean                      =   1.7967061942850E-04
(PID.TID 0000.0001) %MON ke_vol                       =   1.3398079991217E+18
(PID.TID 0000.0001) %MON vort_r_min                   =  -8.6027785883061E-06
(PID.TID 0000.0001) %MON vort_r_max                   =   3.0883285131445E-06
(PID.TID 0000.0001) %MON vort_a_mean                  =  -2.0549865324846E-05
(PID.TID 0000.0001) %MON vort_a_sd                    =   7.5259516542500E-05
(PID.TID 0000.0001) %MON vort_p_mean                  =  -2.4783369618748E-05
(PID.TID 0000.0001) %MON vort_p_sd                    =   1.2811915728976E-04
(PID.TID 0000.0001) %MON surfExpan_theta_mean         =  -7.5913633839891E-06
(PID.TID 0000.0001) %MON surfExpan_salt_mean          =   1.5994614055056E-06
(PID.TID 0000.0001) // =======================================================
(PID.TID 0000.0001) // End MONITOR dynamic field statistics
(PID.TID 0000.0001) // =======================================================
 cg2d: Sum(rhs),rhsMax =  -1.60324312344232E+01  8.61849775769635E+01
(PID.TID 0000.0001)      cg2d_init_res =   2.59115340969777E-01
(PID.TID 0000.0001)      cg2d_iters(min,last) =      -1      10
(PID.TID 0000.0001)      cg2d_last_res =   3.96984544098237E-08
(PID.TID 0000.0001) // =======================================================
(PID.TID 0000.0001) // Begin MONITOR dynamic field statistics
(PID.TID 0000.0001) // =======================================================
(PID.TID 0000.0001) %MON time_tsnumber                =                 72017
(PID.TID 0000.0001) %MON time_secondsf                =   6.4815300000000E+07
(PID.TID 0000.0001) %MON dynstat_eta_max              =   3.9409470583014E+00
(PID.TID 0000.0001) %MON dynstat_eta_min              =  -2.2790644863835E+00
(PID.TID 0000.0001) %MON dynstat_eta_mean             =   1.6055806741106E-02
(PID.TID 0000.0001) %MON dynstat_eta_sd               =   6.1468929412225E-01
(PID.TID 0000.0001) %MON dynstat_eta_del2             =   3.3498955654266E-03
(PID.TID 0000.0001) %MON dynstat_uvel_max             =   1.8103063876165E+00
(PID.TID 0000.0001) %MON dynstat_uvel_min             =  -9.1786986381278E-01
(PID.TID 0000.0001) %MON dynstat_uvel_mean            =  -5.1230178725346E-05
(PID.TID 0000.0001) %MON dynstat_uvel_sd              =   1.3861913496476E-02
(PID.TID 0000.0001) %MON dynstat_uvel_del2            =   1.2393652278820E-04
(PID.TID 0000.0001) %MON dynstat_vvel_max             =   9.8080626567878E-01
(PID.TID 0000.0001) %MON dynstat_vvel_min             =  -1.1682669110545E+00
(PID.TID 0000.0001) %MON dynstat_vvel_mean            =  -4.3447644356370E-04
(PID.TID 0000.0001) %MON dynstat_vvel_sd              =   1.3810026491992E-02
(PID.TID 0000.0001) %MON dynstat_vvel_del2            =   1.2565893602300E-04
(PID.TID 0000.0001) %MON dynstat_wvel_max             =   1.2992857992319E-04
(PID.TID 0000.0001) %MON dynstat_wvel_min             =  -5.1670257297265E-04
(PID.TID 0000.0001) %MON dynstat_wvel_mean            =  -3.8240345158745E-07
(PID.TID 0000.0001) %MON dynstat_wvel_sd              =   8.6874599610616E-06
(PID.TID 0000.0001) %MON dynstat_wvel_del2            =   8.0619567686858E-08
(PID.TID 0000.0001) %MON dynstat_theta_max            =   3.0924285266117E+01
(PID.TID 0000.0001) %MON dynstat_theta_min            =  -3.0087649394850E+00
(PID.TID 0000.0001) %MON dynstat_theta_mean           =   3.9091111493085E+00
(PID.TID 0000.0001) %MON dynstat_theta_sd             =   4.5712145037459E+00
(PID.TID 0000.0001) %MON dynstat_theta_del2           =   2.6496335744461E-03
(PID.TID 0000.0001) %MON dynstat_salt_max             =   4.1364478374261E+01
(PID.TID 0000.0001) %MON dynstat_salt_min             =   1.8518539786028E+01
(PID.TID 0000.0001) %MON dynstat_salt_mean            =   3.4772098097352E+01
(PID.TID 0000.0001) %MON dynstat_salt_sd              =   5.3117819482737E-01
(PID.TID 0000.0001) %MON dynstat_salt_del2            =   8.5613066408174E-04
(PID.TID 0000.0001) %MON dynstat_sst_max              =   3.0924285266117E+01
(PID.TID 0000.0001) %MON dynstat_sst_min              =  -1.8994442615225E+00
(PID.TID 0000.0001) %MON dynstat_sst_mean             =   1.8109232858255E+01
(PID.TID 0000.0001) %MON dynstat_sst_sd               =   9.8044503127577E+00
(PID.TID 0000.0001) %MON dynstat_sst_del2             =   1.5203906191187E-02
(PID.TID 0000.0001) %MON dynstat_sss_max              =   4.1364478374261E+01
(PID.TID 0000.0001) %MON dynstat_sss_min              =   1.8751384651497E+01
(PID.TID 0000.0001) %MON dynstat_sss_mean             =   3.4634824716178E+01
(PID.TID 0000.0001) %MON dynstat_sss_sd               =   1.4629823969492E+00
(PID.TID 0000.0001) %MON dynstat_sss_del2             =   8.8394668510584E-03
(PID.TID 0000.0001) %MON forcing_qnet_max             =   4.0461811523438E+03
(PID.TID 0000.0001) %MON forcing_qnet_min             =  -3.7308746707212E+03
(PID.TID 0000.0001) %MON forcing_qnet_mean            =  -8.6396322256466E+01
(PID.TID 0000.0001) %MON forcing_qnet_sd              =   3.4211575768907E+02
(PID.TID 0000.0001) %MON forcing_qnet_del2            =   9.5194200827958E+00
(PID.TID 0000.0001) %MON forcing_qsw_max              =   0.0000000000000E+00
(PID.TID 0000.0001) %MON forcing_qsw_min              =  -4.3353725853779E+02
(PID.TID 0000.0001) %MON forcing_qsw_mean             =  -8.1428340445487E+01
(PID.TID 0000.0001) %MON forcing_qsw_sd               =   1.1688352372624E+02
(PID.TID 0000.0001) %MON forcing_qsw_del2             =   1.0376625303643E+00
(PID.TID 0000.0001) %MON forcing_empmr_max            =   1.3024801388383E-02
(PID.TID 0000.0001) %MON forcing_empmr_min            =  -1.7510531842709E-01
(PID.TID 0000.0001) %MON forcing_empmr_mean           =  -4.5483058211855E-04
(PID.TID 0000.0001) %MON forcing_empmr_sd             =   6.9055708083627E-03
(PID.TID 0000.0001) %MON forcing_empmr_del2           =   2.8148201867214E-04
(PID.TID 0000.0001) %MON forcing_fu_max               =   6.4740384467894E-01
(PID.TID 0000.0001) %MON forcing_fu_min               =  -4.3361608755264E-01
(PID.TID 0000.0001) %MON forcing_fu_mean              =  -3.3558196014364E-03
(PID.TID 0000.0001) %MON forcing_fu_sd                =   7.3092089244955E-02
(PID.TID 0000.0001) %MON forcing_fu_del2              =   7.4215322888407E-04
(PID.TID 0000.0001) %MON forcing_fv_max               =   3.2048324027152E-01
(PID.TID 0000.0001) %MON forcing_fv_min               =  -3.5887043810959E-01
(PID.TID 0000.0001) %MON forcing_fv_mean              =  -1.1983518716497E-02
(PID.TID 0000.0001) %MON forcing_fv_sd                =   7.1652746626452E-02
(PID.TID 0000.0001) %MON forcing_fv_del2              =   6.3222878242650E-04
(PID.TID 0000.0001) %MON trAdv_CFL_u_max              =   5.9882425411647E-03
(PID.TID 0000.0001) %MON trAdv_CFL_v_max              =   6.6354805889127E-03
(PID.TID 0000.0001) %MON trAdv_CFL_w_max              =   5.2477423027705E-03
(PID.TID 0000.0001) %MON advcfl_uvel_max              =   6.0369493368781E-03
(PID.TID 0000.0001) %MON advcfl_vvel_max              =   3.5010265415554E-03
(PID.TID 0000.0001) %MON advcfl_wvel_max              =   6.0906197713769E-03
(PID.TID 0000.0001) %MON advcfl_W_hf_max              =   5.2477423027705E-03
(PID.TID 0000.0001) %MON pe_b_mean                    =   5.0369788452020E-04
(PID.TID 0000.0001) %MON ke_max                       =   1.0013289607872E+00
(PID.TID 0000.0001) %MON ke_mean                      =   1.7684535019427E-04
(PID.TID 0000.0001) %MON ke_vol                       =   1.3398081439389E+18
(PID.TID 0000.0001) %MON vort_r_min                   =  -8.7445181572221E-06
(PID.TID 0000.0001) %MON vort_r_max                   =   3.0398425916546E-06
(PID.TID 0000.0001) %MON vort_a_mean                  =  -2.0549865324846E-05
(PID.TID 0000.0001) %MON vort_a_sd                    =   7.5259515842740E-05
(PID.TID 0000.0001) %MON vort_p_mean                  =  -2.4783366320059E-05
(PID.TID 0000.0001) %MON vort_p_sd                    =   1.2811916127933E-04
(PID.TID 0000.0001) %MON surfExpan_theta_mean         =  -7.5491711689885E-06
(PID.TID 0000.0001) %MON surfExpan_salt_mean          =   1.5860213563887E-06
(PID.TID 0000.0001) // =======================================================
(PID.TID 0000.0001) // End MONITOR dynamic field statistics
(PID.TID 0000.0001) // =======================================================
 cg2d: Sum(rhs),rhsMax =  -1.59986311431124E+01  8.84772243947455E+01
(PID.TID 0000.0001)      cg2d_init_res =   2.27561199402128E-01
(PID.TID 0000.0001)      cg2d_iters(min,last) =      -1      10
(PID.TID 0000.0001)      cg2d_last_res =   3.51529369383663E-08
(PID.TID 0000.0001) // =======================================================
(PID.TID 0000.0001) // Begin MONITOR dynamic field statistics
(PID.TID 0000.0001) // =======================================================
(PID.TID 0000.0001) %MON time_tsnumber                =                 72018
(PID.TID 0000.0001) %MON time_secondsf                =   6.4816200000000E+07
(PID.TID 0000.0001) %MON dynstat_eta_max              =   4.0440205439069E+00
(PID.TID 0000.0001) %MON dynstat_eta_min              =  -2.8008195958201E+00
(PID.TID 0000.0001) %MON dynstat_eta_mean             =   1.6448090574671E-02
(PID.TID 0000.0001) %MON dynstat_eta_sd               =   6.1611350770047E-01
(PID.TID 0000.0001) %MON dynstat_eta_del2             =   3.5327812987784E-03
(PID.TID 0000.0001) %MON dynstat_uvel_max             =   1.7139962831893E+00
(PID.TID 0000.0001) %MON dynstat_uvel_min             =  -8.8518384598434E-01
(PID.TID 0000.0001) %MON dynstat_uvel_mean            =  -3.1752399938190E-05
(PID.TID 0000.0001) %MON dynstat_uvel_sd              =   1.3720818297228E-02
(PID.TID 0000.0001) %MON dynstat_uvel_del2            =   1.1857806482247E-04
(PID.TID 0000.0001) %MON dynstat_vvel_max             =   8.6926213202762E-01
(PID.TID 0000.0001) %MON dynstat_vvel_min             =  -1.0220787991437E+00
(PID.TID 0000.0001) %MON dynstat_vvel_mean            =  -4.3452432907776E-04
(PID.TID 0000.0001) %MON dynstat_vvel_sd              =   1.3742953862445E-02
(PID.TID 0000.0001) %MON dynstat_vvel_del2            =   1.1734973240128E-04
(PID.TID 0000.0001) %MON dynstat_wvel_max             =   1.2392188053442E-04
(PID.TID 0000.0001) %MON dynstat_wvel_min             =  -4.8281686210637E-04
(PID.TID 0000.0001) %MON dynstat_wvel_mean            =  -3.6796079374487E-07
(PID.TID 0000.0001) %MON dynstat_wvel_sd              =   8.8238032755101E-06
(PID.TID 0000.0001) %MON dynstat_wvel_del2            =   8.1239524980940E-08
(PID.TID 0000.0001) %MON dynstat_theta_max            =   3.0924570772675E+01
(PID.TID 0000.0001) %MON dynstat_theta_min            =  -3.0082770959473E+00
(PID.TID 0000.0001) %MON dynstat_theta_mean           =   3.9091181635374E+00
(PID.TID 0000.0001) %MON dynstat_theta_sd             =   4.5712411444898E+00
(PID.TID 0000.0001) %MON dynstat_theta_del2           =   2.6494831941400E-03
(PID.TID 0000.0001) %MON dynstat_salt_max             =   4.1363684961012E+01
(PID.TID 0000.0001) %MON dynstat_salt_min             =   1.8518549646976E+01
(PID.TID 0000.0001) %MON dynstat_salt_mean            =   3.4772092847366E+01
(PID.TID 0000.0001) %MON dynstat_salt_sd              =   5.3119771728088E-01
(PID.TID 0000.0001) %MON dynstat_salt_del2            =   8.6135357808569E-04
(PID.TID 0000.0001) %MON dynstat_sst_max              =   3.0924570772675E+01
(PID.TID 0000.0001) %MON dynstat_sst_min              =  -1.8994212059268E+00
(PID.TID 0000.0001) %MON dynstat_sst_mean             =   1.8109573515359E+01
(PID.TID 0000.0001) %MON dynstat_sst_sd               =   9.8047163098455E+00
(PID.TID 0000.0001) %MON dynstat_sst_del2             =   1.5200417406291E-02
(PID.TID 0000.0001) %MON dynstat_sss_max              =   4.1363684961012E+01
(PID.TID 0000.0001) %MON dynstat_sss_min              =   1.8751385361397E+01
(PID.TID 0000.0001) %MON dynstat_sss_mean             =   3.4634443293209E+01
(PID.TID 0000.0001) %MON dynstat_sss_sd               =   1.4634689208476E+00
(PID.TID 0000.0001) %MON dynstat_sss_del2             =   8.9191391864946E-03
(PID.TID 0000.0001) %MON forcing_qnet_max             =   3.4778371582031E+03
(PID.TID 0000.0001) %MON forcing_qnet_min             =  -2.1958319603081E+03
(PID.TID 0000.0001) %MON forcing_qnet_mean            =  -7.9615695966424E+01
(PID.TID 0000.0001) %MON forcing_qnet_sd              =   3.2993696148307E+02
(PID.TID 0000.0001) %MON forcing_qnet_del2            =   8.8640054140157E+00
(PID.TID 0000.0001) %MON forcing_qsw_max              =   0.0000000000000E+00
(PID.TID 0000.0001) %MON forcing_qsw_min              =  -4.3522417301319E+02
(PID.TID 0000.0001) %MON forcing_qsw_mean             =  -8.0347995777899E+01
(PID.TID 0000.0001) %MON forcing_qsw_sd               =   1.1571943631646E+02
(PID.TID 0000.0001) %MON forcing_qsw_del2             =   1.0488482547349E+00
(PID.TID 0000.0001) %MON forcing_empmr_max            =   1.2745244428515E-02
(PID.TID 0000.0001) %MON forcing_empmr_min            =  -1.6879095137119E-01
(PID.TID 0000.0001) %MON forcing_empmr_mean           =  -4.5112640859950E-04
(PID.TID 0000.0001) %MON forcing_empmr_sd             =   6.8110270431330E-03
(PID.TID 0000.0001) %MON forcing_empmr_del2           =   2.7783453336157E-04
(PID.TID 0000.0001) %MON forcing_fu_max               =   6.3109605134735E-01
(PID.TID 0000.0001) %MON forcing_fu_min               =  -4.2448158948155E-01
(PID.TID 0000.0001) %MON forcing_fu_mean              =  -3.3040464091663E-03
(PID.TID 0000.0001) %MON forcing_fu_sd                =   7.2548330295851E-02
(PID.TID 0000.0001) %MON forcing_fu_del2              =   7.3345512311801E-04
(PID.TID 0000.0001) %MON forcing_fv_max               =   3.1522378958818E-01
(PID.TID 0000.0001) %MON forcing_fv_min               =  -3.5979313076395E-01
(PID.TID 0000.0001) %MON forcing_fv_mean              =  -1.1877538665075E-02
(PID.TID 0000.0001) %MON forcing_fv_sd                =   7.1178472410967E-02
(PID.TID 0000.0001) %MON forcing_fv_del2              =   6.2733555095850E-04
(PID.TID 0000.0001) %MON trAdv_CFL_u_max              =   5.6836170998005E-03
(PID.TID 0000.0001) %MON trAdv_CFL_v_max              =   5.8748063415112E-03
(PID.TID 0000.0001) %MON trAdv_CFL_w_max              =   4.9488647033384E-03
(PID.TID 0000.0001) %MON advcfl_uvel_max              =   5.7157776142164E-03
(PID.TID 0000.0001) %MON advcfl_vvel_max              =   3.0629344797013E-03
(PID.TID 0000.0001) %MON advcfl_wvel_max              =   5.8709896129111E-03
(PID.TID 0000.0001) %MON advcfl_W_hf_max              =   4.9488647033384E-03
(PID.TID 0000.0001) %MON pe_b_mean                    =   5.0605002796589E-04
(PID.TID 0000.0001) %MON ke_max                       =   8.2832855442594E-01
(PID.TID 0000.0001) %MON ke_mean                      =   1.7419937210800E-04
(PID.TID 0000.0001) %MON ke_vol                       =   1.3398082878579E+18
(PID.TID 0000.0001) %MON vort_r_min                   =  -8.7668549599595E-06
(PID.TID 0000.0001) %MON vort_r_max                   =   2.9750731521779E-06
(PID.TID 0000.0001) %MON vort_a_mean                  =  -2.0549865324846E-05
(PID.TID 0000.0001) %MON vort_a_sd                    =   7.5259515385648E-05
(PID.TID 0000.0001) %MON vort_p_mean                  =  -2.4783363140591E-05
(PID.TID 0000.0001) %MON vort_p_sd                    =   1.2811916654699E-04
(PID.TID 0000.0001) %MON surfExpan_theta_mean         =  -7.5040842409920E-06
(PID.TID 0000.0001) %MON surfExpan_salt_mean          =   1.5665294954430E-06
(PID.TID 0000.0001) // =======================================================
(PID.TID 0000.0001) // End MONITOR dynamic field statistics
(PID.TID 0000.0001) // =======================================================
 cg2d: Sum(rhs),rhsMax =  -1.61304334932243E+01  8.98178369144115E+01
(PID.TID 0000.0001)      cg2d_init_res =   2.05946561057290E-01
(PID.TID 0000.0001)      cg2d_iters(min,last) =      -1      10
(PID.TID 0000.0001)      cg2d_last_res =   3.15569371439605E-08
(PID.TID 0000.0001) // =======================================================
(PID.TID 0000.0001) // Begin MONITOR dynamic field statistics
(PID.TID 0000.0001) // =======================================================
(PID.TID 0000.0001) %MON time_tsnumber                =                 72019
(PID.TID 0000.0001) %MON time_secondsf                =   6.4817100000000E+07
(PID.TID 0000.0001) %MON dynstat_eta_max              =   4.1040094188598E+00
(PID.TID 0000.0001) %MON dynstat_eta_min              =  -3.2534642117898E+00
(PID.TID 0000.0001) %MON dynstat_eta_mean             =   1.6834871424710E-02
(PID.TID 0000.0001) %MON dynstat_eta_sd               =   6.1745668135202E-01
(PID.TID 0000.0001) %MON dynstat_eta_del2             =   3.6742369025354E-03
(PID.TID 0000.0001) %MON dynstat_uvel_max             =   1.5996189089606E+00
(PID.TID 0000.0001) %MON dynstat_uvel_min             =  -8.4686813543316E-01
(PID.TID 0000.0001) %MON dynstat_uvel_mean            =  -1.4296740085987E-05
(PID.TID 0000.0001) %MON dynstat_uvel_sd              =   1.3580527144492E-02
(PID.TID 0000.0001) %MON dynstat_uvel_del2            =   1.1325563577360E-04
(PID.TID 0000.0001) %MON dynstat_vvel_max             =   7.5016993480437E-01
(PID.TID 0000.0001) %MON dynstat_vvel_min             =  -8.6382542216068E-01
(PID.TID 0000.0001) %MON dynstat_vvel_mean            =  -4.3420498215039E-04
(PID.TID 0000.0001) %MON dynstat_vvel_sd              =   1.3699233457664E-02
(PID.TID 0000.0001) %MON dynstat_vvel_del2            =   1.1058585790266E-04
(PID.TID 0000.0001) %MON dynstat_wvel_max             =   1.1010558009024E-04
(PID.TID 0000.0001) %MON dynstat_wvel_min             =  -4.4268783815435E-04
(PID.TID 0000.0001) %MON dynstat_wvel_mean            =  -3.5252328344493E-07
(PID.TID 0000.0001) %MON dynstat_wvel_sd              =   8.9747656522880E-06
(PID.TID 0000.0001) %MON dynstat_wvel_del2            =   8.1811470501682E-08
(PID.TID 0000.0001) %MON dynstat_theta_max            =   3.0924894280695E+01
(PID.TID 0000.0001) %MON dynstat_theta_min            =  -3.0078004718450E+00
(PID.TID 0000.0001) %MON dynstat_theta_mean           =   3.9091248602857E+00
(PID.TID 0000.0001) %MON dynstat_theta_sd             =   4.5712665128609E+00
(PID.TID 0000.0001) %MON dynstat_theta_del2           =   2.6493418190686E-03
(PID.TID 0000.0001) %MON dynstat_salt_max             =   4.1362937319554E+01
(PID.TID 0000.0001) %MON dynstat_salt_min             =   1.8518559503639E+01
(PID.TID 0000.0001) %MON dynstat_salt_mean            =   3.4772087754962E+01
(PID.TID 0000.0001) %MON dynstat_salt_sd              =   5.3121735978823E-01
(PID.TID 0000.0001) %MON dynstat_salt_del2            =   8.6665922473313E-04
(PID.TID 0000.0001) %MON dynstat_sst_max              =   3.0924894280695E+01
(PID.TID 0000.0001) %MON dynstat_sst_min              =  -1.8993954718832E+00
(PID.TID 0000.0001) %MON dynstat_sst_mean             =   1.8109895042564E+01
(PID.TID 0000.0001) %MON dynstat_sst_sd               =   9.8049688270587E+00
(PID.TID 0000.0001) %MON dynstat_sst_del2             =   1.5197186278481E-02
(PID.TID 0000.0001) %MON dynstat_sss_max              =   4.1362937319554E+01
(PID.TID 0000.0001) %MON dynstat_sss_min              =   1.8751386033361E+01
(PID.TID 0000.0001) %MON dynstat_sss_mean             =   3.4634072922687E+01
(PID.TID 0000.0001) %MON dynstat_sss_sd               =   1.4639592495516E+00
(PID.TID 0000.0001) %MON dynstat_sss_del2             =   8.9998615078419E-03
(PID.TID 0000.0001) %MON forcing_qnet_max             =   3.3132618907394E+03
(PID.TID 0000.0001) %MON forcing_qnet_min             =  -2.1749672531483E+03
(PID.TID 0000.0001) %MON forcing_qnet_mean            =  -7.4859355393178E+01
(PID.TID 0000.0001) %MON forcing_qnet_sd              =   3.2065692053746E+02
(PID.TID 0000.0001) %MON forcing_qnet_del2            =   8.4172264677637E+00
(PID.TID 0000.0001) %MON forcing_qsw_max              =   0.0000000000000E+00
(PID.TID 0000.0001) %MON forcing_qsw_min              =  -4.3515560915314E+02
(PID.TID 0000.0001) %MON forcing_qsw_mean             =  -7.9074035098725E+01
(PID.TID 0000.0001) %MON forcing_qsw_sd               =   1.1435313460203E+02
(PID.TID 0000.0001) %MON forcing_qsw_del2             =   1.0581797538604E+00
(PID.TID 0000.0001) %MON forcing_empmr_max            =   1.2354169040918E-02
(PID.TID 0000.0001) %MON forcing_empmr_min            =  -1.6345596313477E-01
(PID.TID 0000.0001) %MON forcing_empmr_mean           =  -4.4479797754496E-04
(PID.TID 0000.0001) %MON forcing_empmr_sd             =   6.7116692484241E-03
(PID.TID 0000.0001) %MON forcing_empmr_del2           =   2.7364912950031E-04
(PID.TID 0000.0001) %MON forcing_fu_max               =   6.1968831473380E-01
(PID.TID 0000.0001) %MON forcing_fu_min               =  -4.1857230492496E-01
(PID.TID 0000.0001) %MON forcing_fu_mean              =  -3.2680789966269E-03
(PID.TID 0000.0001) %MON forcing_fu_sd                =   7.2087741907862E-02
(PID.TID 0000.0001) %MON forcing_fu_del2              =   7.2640294621755E-04
(PID.TID 0000.0001) %MON forcing_fv_max               =   3.1102309362966E-01
(PID.TID 0000.0001) %MON forcing_fv_min               =  -3.6076126184979E-01
(PID.TID 0000.0001) %MON forcing_fv_mean              =  -1.1813671812932E-02
(PID.TID 0000.0001) %MON forcing_fv_sd                =   7.0682580524840E-02
(PID.TID 0000.0001) %MON forcing_fv_del2              =   6.2298753478754E-04
(PID.TID 0000.0001) %MON trAdv_CFL_u_max              =   5.3170865231314E-03
(PID.TID 0000.0001) %MON trAdv_CFL_v_max              =   5.0391356122686E-03
(PID.TID 0000.0001) %MON trAdv_CFL_w_max              =   4.6498908250786E-03
(PID.TID 0000.0001) %MON advcfl_uvel_max              =   5.3343557630715E-03
(PID.TID 0000.0001) %MON advcfl_vvel_max              =   2.6192093650215E-03
(PID.TID 0000.0001) %MON advcfl_wvel_max              =   5.6854248046875E-03
(PID.TID 0000.0001) %MON advcfl_W_hf_max              =   4.6498908250786E-03
(PID.TID 0000.0001) %MON pe_b_mean                    =   5.0827440923407E-04
(PID.TID 0000.0001) %MON ke_max                       =   7.3575487070290E-01
(PID.TID 0000.0001) %MON ke_mean                      =   1.7188269985805E-04
(PID.TID 0000.0001) %MON ke_vol                       =   1.3398084306048E+18
(PID.TID 0000.0001) %MON vort_r_min                   =  -8.6691584710392E-06
(PID.TID 0000.0001) %MON vort_r_max                   =   2.8957915766109E-06
(PID.TID 0000.0001) %MON vort_a_mean                  =  -2.0549865324846E-05
(PID.TID 0000.0001) %MON vort_a_sd                    =   7.5259515043078E-05
(PID.TID 0000.0001) %MON vort_p_mean                  =  -2.4783360073708E-05
(PID.TID 0000.0001) %MON vort_p_sd                    =   1.2811917103752E-04
(PID.TID 0000.0001) %MON surfExpan_theta_mean         =  -7.4384304977284E-06
(PID.TID 0000.0001) %MON surfExpan_salt_mean          =   1.5393492512227E-06
(PID.TID 0000.0001) // =======================================================
(PID.TID 0000.0001) // End MONITOR dynamic field statistics
(PID.TID 0000.0001) // =======================================================
 Computing Diagnostic #     81  oceTAUX      Counter:       1   Parms: UU      U1      
           Vector  Mate for  oceTAUX      Diagnostic #     82  oceTAUY  exists 
 Computing Diagnostic #     82  oceTAUY      Counter:       1   Parms: VV      U1      
           Vector  Mate for  oceTAUY      Diagnostic #     81  oceTAUX  exists 
 Computing Diagnostic #     85  oceFWflx     Counter:       1   Parms: SM      U1      
 Computing Diagnostic #     86  oceSflux     Counter:       1   Parms: SM      U1      
 Computing Diagnostic #     87  oceQnet      Counter:       1   Parms: SM      U1      
 Computing Diagnostic #     88  oceQsw       Counter:       1   Parms: SM      U1      
 Computing Diagnostic #     27  SALT         Counter:       1   Parms: SMR     MR      
 Computing Diagnostic #     26  THETA        Counter:       1   Parms: SMR     MR      
 Computing Diagnostic #     45  UVELMASS     Counter:       1   Parms: UUr     MR      
           Vector  Mate for  UVELMASS     Diagnostic #     46  VVELMASS exists 
 Computing Diagnostic #     46  VVELMASS     Counter:       1   Parms: VVr     MR      
           Vector  Mate for  VVELMASS     Diagnostic #     45  UVELMASS exists 
 cg2d: Sum(rhs),rhsMax =  -1.64276731995760E+01  9.01920385137872E+01
(PID.TID 0000.0001)      cg2d_init_res =   1.93334655884501E-01
(PID.TID 0000.0001)      cg2d_iters(min,last) =      -1      10
(PID.TID 0000.0001)      cg2d_last_res =   3.13658894034844E-08
(PID.TID 0000.0001) // =======================================================
(PID.TID 0000.0001) // Begin MONITOR dynamic field statistics
(PID.TID 0000.0001) // =======================================================
(PID.TID 0000.0001) %MON time_tsnumber                =                 72020
(PID.TID 0000.0001) %MON time_secondsf                =   6.4818000000000E+07
(PID.TID 0000.0001) %MON dynstat_eta_max              =   4.1202257005207E+00
(PID.TID 0000.0001) %MON dynstat_eta_min              =  -3.6331343487310E+00
(PID.TID 0000.0001) %MON dynstat_eta_mean             =   1.7216522357285E-02
(PID.TID 0000.0001) %MON dynstat_eta_sd               =   6.1866213357550E-01
(PID.TID 0000.0001) %MON dynstat_eta_del2             =   3.7726488155756E-03
(PID.TID 0000.0001) %MON dynstat_uvel_max             =   1.4683305510053E+00
(PID.TID 0000.0001) %MON dynstat_uvel_min             =  -8.0377519773997E-01
(PID.TID 0000.0001) %MON dynstat_uvel_mean            =   4.2988050570534E-07
(PID.TID 0000.0001) %MON dynstat_uvel_sd              =   1.3445831731561E-02
(PID.TID 0000.0001) %MON dynstat_uvel_del2            =   1.0813715567466E-04
(PID.TID 0000.0001) %MON dynstat_vvel_max             =   6.2597522844492E-01
(PID.TID 0000.0001) %MON dynstat_vvel_min             =  -8.3707986407517E-01
(PID.TID 0000.0001) %MON dynstat_vvel_mean            =  -4.3406716768014E-04
(PID.TID 0000.0001) %MON dynstat_vvel_sd              =   1.3679160999432E-02
(PID.TID 0000.0001) %MON dynstat_vvel_del2            =   1.0569712015711E-04
(PID.TID 0000.0001) %MON dynstat_wvel_max             =   1.0908452669983E-04
(PID.TID 0000.0001) %MON dynstat_wvel_min             =  -3.9932325027153E-04
(PID.TID 0000.0001) %MON dynstat_wvel_mean            =  -3.3683534446594E-07
(PID.TID 0000.0001) %MON dynstat_wvel_sd              =   9.1024331155065E-06
(PID.TID 0000.0001) %MON dynstat_wvel_del2            =   8.2192716834228E-08
(PID.TID 0000.0001) %MON dynstat_theta_max            =   3.0925254329869E+01
(PID.TID 0000.0001) %MON dynstat_theta_min            =  -3.0073595914067E+00
(PID.TID 0000.0001) %MON dynstat_theta_mean           =   3.9091311263322E+00
(PID.TID 0000.0001) %MON dynstat_theta_sd             =   4.5712901095973E+00
(PID.TID 0000.0001) %MON dynstat_theta_del2           =   2.6492002558031E-03
(PID.TID 0000.0001) %MON dynstat_salt_max             =   4.1362237629885E+01
(PID.TID 0000.0001) %MON dynstat_salt_min             =   1.8518569358077E+01
(PID.TID 0000.0001) %MON dynstat_salt_mean            =   3.4772082770215E+01
(PID.TID 0000.0001) %MON dynstat_salt_sd              =   5.3123706557610E-01
(PID.TID 0000.0001) %MON dynstat_salt_del2            =   8.7203130062930E-04
(PID.TID 0000.0001) %MON dynstat_sst_max              =   3.0925254329869E+01
(PID.TID 0000.0001) %MON dynstat_sst_min              =  -1.8993672765517E+00
(PID.TID 0000.0001) %MON dynstat_sst_mean             =   1.8110189201013E+01
(PID.TID 0000.0001) %MON dynstat_sst_sd               =   9.8052034019406E+00
(PID.TID 0000.0001) %MON dynstat_sst_del2             =   1.5193957276760E-02
(PID.TID 0000.0001) %MON dynstat_sss_max              =   4.1362237629885E+01
(PID.TID 0000.0001) %MON dynstat_sss_min              =   1.8751386660174E+01
(PID.TID 0000.0001) %MON dynstat_sss_mean             =   3.4633710282461E+01
(PID.TID 0000.0001) %MON dynstat_sss_sd               =   1.4644518958014E+00
(PID.TID 0000.0001) %MON dynstat_sss_del2             =   9.0813789476797E-03
(PID.TID 0000.0001) %MON forcing_qnet_max             =   3.2678465003189E+03
(PID.TID 0000.0001) %MON forcing_qnet_min             =  -2.0862399902344E+03
(PID.TID 0000.0001) %MON forcing_qnet_mean            =  -6.7993594622450E+01
(PID.TID 0000.0001) %MON forcing_qnet_sd              =   3.1920699316619E+02
(PID.TID 0000.0001) %MON forcing_qnet_del2            =   8.5861144419939E+00
(PID.TID 0000.0001) %MON forcing_qsw_max              =   0.0000000000000E+00
(PID.TID 0000.0001) %MON forcing_qsw_min              =  -4.3333180502280E+02
(PID.TID 0000.0001) %MON forcing_qsw_mean             =  -7.7618325328053E+01
(PID.TID 0000.0001) %MON forcing_qsw_sd               =   1.1279969851057E+02
(PID.TID 0000.0001) %MON forcing_qsw_del2             =   1.0655171714972E+00
(PID.TID 0000.0001) %MON forcing_empmr_max            =   1.1980951763690E-02
(PID.TID 0000.0001) %MON forcing_empmr_min            =  -1.5864957869053E-01
(PID.TID 0000.0001) %MON forcing_empmr_mean           =  -4.3889857246146E-04
(PID.TID 0000.0001) %MON forcing_empmr_sd             =   6.6129942430522E-03
(PID.TID 0000.0001) %MON forcing_empmr_del2           =   2.6940351431798E-04
(PID.TID 0000.0001) %MON forcing_fu_max               =   6.0543530967053E-01
(PID.TID 0000.0001) %MON forcing_fu_min               =  -4.1406381105181E-01
(PID.TID 0000.0001) %MON forcing_fu_mean              =  -3.2350049818951E-03
(PID.TID 0000.0001) %MON forcing_fu_sd                =   7.1668659753259E-02
(PID.TID 0000.0001) %MON forcing_fu_del2              =   7.1943768567234E-04
(PID.TID 0000.0001) %MON forcing_fv_max               =   3.0456169211169E-01
(PID.TID 0000.0001) %MON forcing_fv_min               =  -3.5626733558396E-01
(PID.TID 0000.0001) %MON forcing_fv_mean              =  -1.1783580109283E-02
(PID.TID 0000.0001) %MON forcing_fv_sd                =   7.0142376339806E-02
(PID.TID 0000.0001) %MON forcing_fv_del2              =   6.1786780086802E-04
(PID.TID 0000.0001) %MON trAdv_CFL_u_max              =   4.8920976013173E-03
(PID.TID 0000.0001) %MON trAdv_CFL_v_max              =   4.1467584299339E-03
(PID.TID 0000.0001) %MON trAdv_CFL_w_max              =   4.3498493335167E-03
(PID.TID 0000.0001) %MON advcfl_uvel_max              =   4.8965397276646E-03
(PID.TID 0000.0001) %MON advcfl_vvel_max              =   2.8603062927241E-03
(PID.TID 0000.0001) %MON advcfl_wvel_max              =   5.5182462153227E-03
(PID.TID 0000.0001) %MON advcfl_W_hf_max              =   4.3498493335167E-03
(PID.TID 0000.0001) %MON pe_b_mean                    =   5.1027672423787E-04
(PID.TID 0000.0001) %MON ke_max                       =   6.7938352933657E-01
(PID.TID 0000.0001) %MON ke_mean                      =   1.6995524758394E-04
(PID.TID 0000.0001) %MON ke_vol                       =   1.3398085713492E+18
(PID.TID 0000.0001) %MON vort_r_min                   =  -8.4534614990153E-06
(PID.TID 0000.0001) %MON vort_r_max                   =   2.9023901597113E-06
(PID.TID 0000.0001) %MON vort_a_mean                  =  -2.0549865324846E-05
(PID.TID 0000.0001) %MON vort_a_sd                    =   7.5259514660275E-05
(PID.TID 0000.0001) %MON vort_p_mean                  =  -2.4783357123411E-05
(PID.TID 0000.0001) %MON vort_p_sd                    =   1.2811917304421E-04
(PID.TID 0000.0001) %MON surfExpan_theta_mean         =  -7.3908081065842E-06
(PID.TID 0000.0001) %MON surfExpan_salt_mean          =   1.5099428690989E-06
(PID.TID 0000.0001) // =======================================================
(PID.TID 0000.0001) // End MONITOR dynamic field statistics
(PID.TID 0000.0001) // =======================================================
 cg2d: Sum(rhs),rhsMax =  -1.68967800636634E+01  8.96047365435529E+01
(PID.TID 0000.0001)      cg2d_init_res =   1.87260897790268E-01
(PID.TID 0000.0001)      cg2d_iters(min,last) =      -1      10
(PID.TID 0000.0001)      cg2d_last_res =   3.43996860463334E-08
(PID.TID 0000.0001) // =======================================================
(PID.TID 0000.0001) // Begin MONITOR dynamic field statistics
(PID.TID 0000.0001) // =======================================================
(PID.TID 0000.0001) %MON time_tsnumber                =                 72021
(PID.TID 0000.0001) %MON time_secondsf                =   6.4818900000000E+07
(PID.TID 0000.0001) %MON dynstat_eta_max              =   4.0928724179534E+00
(PID.TID 0000.0001) %MON dynstat_eta_min              =  -3.9368938983404E+00
(PID.TID 0000.0001) %MON dynstat_eta_mean             =   1.7592845616387E-02
(PID.TID 0000.0001) %MON dynstat_eta_sd               =   6.1970896043848E-01
(PID.TID 0000.0001) %MON dynstat_eta_del2             =   3.8300218953310E-03
(PID.TID 0000.0001) %MON dynstat_uvel_max             =   1.3216981458568E+00
(PID.TID 0000.0001) %MON dynstat_uvel_min             =  -7.5677310149782E-01
(PID.TID 0000.0001) %MON dynstat_uvel_mean            =   1.1711051981608E-05
(PID.TID 0000.0001) %MON dynstat_uvel_sd              =   1.3318836682585E-02
(PID.TID 0000.0001) %MON dynstat_uvel_del2            =   1.0334086778745E-04
(PID.TID 0000.0001) %MON dynstat_vvel_max             =   4.9904878940531E-01
(PID.TID 0000.0001) %MON dynstat_vvel_min             =  -8.9258337769200E-01
(PID.TID 0000.0001) %MON dynstat_vvel_mean            =  -4.3455805567272E-04
(PID.TID 0000.0001) %MON dynstat_vvel_sd              =   1.3680621072240E-02
(PID.TID 0000.0001) %MON dynstat_vvel_del2            =   1.0282748125044E-04
(PID.TID 0000.0001) %MON dynstat_wvel_max             =   1.0941602064306E-04
(PID.TID 0000.0001) %MON dynstat_wvel_min             =  -3.6921590080820E-04
(PID.TID 0000.0001) %MON dynstat_wvel_mean            =  -3.2069627958617E-07
(PID.TID 0000.0001) %MON dynstat_wvel_sd              =   9.1752062379300E-06
(PID.TID 0000.0001) %MON dynstat_wvel_del2            =   8.2204971274182E-08
(PID.TID 0000.0001) %MON dynstat_theta_max            =   3.0925710801489E+01
(PID.TID 0000.0001) %MON dynstat_theta_min            =  -3.0069736433751E+00
(PID.TID 0000.0001) %MON dynstat_theta_mean           =   3.9091369321396E+00
(PID.TID 0000.0001) %MON dynstat_theta_sd             =   4.5713122102947E+00
(PID.TID 0000.0001) %MON dynstat_theta_del2           =   2.6490558996950E-03
(PID.TID 0000.0001) %MON dynstat_salt_max             =   4.1361586936296E+01
(PID.TID 0000.0001) %MON dynstat_salt_min             =   1.8518579215503E+01
(PID.TID 0000.0001) %MON dynstat_salt_mean            =   3.4772077931536E+01
(PID.TID 0000.0001) %MON dynstat_salt_sd              =   5.3125685375140E-01
(PID.TID 0000.0001) %MON dynstat_salt_del2            =   8.7745608419653E-04
(PID.TID 0000.0001) %MON dynstat_sst_max              =   3.0925710801489E+01
(PID.TID 0000.0001) %MON dynstat_sst_min              =  -1.8993345780580E+00
(PID.TID 0000.0001) %MON dynstat_sst_mean             =   1.8110457503437E+01
(PID.TID 0000.0001) %MON dynstat_sst_sd               =   9.8054339246460E+00
(PID.TID 0000.0001) %MON dynstat_sst_del2             =   1.5190719873805E-02
(PID.TID 0000.0001) %MON dynstat_sss_max              =   4.1361586936296E+01
(PID.TID 0000.0001) %MON dynstat_sss_min              =   1.8751387284489E+01
(PID.TID 0000.0001) %MON dynstat_sss_mean             =   3.4633359519347E+01
(PID.TID 0000.0001) %MON dynstat_sss_sd               =   1.4649493491081E+00
(PID.TID 0000.0001) %MON dynstat_sss_del2             =   9.1634800420278E-03
(PID.TID 0000.0001) %MON forcing_qnet_max             =   3.2228403019468E+03
(PID.TID 0000.0001) %MON forcing_qnet_min             =  -3.1687138671875E+03
(PID.TID 0000.0001) %MON forcing_qnet_mean            =  -6.0642764961977E+01
(PID.TID 0000.0001) %MON forcing_qnet_sd              =   3.0935603780688E+02
(PID.TID 0000.0001) %MON forcing_qnet_del2            =   8.2598806436001E+00
(PID.TID 0000.0001) %MON forcing_qsw_max              =   0.0000000000000E+00
(PID.TID 0000.0001) %MON forcing_qsw_min              =  -4.4103557073950E+02
(PID.TID 0000.0001) %MON forcing_qsw_mean             =  -7.5007001892530E+01
(PID.TID 0000.0001) %MON forcing_qsw_sd               =   1.0975130076520E+02
(PID.TID 0000.0001) %MON forcing_qsw_del2             =   1.0813909376860E+00
(PID.TID 0000.0001) %MON forcing_empmr_max            =   1.1519107967615E-02
(PID.TID 0000.0001) %MON forcing_empmr_min            =  -1.5435953438282E-01
(PID.TID 0000.0001) %MON forcing_empmr_mean           =  -4.3277174796593E-04
(PID.TID 0000.0001) %MON forcing_empmr_sd             =   6.5089835982816E-03
(PID.TID 0000.0001) %MON forcing_empmr_del2           =   2.6471481595849E-04
(PID.TID 0000.0001) %MON forcing_fu_max               =   5.8932881738765E-01
(PID.TID 0000.0001) %MON forcing_fu_min               =  -4.1114606852579E-01
(PID.TID 0000.0001) %MON forcing_fu_mean              =  -3.1879340494694E-03
(PID.TID 0000.0001) %MON forcing_fu_sd                =   7.1128050819425E-02
(PID.TID 0000.0001) %MON forcing_fu_del2              =   7.1030453308650E-04
(PID.TID 0000.0001) %MON forcing_fv_max               =   3.0860856481421E-01
(PID.TID 0000.0001) %MON forcing_fv_min               =  -3.5257453807093E-01
(PID.TID 0000.0001) %MON forcing_fv_mean              =  -1.1778859901894E-02
(PID.TID 0000.0001) %MON forcing_fv_sd                =   6.9637862081441E-02
(PID.TID 0000.0001) %MON forcing_fv_del2              =   6.1303938378054E-04
(PID.TID 0000.0001) %MON trAdv_CFL_u_max              =   4.4133942988070E-03
(PID.TID 0000.0001) %MON trAdv_CFL_v_max              =   3.2166603628912E-03
(PID.TID 0000.0001) %MON trAdv_CFL_w_max              =   4.0479243709011E-03
(PID.TID 0000.0001) %MON advcfl_uvel_max              =   4.4075548756630E-03
(PID.TID 0000.0001) %MON advcfl_vvel_max              =   3.0499620903127E-03
(PID.TID 0000.0001) %MON advcfl_wvel_max              =   5.3690272828807E-03
(PID.TID 0000.0001) %MON advcfl_W_hf_max              =   4.0479243709011E-03
(PID.TID 0000.0001) %MON pe_b_mean                    =   5.1202110549487E-04
(PID.TID 0000.0001) %MON ke_max                       =   6.2182439979582E-01
(PID.TID 0000.0001) %MON ke_mean                      =   1.6841258370210E-04
(PID.TID 0000.0001) %MON ke_vol                       =   1.3398087102269E+18
(PID.TID 0000.0001) %MON vort_r_min                   =  -8.1243263136383E-06
(PID.TID 0000.0001) %MON vort_r_max                   =   2.9299419316401E-06
(PID.TID 0000.0001) %MON vort_a_mean                  =  -2.0549865324846E-05
(PID.TID 0000.0001) %MON vort_a_sd                    =   7.5259514084593E-05
(PID.TID 0000.0001) %MON vort_p_mean                  =  -2.4783354275808E-05
(PID.TID 0000.0001) %MON vort_p_sd                    =   1.2811917129162E-04
(PID.TID 0000.0001) %MON surfExpan_theta_mean         =  -7.3448246194792E-06
(PID.TID 0000.0001) %MON surfExpan_salt_mean          =   1.4773182601555E-06
(PID.TID 0000.0001) // =======================================================
(PID.TID 0000.0001) // End MONITOR dynamic field statistics
(PID.TID 0000.0001) // =======================================================
 cg2d: Sum(rhs),rhsMax =  -1.75521698353897E+01  8.80794246579715E+01
(PID.TID 0000.0001)      cg2d_init_res =   1.85028236128875E-01
(PID.TID 0000.0001)      cg2d_iters(min,last) =      -1       9
(PID.TID 0000.0001)      cg2d_last_res =   9.03894198742602E-08
(PID.TID 0000.0001) // =======================================================
(PID.TID 0000.0001) // Begin MONITOR dynamic field statistics
(PID.TID 0000.0001) // =======================================================
(PID.TID 0000.0001) %MON time_tsnumber                =                 72022
(PID.TID 0000.0001) %MON time_secondsf                =   6.4819800000000E+07
(PID.TID 0000.0001) %MON dynstat_eta_max              =   4.0229947159576E+00
(PID.TID 0000.0001) %MON dynstat_eta_min              =  -4.1627564722554E+00
(PID.TID 0000.0001) %MON dynstat_eta_mean             =   1.7964140987091E-02
(PID.TID 0000.0001) %MON dynstat_eta_sd               =   6.2059352975148E-01
(PID.TID 0000.0001) %MON dynstat_eta_del2             =   3.8495638331174E-03
(PID.TID 0000.0001) %MON dynstat_uvel_max             =   1.1617563690518E+00
(PID.TID 0000.0001) %MON dynstat_uvel_min             =  -7.0673064896540E-01
(PID.TID 0000.0001) %MON dynstat_uvel_mean            =   1.8874468676025E-05
(PID.TID 0000.0001) %MON dynstat_uvel_sd              =   1.3200835998377E-02
(PID.TID 0000.0001) %MON dynstat_uvel_del2            =   9.8957850410800E-05
(PID.TID 0000.0001) %MON dynstat_vvel_max             =   3.7164412400325E-01
(PID.TID 0000.0001) %MON dynstat_vvel_min             =  -9.3291150630968E-01
(PID.TID 0000.0001) %MON dynstat_vvel_mean            =  -4.3596124000564E-04
(PID.TID 0000.0001) %MON dynstat_vvel_sd              =   1.3700024276668E-02
(PID.TID 0000.0001) %MON dynstat_vvel_del2            =   1.0190326923410E-04
(PID.TID 0000.0001) %MON dynstat_wvel_max             =   1.0972948026905E-04
(PID.TID 0000.0001) %MON dynstat_wvel_min             =  -4.0920762387005E-04
(PID.TID 0000.0001) %MON dynstat_wvel_mean            =  -3.0380888652935E-07
(PID.TID 0000.0001) %MON dynstat_wvel_sd              =   9.1785826163929E-06
(PID.TID 0000.0001) %MON dynstat_wvel_del2            =   8.1808684122732E-08
(PID.TID 0000.0001) %MON dynstat_theta_max            =   3.0926201822402E+01
(PID.TID 0000.0001) %MON dynstat_theta_min            =  -3.0066543426187E+00
(PID.TID 0000.0001) %MON dynstat_theta_mean           =   3.9091425059509E+00
(PID.TID 0000.0001) %MON dynstat_theta_sd             =   4.5713335131486E+00
(PID.TID 0000.0001) %MON dynstat_theta_del2           =   2.6489049850808E-03
(PID.TID 0000.0001) %MON dynstat_salt_max             =   4.1360984199844E+01
(PID.TID 0000.0001) %MON dynstat_salt_min             =   1.8518589082609E+01
(PID.TID 0000.0001) %MON dynstat_salt_mean            =   3.4772073239307E+01
(PID.TID 0000.0001) %MON dynstat_salt_sd              =   5.3127670312330E-01
(PID.TID 0000.0001) %MON dynstat_salt_del2            =   8.8291852816575E-04
(PID.TID 0000.0001) %MON dynstat_sst_max              =   3.0926201822402E+01
(PID.TID 0000.0001) %MON dynstat_sst_min              =  -1.8992975710164E+00
(PID.TID 0000.0001) %MON dynstat_sst_mean             =   1.8110711548615E+01
(PID.TID 0000.0001) %MON dynstat_sst_sd               =   9.8056564452270E+00
(PID.TID 0000.0001) %MON dynstat_sst_del2             =   1.5187297469151E-02
(PID.TID 0000.0001) %MON dynstat_sss_max              =   4.1360984199844E+01
(PID.TID 0000.0001) %MON dynstat_sss_min              =   1.8751387878959E+01
(PID.TID 0000.0001) %MON dynstat_sss_mean             =   3.4633018737888E+01
(PID.TID 0000.0001) %MON dynstat_sss_sd               =   1.4654480153546E+00
(PID.TID 0000.0001) %MON dynstat_sss_del2             =   9.2459349598162E-03
(PID.TID 0000.0001) %MON forcing_qnet_max             =   3.1771172089320E+03
(PID.TID 0000.0001) %MON forcing_qnet_min             =  -1.1067000976562E+04
(PID.TID 0000.0001) %MON forcing_qnet_mean            =  -5.7090985491443E+01
(PID.TID 0000.0001) %MON forcing_qnet_sd              =   3.4620533937984E+02
(PID.TID 0000.0001) %MON forcing_qnet_del2            =   1.0332330083583E+01
(PID.TID 0000.0001) %MON forcing_qsw_max              =   0.0000000000000E+00
(PID.TID 0000.0001) %MON forcing_qsw_min              =  -4.4306924837472E+02
(PID.TID 0000.0001) %MON forcing_qsw_mean             =  -7.4024461780026E+01
(PID.TID 0000.0001) %MON forcing_qsw_sd               =   1.0835722826611E+02
(PID.TID 0000.0001) %MON forcing_qsw_del2             =   1.0888752608598E+00
(PID.TID 0000.0001) %MON forcing_empmr_max            =   1.0977377183735E-02
(PID.TID 0000.0001) %MON forcing_empmr_min            =  -1.5092356503010E-01
(PID.TID 0000.0001) %MON forcing_empmr_mean           =  -4.2698967631051E-04
(PID.TID 0000.0001) %MON forcing_empmr_sd             =   6.4081727413600E-03
(PID.TID 0000.0001) %MON forcing_empmr_del2           =   2.6008587108923E-04
(PID.TID 0000.0001) %MON forcing_fu_max               =   5.7628611682488E-01
(PID.TID 0000.0001) %MON forcing_fu_min               =  -4.0757221930069E-01
(PID.TID 0000.0001) %MON forcing_fu_mean              =  -3.1446980571207E-03
(PID.TID 0000.0001) %MON forcing_fu_sd                =   7.0582322415473E-02
(PID.TID 0000.0001) %MON forcing_fu_del2              =   7.0306513149554E-04
(PID.TID 0000.0001) %MON forcing_fv_max               =   3.1183357206570E-01
(PID.TID 0000.0001) %MON forcing_fv_min               =  -3.4396661048052E-01
(PID.TID 0000.0001) %MON forcing_fv_mean              =  -1.1780759359031E-02
(PID.TID 0000.0001) %MON forcing_fv_sd                =   6.9126319728092E-02
(PID.TID 0000.0001) %MON forcing_fv_del2              =   6.0835725522088E-04
(PID.TID 0000.0001) %MON trAdv_CFL_u_max              =   3.8873297945569E-03
(PID.TID 0000.0001) %MON trAdv_CFL_v_max              =   3.0409340700974E-03
(PID.TID 0000.0001) %MON trAdv_CFL_w_max              =   3.7441087024504E-03
(PID.TID 0000.0001) %MON advcfl_uvel_max              =   3.8741863751557E-03
(PID.TID 0000.0001) %MON advcfl_vvel_max              =   3.1877635176429E-03
(PID.TID 0000.0001) %MON advcfl_wvel_max              =   5.2495153053947E-03
(PID.TID 0000.0001) %MON advcfl_W_hf_max              =   3.7441087024504E-03
(PID.TID 0000.0001) %MON pe_b_mean                    =   5.1350021838761E-04
(PID.TID 0000.0001) %MON ke_max                       =   5.6500999091044E-01
(PID.TID 0000.0001) %MON ke_mean                      =   1.6722216433564E-04
(PID.TID 0000.0001) %MON ke_vol                       =   1.3398088471659E+18
(PID.TID 0000.0001) %MON vort_r_min                   =  -7.6886880921992E-06
(PID.TID 0000.0001) %MON vort_r_max                   =   2.9377199230128E-06
(PID.TID 0000.0001) %MON vort_a_mean                  =  -2.0549865324846E-05
(PID.TID 0000.0001) %MON vort_a_sd                    =   7.5259513198720E-05
(PID.TID 0000.0001) %MON vort_p_mean                  =  -2.4783351523579E-05
(PID.TID 0000.0001) %MON vort_p_sd                    =   1.2811916518482E-04
(PID.TID 0000.0001) %MON surfExpan_theta_mean         =  -7.3083007730836E-06
(PID.TID 0000.0001) %MON surfExpan_salt_mean          =   1.4447529503514E-06
(PID.TID 0000.0001) // =======================================================
(PID.TID 0000.0001) // End MONITOR dynamic field statistics
(PID.TID 0000.0001) // =======================================================
 cg2d: Sum(rhs),rhsMax =  -1.84164640698736E+01  8.56567512919209E+01
(PID.TID 0000.0001)      cg2d_init_res =   1.84837964179525E-01
(PID.TID 0000.0001)      cg2d_iters(min,last) =      -1      10
(PID.TID 0000.0001)      cg2d_last_res =   3.82172435585565E-08
(PID.TID 0000.0001) // =======================================================
(PID.TID 0000.0001) // Begin MONITOR dynamic field statistics
(PID.TID 0000.0001) // =======================================================
(PID.TID 0000.0001) %MON time_tsnumber                =                 72023
(PID.TID 0000.0001) %MON time_secondsf                =   6.4820700000000E+07
(PID.TID 0000.0001) %MON dynstat_eta_max              =   3.9124157909117E+00
(PID.TID 0000.0001) %MON dynstat_eta_min              =  -4.3097316183293E+00
(PID.TID 0000.0001) %MON dynstat_eta_mean             =   1.8330276757250E-02
(PID.TID 0000.0001) %MON dynstat_eta_sd               =   6.2131331598144E-01
(PID.TID 0000.0001) %MON dynstat_eta_del2             =   3.8342247424270E-03
(PID.TID 0000.0001) %MON dynstat_uvel_max             =   9.9101311944745E-01
(PID.TID 0000.0001) %MON dynstat_uvel_min             =  -6.5450360831413E-01
(PID.TID 0000.0001) %MON dynstat_uvel_mean            =   2.1359467270577E-05
(PID.TID 0000.0001) %MON dynstat_uvel_sd              =   1.3093358784144E-02
(PID.TID 0000.0001) %MON dynstat_uvel_del2            =   9.5066071998763E-05
(PID.TID 0000.0001) %MON dynstat_vvel_max             =   3.1406934844085E-01
(PID.TID 0000.0001) %MON dynstat_vvel_min             =  -9.5803313203338E-01
(PID.TID 0000.0001) %MON dynstat_vvel_mean            =  -4.3838559070420E-04
(PID.TID 0000.0001) %MON dynstat_vvel_sd              =   1.3733288121890E-02
(PID.TID 0000.0001) %MON dynstat_vvel_del2            =   1.0265806632118E-04
(PID.TID 0000.0001) %MON dynstat_wvel_max             =   1.1002422814457E-04
(PID.TID 0000.0001) %MON dynstat_wvel_min             =  -4.3433060250723E-04
(PID.TID 0000.0001) %MON dynstat_wvel_mean            =  -2.8592998603563E-07
(PID.TID 0000.0001) %MON dynstat_wvel_sd              =   9.1155531604512E-06
(PID.TID 0000.0001) %MON dynstat_wvel_del2            =   8.1037914007370E-08
(PID.TID 0000.0001) %MON dynstat_theta_max            =   3.0926724016056E+01
(PID.TID 0000.0001) %MON dynstat_theta_min            =  -3.0064053230475E+00
(PID.TID 0000.0001) %MON dynstat_theta_mean           =   3.9091476620966E+00
(PID.TID 0000.0001) %MON dynstat_theta_sd             =   4.5713532659124E+00
(PID.TID 0000.0001) %MON dynstat_theta_del2           =   2.6487546646569E-03
(PID.TID 0000.0001) %MON dynstat_salt_max             =   4.1360428568815E+01
(PID.TID 0000.0001) %MON dynstat_salt_min             =   1.8518598967538E+01
(PID.TID 0000.0001) %MON dynstat_salt_mean            =   3.4772068610057E+01
(PID.TID 0000.0001) %MON dynstat_salt_sd              =   5.3129659078142E-01
(PID.TID 0000.0001) %MON dynstat_salt_del2            =   8.8840782846754E-04
(PID.TID 0000.0001) %MON dynstat_sst_max              =   3.0926724016056E+01
(PID.TID 0000.0001) %MON dynstat_sst_min              =  -1.8992542511650E+00
(PID.TID 0000.0001) %MON dynstat_sst_mean             =   1.8110940973982E+01
(PID.TID 0000.0001) %MON dynstat_sst_sd               =   9.8058683538052E+00
(PID.TID 0000.0001) %MON dynstat_sst_del2             =   1.5183963663745E-02
(PID.TID 0000.0001) %MON dynstat_sss_max              =   4.1360428568815E+01
(PID.TID 0000.0001) %MON dynstat_sss_min              =   1.8751388529587E+01
(PID.TID 0000.0001) %MON dynstat_sss_mean             =   3.4632683294610E+01
(PID.TID 0000.0001) %MON dynstat_sss_sd               =   1.4659493565687E+00
(PID.TID 0000.0001) %MON dynstat_sss_del2             =   9.3285846294593E-03
(PID.TID 0000.0001) %MON forcing_qnet_max             =   4.9300302348161E+03
(PID.TID 0000.0001) %MON forcing_qnet_min             =  -3.6413247070312E+03
(PID.TID 0000.0001) %MON forcing_qnet_mean            =  -5.0454438922610E+01
(PID.TID 0000.0001) %MON forcing_qnet_sd              =   3.1050349282169E+02
(PID.TID 0000.0001) %MON forcing_qnet_del2            =   8.9421875124963E+00
(PID.TID 0000.0001) %MON forcing_qsw_max              =   0.0000000000000E+00
(PID.TID 0000.0001) %MON forcing_qsw_min              =  -4.4370128453396E+02
(PID.TID 0000.0001) %MON forcing_qsw_mean             =  -7.2879377011611E+01
(PID.TID 0000.0001) %MON forcing_qsw_sd               =   1.0684189811913E+02
(PID.TID 0000.0001) %MON forcing_qsw_del2             =   1.0935076752857E+00
(PID.TID 0000.0001) %MON forcing_empmr_max            =   1.0299526154995E-02
(PID.TID 0000.0001) %MON forcing_empmr_min            =  -1.4705400168896E-01
(PID.TID 0000.0001) %MON forcing_empmr_mean           =  -4.2105613568305E-04
(PID.TID 0000.0001) %MON forcing_empmr_sd             =   6.3069695797957E-03
(PID.TID 0000.0001) %MON forcing_empmr_del2           =   2.5548856801079E-04
(PID.TID 0000.0001) %MON forcing_fu_max               =   5.6319043782662E-01
(PID.TID 0000.0001) %MON forcing_fu_min               =  -4.0355803678005E-01
(PID.TID 0000.0001) %MON forcing_fu_mean              =  -3.1181544464548E-03
(PID.TID 0000.0001) %MON forcing_fu_sd                =   7.0018896336813E-02
(PID.TID 0000.0001) %MON forcing_fu_del2              =   6.9545079327254E-04
(PID.TID 0000.0001) %MON forcing_fv_max               =   3.1461819976711E-01
(PID.TID 0000.0001) %MON forcing_fv_min               =  -3.3538124866792E-01
(PID.TID 0000.0001) %MON forcing_fv_mean              =  -1.1811222507490E-02
(PID.TID 0000.0001) %MON forcing_fv_sd                =   6.8618783517154E-02
(PID.TID 0000.0001) %MON forcing_fv_del2              =   6.0383828269313E-04
(PID.TID 0000.0001) %MON trAdv_CFL_u_max              =   3.3220197656444E-03
(PID.TID 0000.0001) %MON trAdv_CFL_v_max              =   3.1271826028037E-03
(PID.TID 0000.0001) %MON trAdv_CFL_w_max              =   3.4395741247427E-03
(PID.TID 0000.0001) %MON advcfl_uvel_max              =   3.3047974835700E-03
(PID.TID 0000.0001) %MON advcfl_vvel_max              =   3.2736042447047E-03
(PID.TID 0000.0001) %MON advcfl_wvel_max              =   5.1149217978768E-03
(PID.TID 0000.0001) %MON advcfl_W_hf_max              =   3.4395741247427E-03
(PID.TID 0000.0001) %MON pe_b_mean                    =   5.1470871360139E-04
(PID.TID 0000.0001) %MON ke_max                       =   5.1085638098052E-01
(PID.TID 0000.0001) %MON ke_mean                      =   1.6634835632396E-04
(PID.TID 0000.0001) %MON ke_vol                       =   1.3398089822754E+18
(PID.TID 0000.0001) %MON vort_r_min                   =  -7.1556688648618E-06
(PID.TID 0000.0001) %MON vort_r_max                   =   2.9258577273967E-06
(PID.TID 0000.0001) %MON vort_a_mean                  =  -2.0549865324846E-05
(PID.TID 0000.0001) %MON vort_a_sd                    =   7.5259511939731E-05
(PID.TID 0000.0001) %MON vort_p_mean                  =  -2.4783348857860E-05
(PID.TID 0000.0001) %MON vort_p_sd                    =   1.2811915482653E-04
(PID.TID 0000.0001) %MON surfExpan_theta_mean         =  -7.2662256528675E-06
(PID.TID 0000.0001) %MON surfExpan_salt_mean          =   1.4099301671194E-06
(PID.TID 0000.0001) // =======================================================
(PID.TID 0000.0001) // End MONITOR dynamic field statistics
(PID.TID 0000.0001) // =======================================================
 Computing Diagnostic #     81  oceTAUX      Counter:       1   Parms: UU      U1      
           Vector  Mate for  oceTAUX      Diagnostic #     82  oceTAUY  exists 
 Computing Diagnostic #     82  oceTAUY      Counter:       1   Parms: VV      U1      
           Vector  Mate for  oceTAUY      Diagnostic #     81  oceTAUX  exists 
 Computing Diagnostic #     85  oceFWflx     Counter:       1   Parms: SM      U1      
 Computing Diagnostic #     86  oceSflux     Counter:       1   Parms: SM      U1      
 Computing Diagnostic #     87  oceQnet      Counter:       1   Parms: SM      U1      
 Computing Diagnostic #     88  oceQsw       Counter:       1   Parms: SM      U1      
 Computing Diagnostic #     27  SALT         Counter:       1   Parms: SMR     MR      
 Computing Diagnostic #     26  THETA        Counter:       1   Parms: SMR     MR      
 Computing Diagnostic #     45  UVELMASS     Counter:       1   Parms: UUr     MR      
           Vector  Mate for  UVELMASS     Diagnostic #     46  VVELMASS exists 
 Computing Diagnostic #     46  VVELMASS     Counter:       1   Parms: VVr     MR      
           Vector  Mate for  VVELMASS     Diagnostic #     45  UVELMASS exists 
 cg2d: Sum(rhs),rhsMax =  -1.95230068908928E+01  8.23928062874739E+01
(PID.TID 0000.0001)      cg2d_init_res =   1.86350939990634E-01
(PID.TID 0000.0001)      cg2d_iters(min,last) =      -1      10
(PID.TID 0000.0001)      cg2d_last_res =   5.72865498345108E-08
(PID.TID 0000.0001) // =======================================================
(PID.TID 0000.0001) // Begin MONITOR dynamic field statistics
(PID.TID 0000.0001) // =======================================================
(PID.TID 0000.0001) %MON time_tsnumber                =                 72024
(PID.TID 0000.0001) %MON time_secondsf                =   6.4821600000000E+07
(PID.TID 0000.0001) %MON dynstat_eta_max              =   3.7636600155003E+00
(PID.TID 0000.0001) %MON dynstat_eta_min              =  -4.3778812735495E+00
(PID.TID 0000.0001) %MON dynstat_eta_mean             =   1.8691199628188E-02
(PID.TID 0000.0001) %MON dynstat_eta_sd               =   6.2186118469393E-01
(PID.TID 0000.0001) %MON dynstat_eta_del2             =   3.7862665357345E-03
(PID.TID 0000.0001) %MON dynstat_uvel_max             =   8.1240305290022E-01
(PID.TID 0000.0001) %MON dynstat_uvel_min             =  -6.0092203635093E-01
(PID.TID 0000.0001) %MON dynstat_uvel_mean            =   1.8771522728702E-05
(PID.TID 0000.0001) %MON dynstat_uvel_sd              =   1.2998628711608E-02
(PID.TID 0000.0001) %MON dynstat_uvel_del2            =   9.1735992524707E-05
(PID.TID 0000.0001) %MON dynstat_vvel_max             =   3.2263602864516E-01
(PID.TID 0000.0001) %MON dynstat_vvel_min             =  -9.6799557721229E-01
(PID.TID 0000.0001) %MON dynstat_vvel_mean            =  -4.4174011853808E-04
(PID.TID 0000.0001) %MON dynstat_vvel_sd              =   1.3776375873912E-02
(PID.TID 0000.0001) %MON dynstat_vvel_del2            =   1.0470306481266E-04
(PID.TID 0000.0001) %MON dynstat_wvel_max             =   1.2420233254575E-04
(PID.TID 0000.0001) %MON dynstat_wvel_min             =  -4.4503183264822E-04
(PID.TID 0000.0001) %MON dynstat_wvel_mean            =  -2.6694480981818E-07
(PID.TID 0000.0001) %MON dynstat_wvel_sd              =   9.0040141324529E-06
(PID.TID 0000.0001) %MON dynstat_wvel_del2            =   8.0009183532640E-08
(PID.TID 0000.0001) %MON dynstat_theta_max            =   3.0927272722426E+01
(PID.TID 0000.0001) %MON dynstat_theta_min            =  -3.0062229358273E+00
(PID.TID 0000.0001) %MON dynstat_theta_mean           =   3.9091526541129E+00
(PID.TID 0000.0001) %MON dynstat_theta_sd             =   4.5713727593260E+00
(PID.TID 0000.0001) %MON dynstat_theta_del2           =   2.6486204925560E-03
(PID.TID 0000.0001) %MON dynstat_salt_max             =   4.1359917651529E+01
(PID.TID 0000.0001) %MON dynstat_salt_min             =   1.8518608878271E+01
(PID.TID 0000.0001) %MON dynstat_salt_mean            =   3.4772064145246E+01
(PID.TID 0000.0001) %MON dynstat_salt_sd              =   5.3131660336236E-01
(PID.TID 0000.0001) %MON dynstat_salt_del2            =   8.9392247730557E-04
(PID.TID 0000.0001) %MON dynstat_sst_max              =   3.0927272722426E+01
(PID.TID 0000.0001) %MON dynstat_sst_min              =  -1.8992049441428E+00
(PID.TID 0000.0001) %MON dynstat_sst_mean             =   1.8111161792040E+01
(PID.TID 0000.0001) %MON dynstat_sst_sd               =   9.8060816415300E+00
(PID.TID 0000.0001) %MON dynstat_sst_del2             =   1.5181081818650E-02
(PID.TID 0000.0001) %MON dynstat_sss_max              =   4.1359917651529E+01
(PID.TID 0000.0001) %MON dynstat_sss_min              =   1.8751389224538E+01
(PID.TID 0000.0001) %MON dynstat_sss_mean             =   3.4632359081125E+01
(PID.TID 0000.0001) %MON dynstat_sss_sd               =   1.4664537456916E+00
(PID.TID 0000.0001) %MON dynstat_sss_del2             =   9.4114065177610E-03
(PID.TID 0000.0001) %MON forcing_qnet_max             =   3.0904259173091E+03
(PID.TID 0000.0001) %MON forcing_qnet_min             =  -2.4453425292969E+03
(PID.TID 0000.0001) %MON forcing_qnet_mean            =  -4.8104535004634E+01
(PID.TID 0000.0001) %MON forcing_qnet_sd              =   2.8534305642802E+02
(PID.TID 0000.0001) %MON forcing_qnet_del2            =   7.3193294767846E+00
(PID.TID 0000.0001) %MON forcing_qsw_max              =   0.0000000000000E+00
(PID.TID 0000.0001) %MON forcing_qsw_min              =  -4.4558549845981E+02
(PID.TID 0000.0001) %MON forcing_qsw_mean             =  -7.1573231521635E+01
(PID.TID 0000.0001) %MON forcing_qsw_sd               =   1.0522792697043E+02
(PID.TID 0000.0001) %MON forcing_qsw_del2             =   1.0952043038914E+00
(PID.TID 0000.0001) %MON forcing_empmr_max            =   9.5788333564997E-03
(PID.TID 0000.0001) %MON forcing_empmr_min            =  -1.4371360838413E-01
(PID.TID 0000.0001) %MON forcing_empmr_mean           =  -4.1506130157872E-04
(PID.TID 0000.0001) %MON forcing_empmr_sd             =   6.2104939283149E-03
(PID.TID 0000.0001) %MON forcing_empmr_del2           =   2.5110019876922E-04
(PID.TID 0000.0001) %MON forcing_fu_max               =   5.4138261078934E-01
(PID.TID 0000.0001) %MON forcing_fu_min               =  -3.9808892419807E-01
(PID.TID 0000.0001) %MON forcing_fu_mean              =  -3.1007693591604E-03
(PID.TID 0000.0001) %MON forcing_fu_sd                =   6.9460810902984E-02
(PID.TID 0000.0001) %MON forcing_fu_del2              =   6.8769587049377E-04
(PID.TID 0000.0001) %MON forcing_fv_max               =   3.1641771030775E-01
(PID.TID 0000.0001) %MON forcing_fv_min               =  -3.2775269472561E-01
(PID.TID 0000.0001) %MON forcing_fv_mean              =  -1.1878418985700E-02
(PID.TID 0000.0001) %MON forcing_fv_sd                =   6.8077014354093E-02
(PID.TID 0000.0001) %MON forcing_fv_del2              =   5.9948173999164E-04
(PID.TID 0000.0001) %MON trAdv_CFL_u_max              =   2.7272976536569E-03
(PID.TID 0000.0001) %MON trAdv_CFL_v_max              =   3.1652699022535E-03
(PID.TID 0000.0001) %MON trAdv_CFL_w_max              =   3.1367443729609E-03
(PID.TID 0000.0001) %MON advcfl_uvel_max              =   2.7091745933355E-03
(PID.TID 0000.0001) %MON advcfl_vvel_max              =   3.3076459722137E-03
(PID.TID 0000.0001) %MON advcfl_wvel_max              =   4.9987342046655E-03
(PID.TID 0000.0001) %MON advcfl_W_hf_max              =   3.1367443729609E-03
(PID.TID 0000.0001) %MON pe_b_mean                    =   5.1563380461541E-04
(PID.TID 0000.0001) %MON ke_max                       =   4.6114162165484E-01
(PID.TID 0000.0001) %MON ke_mean                      =   1.6576420119139E-04
(PID.TID 0000.0001) %MON ke_vol                       =   1.3398091155074E+18
(PID.TID 0000.0001) %MON vort_r_min                   =  -6.5363556221503E-06
(PID.TID 0000.0001) %MON vort_r_max                   =   2.8947536385095E-06
(PID.TID 0000.0001) %MON vort_a_mean                  =  -2.0549865324846E-05
(PID.TID 0000.0001) %MON vort_a_sd                    =   7.5259510309506E-05
(PID.TID 0000.0001) %MON vort_p_mean                  =  -2.4783346274685E-05
(PID.TID 0000.0001) %MON vort_p_sd                    =   1.2811914105753E-04
(PID.TID 0000.0001) %MON surfExpan_theta_mean         =  -7.2223927089938E-06
(PID.TID 0000.0001) %MON surfExpan_salt_mean          =   1.3746524763858E-06
(PID.TID 0000.0001) // =======================================================
(PID.TID 0000.0001) // End MONITOR dynamic field statistics
(PID.TID 0000.0001) // =======================================================
 cg2d: Sum(rhs),rhsMax =  -2.09192472769563E+01  7.83572156101830E+01
(PID.TID 0000.0001)      cg2d_init_res =   1.90481680598705E-01
(PID.TID 0000.0001)      cg2d_iters(min,last) =      -1      10
(PID.TID 0000.0001)      cg2d_last_res =   6.61750970394676E-08
(PID.TID 0000.0001) // =======================================================
(PID.TID 0000.0001) // Begin MONITOR dynamic field statistics
(PID.TID 0000.0001) // =======================================================
(PID.TID 0000.0001) %MON time_tsnumber                =                 72025
(PID.TID 0000.0001) %MON time_secondsf                =   6.4822500000000E+07
(PID.TID 0000.0001) %MON dynstat_eta_max              =   3.5798672849988E+00
(PID.TID 0000.0001) %MON dynstat_eta_min              =  -4.3683753389135E+00
(PID.TID 0000.0001) %MON dynstat_eta_mean             =   1.9046984216666E-02
(PID.TID 0000.0001) %MON dynstat_eta_sd               =   6.2222667473210E-01
(PID.TID 0000.0001) %MON dynstat_eta_del2             =   3.7075822489852E-03
(PID.TID 0000.0001) %MON dynstat_uvel_max             =   6.2919587687171E-01
(PID.TID 0000.0001) %MON dynstat_uvel_min             =  -6.1578275094252E-01
(PID.TID 0000.0001) %MON dynstat_uvel_mean            =   1.0911343862335E-05
(PID.TID 0000.0001) %MON dynstat_uvel_sd              =   1.2919513428999E-02
(PID.TID 0000.0001) %MON dynstat_uvel_del2            =   8.9025555588472E-05
(PID.TID 0000.0001) %MON dynstat_vvel_max             =   3.2973263974529E-01
(PID.TID 0000.0001) %MON dynstat_vvel_min             =  -9.6294805816716E-01
(PID.TID 0000.0001) %MON dynstat_vvel_mean            =  -4.4573831652643E-04
(PID.TID 0000.0001) %MON dynstat_vvel_sd              =   1.3825454201269E-02
(PID.TID 0000.0001) %MON dynstat_vvel_del2            =   1.0761115943743E-04
(PID.TID 0000.0001) %MON dynstat_wvel_max             =   1.3842045560812E-04
(PID.TID 0000.0001) %MON dynstat_wvel_min             =  -4.4360003567337E-04
(PID.TID 0000.0001) %MON dynstat_wvel_mean            =  -2.4652602007599E-07
(PID.TID 0000.0001) %MON dynstat_wvel_sd              =   8.8693967504688E-06
(PID.TID 0000.0001) %MON dynstat_wvel_del2            =   7.8871765472187E-08
(PID.TID 0000.0001) %MON dynstat_theta_max            =   3.0927890044671E+01
(PID.TID 0000.0001) %MON dynstat_theta_min            =  -3.0060978758133E+00
(PID.TID 0000.0001) %MON dynstat_theta_mean           =   3.9091573455778E+00
(PID.TID 0000.0001) %MON dynstat_theta_sd             =   4.5713912707059E+00
(PID.TID 0000.0001) %MON dynstat_theta_del2           =   2.6484896048185E-03
(PID.TID 0000.0001) %MON dynstat_salt_max             =   4.1359448804314E+01
(PID.TID 0000.0001) %MON dynstat_salt_min             =   1.8518618822619E+01
(PID.TID 0000.0001) %MON dynstat_salt_mean            =   3.4772059806531E+01
(PID.TID 0000.0001) %MON dynstat_salt_sd              =   5.3133663631396E-01
(PID.TID 0000.0001) %MON dynstat_salt_del2            =   8.9944837554621E-04
(PID.TID 0000.0001) %MON dynstat_sst_max              =   3.0927890044671E+01
(PID.TID 0000.0001) %MON dynstat_sst_min              =  -1.8991478424587E+00
(PID.TID 0000.0001) %MON dynstat_sst_mean             =   1.8111362916819E+01
(PID.TID 0000.0001) %MON dynstat_sst_sd               =   9.8062935107121E+00
(PID.TID 0000.0001) %MON dynstat_sst_del2             =   1.5178339588835E-02
(PID.TID 0000.0001) %MON dynstat_sss_max              =   4.1359448804314E+01
(PID.TID 0000.0001) %MON dynstat_sss_min              =   1.8751389863579E+01
(PID.TID 0000.0001) %MON dynstat_sss_mean             =   3.4632044149268E+01
(PID.TID 0000.0001) %MON dynstat_sss_sd               =   1.4669592548679E+00
(PID.TID 0000.0001) %MON dynstat_sss_del2             =   9.4941926086883E-03
(PID.TID 0000.0001) %MON forcing_qnet_max             =   3.0464313682826E+03
(PID.TID 0000.0001) %MON forcing_qnet_min             =  -2.4113293457031E+03
(PID.TID 0000.0001) %MON forcing_qnet_mean            =  -4.3432461006591E+01
(PID.TID 0000.0001) %MON forcing_qnet_sd              =   2.7869958813841E+02
(PID.TID 0000.0001) %MON forcing_qnet_del2            =   7.0520268555048E+00
(PID.TID 0000.0001) %MON forcing_qsw_max              =   0.0000000000000E+00
(PID.TID 0000.0001) %MON forcing_qsw_min              =  -4.3805616155074E+02
(PID.TID 0000.0001) %MON forcing_qsw_mean             =  -6.9615693888658E+01
(PID.TID 0000.0001) %MON forcing_qsw_sd               =   1.0269906426431E+02
(PID.TID 0000.0001) %MON forcing_qsw_del2             =   1.1048614916821E+00
(PID.TID 0000.0001) %MON forcing_empmr_max            =   8.7560266256332E-03
(PID.TID 0000.0001) %MON forcing_empmr_min            =  -1.3965673744678E-01
(PID.TID 0000.0001) %MON forcing_empmr_mean           =  -4.0915227674944E-04
(PID.TID 0000.0001) %MON forcing_empmr_sd             =   6.1139259215529E-03
(PID.TID 0000.0001) %MON forcing_empmr_del2           =   2.4679370606093E-04
(PID.TID 0000.0001) %MON forcing_fu_max               =   5.2200304395021E-01
(PID.TID 0000.0001) %MON forcing_fu_min               =  -3.9495705273434E-01
(PID.TID 0000.0001) %MON forcing_fu_mean              =  -3.0787538887039E-03
(PID.TID 0000.0001) %MON forcing_fu_sd                =   6.9031422603105E-02
(PID.TID 0000.0001) %MON forcing_fu_del2              =   6.8144158917907E-04
(PID.TID 0000.0001) %MON forcing_fv_max               =   3.1625401466570E-01
(PID.TID 0000.0001) %MON forcing_fv_min               =  -3.2095072599497E-01
(PID.TID 0000.0001) %MON forcing_fv_mean              =  -1.1967677922170E-02
(PID.TID 0000.0001) %MON forcing_fv_sd                =   6.7560998372525E-02
(PID.TID 0000.0001) %MON forcing_fv_del2              =   5.9510069537260E-04
(PID.TID 0000.0001) %MON trAdv_CFL_u_max              =   2.1412180180285E-03
(PID.TID 0000.0001) %MON trAdv_CFL_v_max              =   3.2429491334730E-03
(PID.TID 0000.0001) %MON trAdv_CFL_w_max              =   2.8391371910347E-03
(PID.TID 0000.0001) %MON advcfl_uvel_max              =   2.0982214157948E-03
(PID.TID 0000.0001) %MON advcfl_vvel_max              =   3.2903985731219E-03
(PID.TID 0000.0001) %MON advcfl_wvel_max              =   4.8576256503230E-03
(PID.TID 0000.0001) %MON advcfl_W_hf_max              =   2.8391371910347E-03
(PID.TID 0000.0001) %MON pe_b_mean                    =   5.1625738441949E-04
(PID.TID 0000.0001) %MON ke_max                       =   4.1737480220599E-01
(PID.TID 0000.0001) %MON ke_mean                      =   1.6545232049184E-04
(PID.TID 0000.0001) %MON ke_vol                       =   1.3398092468424E+18
(PID.TID 0000.0001) %MON vort_r_min                   =  -5.8435373933774E-06
(PID.TID 0000.0001) %MON vort_r_max                   =   2.8450875256115E-06
(PID.TID 0000.0001) %MON vort_a_mean                  =  -2.0549865324846E-05
(PID.TID 0000.0001) %MON vort_a_sd                    =   7.5259508374823E-05
(PID.TID 0000.0001) %MON vort_p_mean                  =  -2.4783343771158E-05
(PID.TID 0000.0001) %MON vort_p_sd                    =   1.2811912521169E-04
(PID.TID 0000.0001) %MON surfExpan_theta_mean         =  -7.1811953271511E-06
(PID.TID 0000.0001) %MON surfExpan_salt_mean          =   1.3398465371627E-06
(PID.TID 0000.0001) // =======================================================
(PID.TID 0000.0001) // End MONITOR dynamic field statistics
(PID.TID 0000.0001) // =======================================================
 cg2d: Sum(rhs),rhsMax =  -2.19542678622588E+01  7.60372459156800E+01
(PID.TID 0000.0001)      cg2d_init_res =   1.92750300222893E-01
(PID.TID 0000.0001)      cg2d_iters(min,last) =      -1      10
(PID.TID 0000.0001)      cg2d_last_res =   6.84249466131238E-08
(PID.TID 0000.0001) // =======================================================
(PID.TID 0000.0001) // Begin MONITOR dynamic field statistics
(PID.TID 0000.0001) // =======================================================
(PID.TID 0000.0001) %MON time_tsnumber                =                 72026
(PID.TID 0000.0001) %MON time_secondsf                =   6.4823400000000E+07
(PID.TID 0000.0001) %MON dynstat_eta_max              =   3.3646992834072E+00
(PID.TID 0000.0001) %MON dynstat_eta_min              =  -4.2835301044348E+00
(PID.TID 0000.0001) %MON dynstat_eta_mean             =   1.9397533481837E-02
(PID.TID 0000.0001) %MON dynstat_eta_sd               =   6.2240179338044E-01
(PID.TID 0000.0001) %MON dynstat_eta_del2             =   3.6003949539346E-03
(PID.TID 0000.0001) %MON dynstat_uvel_max             =   4.5434042723217E-01
(PID.TID 0000.0001) %MON dynstat_uvel_min             =  -6.6601424808451E-01
(PID.TID 0000.0001) %MON dynstat_uvel_mean            =  -2.2174824484602E-06
(PID.TID 0000.0001) %MON dynstat_uvel_sd              =   1.2858329709157E-02
(PID.TID 0000.0001) %MON dynstat_uvel_del2            =   8.6961777294873E-05
(PID.TID 0000.0001) %MON dynstat_vvel_max             =   3.3535271281947E-01
(PID.TID 0000.0001) %MON dynstat_vvel_min             =  -9.6133171372464E-01
(PID.TID 0000.0001) %MON dynstat_vvel_mean            =  -4.4992233382552E-04
(PID.TID 0000.0001) %MON dynstat_vvel_sd              =   1.3876797723911E-02
(PID.TID 0000.0001) %MON dynstat_vvel_del2            =   1.1098193140700E-04
(PID.TID 0000.0001) %MON dynstat_wvel_max             =   1.5058673398382E-04
(PID.TID 0000.0001) %MON dynstat_wvel_min             =  -4.3265950166674E-04
(PID.TID 0000.0001) %MON dynstat_wvel_mean            =  -2.2478130896145E-07
(PID.TID 0000.0001) %MON dynstat_wvel_sd              =   8.7380470536143E-06
(PID.TID 0000.0001) %MON dynstat_wvel_del2            =   7.7775924655261E-08
(PID.TID 0000.0001) %MON dynstat_theta_max            =   3.0928529883412E+01
(PID.TID 0000.0001) %MON dynstat_theta_min            =  -3.0060172764548E+00
(PID.TID 0000.0001) %MON dynstat_theta_mean           =   3.9091618300625E+00
(PID.TID 0000.0001) %MON dynstat_theta_sd             =   4.5714090364191E+00
(PID.TID 0000.0001) %MON dynstat_theta_del2           =   2.6483576620980E-03
(PID.TID 0000.0001) %MON dynstat_salt_max             =   4.1359018034916E+01
(PID.TID 0000.0001) %MON dynstat_salt_min             =   1.8518628806351E+01
(PID.TID 0000.0001) %MON dynstat_salt_mean            =   3.4772055567835E+01
(PID.TID 0000.0001) %MON dynstat_salt_sd              =   5.3135660082035E-01
(PID.TID 0000.0001) %MON dynstat_salt_del2            =   9.0497661398212E-04
(PID.TID 0000.0001) %MON dynstat_sst_max              =   3.0928529883412E+01
(PID.TID 0000.0001) %MON dynstat_sst_min              =  -1.8990834871433E+00
(PID.TID 0000.0001) %MON dynstat_sst_mean             =   1.8111552415689E+01
(PID.TID 0000.0001) %MON dynstat_sst_sd               =   9.8064995420525E+00
(PID.TID 0000.0001) %MON dynstat_sst_del2             =   1.5175593483814E-02
(PID.TID 0000.0001) %MON dynstat_sss_max              =   4.1359018034916E+01
(PID.TID 0000.0001) %MON dynstat_sss_min              =   1.8751390462846E+01
(PID.TID 0000.0001) %MON dynstat_sss_mean             =   3.4631736664758E+01
(PID.TID 0000.0001) %MON dynstat_sss_sd               =   1.4674634762688E+00
(PID.TID 0000.0001) %MON dynstat_sss_del2             =   9.5768083843264E-03
(PID.TID 0000.0001) %MON forcing_qnet_max             =   3.0045243468100E+03
(PID.TID 0000.0001) %MON forcing_qnet_min             =  -2.4073940429688E+03
(PID.TID 0000.0001) %MON forcing_qnet_mean            =  -4.0381748990762E+01
(PID.TID 0000.0001) %MON forcing_qnet_sd              =   2.7481421258150E+02
(PID.TID 0000.0001) %MON forcing_qnet_del2            =   6.7741964772563E+00
(PID.TID 0000.0001) %MON forcing_qsw_max              =   0.0000000000000E+00
(PID.TID 0000.0001) %MON forcing_qsw_min              =  -4.3626839759024E+02
(PID.TID 0000.0001) %MON forcing_qsw_mean             =  -6.8788241851216E+01
(PID.TID 0000.0001) %MON forcing_qsw_sd               =   1.0167067792523E+02
(PID.TID 0000.0001) %MON forcing_qsw_del2             =   1.1030961474114E+00
(PID.TID 0000.0001) %MON forcing_empmr_max            =   8.5626496002078E-03
(PID.TID 0000.0001) %MON forcing_empmr_min            =  -1.3608069717884E-01
(PID.TID 0000.0001) %MON forcing_empmr_mean           =  -4.0313165494591E-04
(PID.TID 0000.0001) %MON forcing_empmr_sd             =   6.0217322213533E-03
(PID.TID 0000.0001) %MON forcing_empmr_del2           =   2.4268540019003E-04
(PID.TID 0000.0001) %MON forcing_fu_max               =   5.0785740936523E-01
(PID.TID 0000.0001) %MON forcing_fu_min               =  -3.8806621313254E-01
(PID.TID 0000.0001) %MON forcing_fu_mean              =  -3.0413863655468E-03
(PID.TID 0000.0001) %MON forcing_fu_sd                =   6.8364180121942E-02
(PID.TID 0000.0001) %MON forcing_fu_del2              =   6.7349936902483E-04
(PID.TID 0000.0001) %MON forcing_fv_max               =   3.1515259984944E-01
(PID.TID 0000.0001) %MON forcing_fv_min               =  -3.1389737933316E-01
(PID.TID 0000.0001) %MON forcing_fv_mean              =  -1.2039122566849E-02
(PID.TID 0000.0001) %MON forcing_fv_sd                =   6.7027717272068E-02
(PID.TID 0000.0001) %MON forcing_fv_del2              =   5.8993663791586E-04
(PID.TID 0000.0001) %MON trAdv_CFL_u_max              =   1.9582961078627E-03
(PID.TID 0000.0001) %MON trAdv_CFL_v_max              =   3.7167470366017E-03
(PID.TID 0000.0001) %MON trAdv_CFL_w_max              =   2.5510131497896E-03
(PID.TID 0000.0001) %MON advcfl_uvel_max              =   1.9602378094370E-03
(PID.TID 0000.0001) %MON advcfl_vvel_max              =   3.2228815174321E-03
(PID.TID 0000.0001) %MON advcfl_wvel_max              =   4.7332416410032E-03
(PID.TID 0000.0001) %MON advcfl_W_hf_max              =   2.5510131497896E-03
(PID.TID 0000.0001) %MON pe_b_mean                    =   5.1656564626442E-04
(PID.TID 0000.0001) %MON ke_max                       =   3.8067215833692E-01
(PID.TID 0000.0001) %MON ke_mean                      =   1.6538944161422E-04
(PID.TID 0000.0001) %MON ke_vol                       =   1.3398093763077E+18
(PID.TID 0000.0001) %MON vort_r_min                   =  -5.3389931603676E-06
(PID.TID 0000.0001) %MON vort_r_max                   =   2.7778268533261E-06
(PID.TID 0000.0001) %MON vort_a_mean                  =  -2.0549865324846E-05
(PID.TID 0000.0001) %MON vort_a_sd                    =   7.5259506251460E-05
(PID.TID 0000.0001) %MON vort_p_mean                  =  -2.4783341344204E-05
(PID.TID 0000.0001) %MON vort_p_sd                    =   1.2811910896619E-04
(PID.TID 0000.0001) %MON surfExpan_theta_mean         =  -7.1351959530320E-06
(PID.TID 0000.0001) %MON surfExpan_salt_mean          =   1.3046730397091E-06
(PID.TID 0000.0001) // =======================================================
(PID.TID 0000.0001) // End MONITOR dynamic field statistics
(PID.TID 0000.0001) // =======================================================
 cg2d: Sum(rhs),rhsMax =  -2.31930044264175E+01  7.32681693496517E+01
(PID.TID 0000.0001)      cg2d_init_res =   2.00021913096467E-01
(PID.TID 0000.0001)      cg2d_iters(min,last) =      -1      10
(PID.TID 0000.0001)      cg2d_last_res =   6.95180412602383E-08
(PID.TID 0000.0001) // =======================================================
(PID.TID 0000.0001) // Begin MONITOR dynamic field statistics
(PID.TID 0000.0001) // =======================================================
(PID.TID 0000.0001) %MON time_tsnumber                =                 72027
(PID.TID 0000.0001) %MON time_secondsf                =   6.4824300000000E+07
(PID.TID 0000.0001) %MON dynstat_eta_max              =   3.1222416438781E+00
(PID.TID 0000.0001) %MON dynstat_eta_min              =  -4.1268199176108E+00
(PID.TID 0000.0001) %MON dynstat_eta_mean             =   1.9745745023065E-02
(PID.TID 0000.0001) %MON dynstat_eta_sd               =   6.2238824846656E-01
(PID.TID 0000.0001) %MON dynstat_eta_del2             =   3.4678549889865E-03
(PID.TID 0000.0001) %MON dynstat_uvel_max             =   4.1778633472736E-01
(PID.TID 0000.0001) %MON dynstat_uvel_min             =  -7.1479774738425E-01
(PID.TID 0000.0001) %MON dynstat_uvel_mean            =  -2.0412319981637E-05
(PID.TID 0000.0001) %MON dynstat_uvel_sd              =   1.2816699041556E-02
(PID.TID 0000.0001) %MON dynstat_uvel_del2            =   8.5530415941760E-05
(PID.TID 0000.0001) %MON dynstat_vvel_max             =   4.6642918185765E-01
(PID.TID 0000.0001) %MON dynstat_vvel_min             =  -9.6170652855986E-01
(PID.TID 0000.0001) %MON dynstat_vvel_mean            =  -4.5373048643729E-04
(PID.TID 0000.0001) %MON dynstat_vvel_sd              =   1.3926731905685E-02
(PID.TID 0000.0001) %MON dynstat_vvel_del2            =   1.1447783249437E-04
(PID.TID 0000.0001) %MON dynstat_wvel_max             =   1.6079527576255E-04
(PID.TID 0000.0001) %MON dynstat_wvel_min             =  -4.1432323793875E-04
(PID.TID 0000.0001) %MON dynstat_wvel_mean            =  -2.0246071486839E-07
(PID.TID 0000.0001) %MON dynstat_wvel_sd              =   8.6291582329486E-06
(PID.TID 0000.0001) %MON dynstat_wvel_del2            =   7.6804817862054E-08
(PID.TID 0000.0001) %MON dynstat_theta_max            =   3.0929189560968E+01
(PID.TID 0000.0001) %MON dynstat_theta_min            =  -3.0059668024758E+00
(PID.TID 0000.0001) %MON dynstat_theta_mean           =   3.9091661649680E+00
(PID.TID 0000.0001) %MON dynstat_theta_sd             =   4.5714261107707E+00
(PID.TID 0000.0001) %MON dynstat_theta_del2           =   2.6482399558833E-03
(PID.TID 0000.0001) %MON dynstat_salt_max             =   4.1358621926836E+01
(PID.TID 0000.0001) %MON dynstat_salt_min             =   1.8518638835068E+01
(PID.TID 0000.0001) %MON dynstat_salt_mean            =   3.4772051430283E+01
(PID.TID 0000.0001) %MON dynstat_salt_sd              =   5.3137638370248E-01
(PID.TID 0000.0001) %MON dynstat_salt_del2            =   9.1050028491284E-04
(PID.TID 0000.0001) %MON dynstat_sst_max              =   3.0929189560968E+01
(PID.TID 0000.0001) %MON dynstat_sst_min              =  -1.9001465472884E+00
(PID.TID 0000.0001) %MON dynstat_sst_mean             =   1.8111725639438E+01
(PID.TID 0000.0001) %MON dynstat_sst_sd               =   9.8067128162636E+00
(PID.TID 0000.0001) %MON dynstat_sst_del2             =   1.5173249693830E-02
(PID.TID 0000.0001) %MON dynstat_sss_max              =   4.1358621926836E+01
(PID.TID 0000.0001) %MON dynstat_sss_min              =   1.8751391080094E+01
(PID.TID 0000.0001) %MON dynstat_sss_mean             =   3.4631436308709E+01
(PID.TID 0000.0001) %MON dynstat_sss_sd               =   1.4679634921084E+00
(PID.TID 0000.0001) %MON dynstat_sss_del2             =   9.6591566428568E-03
(PID.TID 0000.0001) %MON forcing_qnet_max             =   3.2080834960938E+03
(PID.TID 0000.0001) %MON forcing_qnet_min             =  -1.0687878906250E+04
(PID.TID 0000.0001) %MON forcing_qnet_mean            =  -3.8157242046983E+01
(PID.TID 0000.0001) %MON forcing_qnet_sd              =   3.1054102422360E+02
(PID.TID 0000.0001) %MON forcing_qnet_del2            =   7.5019173834772E+00
(PID.TID 0000.0001) %MON forcing_qsw_max              =   0.0000000000000E+00
(PID.TID 0000.0001) %MON forcing_qsw_min              =  -4.3266840884846E+02
(PID.TID 0000.0001) %MON forcing_qsw_mean             =  -6.7783004292727E+01
(PID.TID 0000.0001) %MON forcing_qsw_sd               =   1.0062666411993E+02
(PID.TID 0000.0001) %MON forcing_qsw_del2             =   1.0981483765790E+00
(PID.TID 0000.0001) %MON forcing_empmr_max            =   8.4743816405535E-03
(PID.TID 0000.0001) %MON forcing_empmr_min            =  -1.3106572628021E-01
(PID.TID 0000.0001) %MON forcing_empmr_mean           =  -4.0044327241290E-04
(PID.TID 0000.0001) %MON forcing_empmr_sd             =   5.9223456282814E-03
(PID.TID 0000.0001) %MON forcing_empmr_del2           =   2.3816643988616E-04
(PID.TID 0000.0001) %MON forcing_fu_max               =   4.8817229659834E-01
(PID.TID 0000.0001) %MON forcing_fu_min               =  -3.8336512771337E-01
(PID.TID 0000.0001) %MON forcing_fu_mean              =  -3.0046867386566E-03
(PID.TID 0000.0001) %MON forcing_fu_sd                =   6.7709721321246E-02
(PID.TID 0000.0001) %MON forcing_fu_del2              =   6.6517041896534E-04
(PID.TID 0000.0001) %MON forcing_fv_max               =   3.1684941144623E-01
(PID.TID 0000.0001) %MON forcing_fv_min               =  -3.0837321478488E-01
(PID.TID 0000.0001) %MON forcing_fv_mean              =  -1.2126193320253E-02
(PID.TID 0000.0001) %MON forcing_fv_sd                =   6.6618479901999E-02
(PID.TID 0000.0001) %MON forcing_fv_del2              =   5.8574800937267E-04
(PID.TID 0000.0001) %MON trAdv_CFL_u_max              =   2.1021947516184E-03
(PID.TID 0000.0001) %MON trAdv_CFL_v_max              =   4.1374919699621E-03
(PID.TID 0000.0001) %MON trAdv_CFL_w_max              =   2.2769241793519E-03
(PID.TID 0000.0001) %MON advcfl_uvel_max              =   2.1038192119055E-03
(PID.TID 0000.0001) %MON advcfl_vvel_max              =   3.1067997425748E-03
(PID.TID 0000.0001) %MON advcfl_wvel_max              =   4.5588078706161E-03
(PID.TID 0000.0001) %MON advcfl_W_hf_max              =   2.2769241793519E-03
(PID.TID 0000.0001) %MON pe_b_mean                    =   5.1656129357289E-04
(PID.TID 0000.0001) %MON ke_max                       =   3.9315252432566E-01
(PID.TID 0000.0001) %MON ke_mean                      =   1.6554441034558E-04
(PID.TID 0000.0001) %MON ke_vol                       =   1.3398095038679E+18
(PID.TID 0000.0001) %MON vort_r_min                   =  -5.5010082636365E-06
(PID.TID 0000.0001) %MON vort_r_max                   =   2.6942211516510E-06
(PID.TID 0000.0001) %MON vort_a_mean                  =  -2.0549865324846E-05
(PID.TID 0000.0001) %MON vort_a_sd                    =   7.5259504099881E-05
(PID.TID 0000.0001) %MON vort_p_mean                  =  -2.4783338993013E-05
(PID.TID 0000.0001) %MON vort_p_sd                    =   1.2811909396963E-04
(PID.TID 0000.0001) %MON surfExpan_theta_mean         =  -7.1100188542012E-06
(PID.TID 0000.0001) %MON surfExpan_salt_mean          =   1.2685851638139E-06
(PID.TID 0000.0001) // =======================================================
(PID.TID 0000.0001) // End MONITOR dynamic field statistics
(PID.TID 0000.0001) // =======================================================
 Computing Diagnostic #     81  oceTAUX      Counter:       1   Parms: UU      U1      
           Vector  Mate for  oceTAUX      Diagnostic #     82  oceTAUY  exists 
 Computing Diagnostic #     82  oceTAUY      Counter:       1   Parms: VV      U1      
           Vector  Mate for  oceTAUY      Diagnostic #     81  oceTAUX  exists 
 Computing Diagnostic #     85  oceFWflx     Counter:       1   Parms: SM      U1      
 Computing Diagnostic #     86  oceSflux     Counter:       1   Parms: SM      U1      
 Computing Diagnostic #     87  oceQnet      Counter:       1   Parms: SM      U1      
 Computing Diagnostic #     88  oceQsw       Counter:       1   Parms: SM      U1      
 Computing Diagnostic #     27  SALT         Counter:       1   Parms: SMR     MR      
 Computing Diagnostic #     26  THETA        Counter:       1   Parms: SMR     MR      
 Computing Diagnostic #     45  UVELMASS     Counter:       1   Parms: UUr     MR      
           Vector  Mate for  UVELMASS     Diagnostic #     46  VVELMASS exists 
 Computing Diagnostic #     46  VVELMASS     Counter:       1   Parms: VVr     MR      
           Vector  Mate for  VVELMASS     Diagnostic #     45  UVELMASS exists 
 cg2d: Sum(rhs),rhsMax =  -2.49428273837446E+01  6.93025130259826E+01
(PID.TID 0000.0001)      cg2d_init_res =   2.14059515151692E-01
(PID.TID 0000.0001)      cg2d_iters(min,last) =      -1      10
(PID.TID 0000.0001)      cg2d_last_res =   7.26840357436730E-08
(PID.TID 0000.0001) // =======================================================
(PID.TID 0000.0001) // Begin MONITOR dynamic field statistics
(PID.TID 0000.0001) // =======================================================
(PID.TID 0000.0001) %MON time_tsnumber                =                 72028
(PID.TID 0000.0001) %MON time_secondsf                =   6.4825200000000E+07
(PID.TID 0000.0001) %MON dynstat_eta_max              =   2.8569038525618E+00
(PID.TID 0000.0001) %MON dynstat_eta_min              =  -3.9028516551909E+00
(PID.TID 0000.0001) %MON dynstat_eta_mean             =   2.0086110038772E-02
(PID.TID 0000.0001) %MON dynstat_eta_sd               =   6.2220505333034E-01
(PID.TID 0000.0001) %MON dynstat_eta_del2             =   3.3144051366931E-03
(PID.TID 0000.0001) %MON dynstat_uvel_max             =   4.0146646645608E-01
(PID.TID 0000.0001) %MON dynstat_uvel_min             =  -7.6131693589000E-01
(PID.TID 0000.0001) %MON dynstat_uvel_mean            =  -4.3315751326267E-05
(PID.TID 0000.0001) %MON dynstat_uvel_sd              =   1.2794707962155E-02
(PID.TID 0000.0001) %MON dynstat_uvel_del2            =   8.4671612631972E-05
(PID.TID 0000.0001) %MON dynstat_vvel_max             =   6.0088420341549E-01
(PID.TID 0000.0001) %MON dynstat_vvel_min             =  -9.5283207628089E-01
(PID.TID 0000.0001) %MON dynstat_vvel_mean            =  -4.5651935441808E-04
(PID.TID 0000.0001) %MON dynstat_vvel_sd              =   1.3971603484649E-02
(PID.TID 0000.0001) %MON dynstat_vvel_del2            =   1.1783507587226E-04
(PID.TID 0000.0001) %MON dynstat_wvel_max             =   1.6922456780734E-04
(PID.TID 0000.0001) %MON dynstat_wvel_min             =  -3.9229354638352E-04
(PID.TID 0000.0001) %MON dynstat_wvel_mean            =  -1.7886034620320E-07
(PID.TID 0000.0001) %MON dynstat_wvel_sd              =   8.5522139554225E-06
(PID.TID 0000.0001) %MON dynstat_wvel_del2            =   7.6005378082822E-08
(PID.TID 0000.0001) %MON dynstat_theta_max            =   3.0929863986068E+01
(PID.TID 0000.0001) %MON dynstat_theta_min            =  -3.0059324733308E+00
(PID.TID 0000.0001) %MON dynstat_theta_mean           =   3.9091700207817E+00
(PID.TID 0000.0001) %MON dynstat_theta_sd             =   4.5714416859788E+00
(PID.TID 0000.0001) %MON dynstat_theta_del2           =   2.6481192416189E-03
(PID.TID 0000.0001) %MON dynstat_salt_max             =   4.1358255843793E+01
(PID.TID 0000.0001) %MON dynstat_salt_min             =   1.8518648912545E+01
(PID.TID 0000.0001) %MON dynstat_salt_mean            =   3.4772047305660E+01
(PID.TID 0000.0001) %MON dynstat_salt_sd              =   5.3139590996443E-01
(PID.TID 0000.0001) %MON dynstat_salt_del2            =   9.1601241092630E-04
(PID.TID 0000.0001) %MON dynstat_sst_max              =   3.0929863986068E+01
(PID.TID 0000.0001) %MON dynstat_sst_min              =  -1.9039135711968E+00
(PID.TID 0000.0001) %MON dynstat_sst_mean             =   1.8111877624272E+01
(PID.TID 0000.0001) %MON dynstat_sst_sd               =   9.8069058904902E+00
(PID.TID 0000.0001) %MON dynstat_sst_del2             =   1.5170874838235E-02
(PID.TID 0000.0001) %MON dynstat_sss_max              =   4.1358255843793E+01
(PID.TID 0000.0001) %MON dynstat_sss_min              =   1.8751391708702E+01
(PID.TID 0000.0001) %MON dynstat_sss_mean             =   3.4631138061619E+01
(PID.TID 0000.0001) %MON dynstat_sss_sd               =   1.4684566806930E+00
(PID.TID 0000.0001) %MON dynstat_sss_del2             =   9.7411366385751E-03
(PID.TID 0000.0001) %MON forcing_qnet_max             =   1.2246938815684E+04
(PID.TID 0000.0001) %MON forcing_qnet_min             =  -2.3314780273438E+03
(PID.TID 0000.0001) %MON forcing_qnet_mean            =  -3.0509626464603E+01
(PID.TID 0000.0001) %MON forcing_qnet_sd              =   3.1712678225899E+02
(PID.TID 0000.0001) %MON forcing_qnet_del2            =   9.4686537995951E+00
(PID.TID 0000.0001) %MON forcing_qsw_max              =   0.0000000000000E+00
(PID.TID 0000.0001) %MON forcing_qsw_min              =  -4.2727153513868E+02
(PID.TID 0000.0001) %MON forcing_qsw_mean             =  -6.6601070045936E+01
(PID.TID 0000.0001) %MON forcing_qsw_sd               =   9.9581178480684E+01
(PID.TID 0000.0001) %MON forcing_qsw_del2             =   1.0900788375920E+00
(PID.TID 0000.0001) %MON forcing_empmr_max            =   8.3870477974415E-03
(PID.TID 0000.0001) %MON forcing_empmr_min            =  -1.2603886425495E-01
(PID.TID 0000.0001) %MON forcing_empmr_mean           =  -3.9141976806318E-04
(PID.TID 0000.0001) %MON forcing_empmr_sd             =   5.8125058951142E-03
(PID.TID 0000.0001) %MON forcing_empmr_del2           =   2.3320457484225E-04
(PID.TID 0000.0001) %MON forcing_fu_max               =   4.6814409935029E-01
(PID.TID 0000.0001) %MON forcing_fu_min               =  -3.7859034615940E-01
(PID.TID 0000.0001) %MON forcing_fu_mean              =  -3.0216476640302E-03
(PID.TID 0000.0001) %MON forcing_fu_sd                =   6.6945224553534E-02
(PID.TID 0000.0001) %MON forcing_fu_del2              =   6.5606480794743E-04
(PID.TID 0000.0001) %MON forcing_fv_max               =   3.1818237895955E-01
(PID.TID 0000.0001) %MON forcing_fv_min               =  -3.0385865748328E-01
(PID.TID 0000.0001) %MON forcing_fv_mean              =  -1.2205442217071E-02
(PID.TID 0000.0001) %MON forcing_fv_sd                =   6.6245683449887E-02
(PID.TID 0000.0001) %MON forcing_fv_del2              =   5.8164718646362E-04
(PID.TID 0000.0001) %MON trAdv_CFL_u_max              =   2.2399243514242E-03
(PID.TID 0000.0001) %MON trAdv_CFL_v_max              =   4.5001009788946E-03
(PID.TID 0000.0001) %MON trAdv_CFL_w_max              =   2.0629213683998E-03
(PID.TID 0000.0001) %MON advcfl_uvel_max              =   2.2407362109571E-03
(PID.TID 0000.0001) %MON advcfl_vvel_max              =   2.9447274455274E-03
(PID.TID 0000.0001) %MON advcfl_wvel_max              =   4.3839604958244E-03
(PID.TID 0000.0001) %MON advcfl_W_hf_max              =   2.0371855789452E-03
(PID.TID 0000.0001) %MON pe_b_mean                    =   5.1627556445895E-04
(PID.TID 0000.0001) %MON ke_max                       =   4.0342261051598E-01
(PID.TID 0000.0001) %MON ke_mean                      =   1.6586839272641E-04
(PID.TID 0000.0001) %MON ke_vol                       =   1.3398096305775E+18
(PID.TID 0000.0001) %MON vort_r_min                   =  -5.6253125468195E-06
(PID.TID 0000.0001) %MON vort_r_max                   =   2.5957824705144E-06
(PID.TID 0000.0001) %MON vort_a_mean                  =  -2.0549865324846E-05
(PID.TID 0000.0001) %MON vort_a_sd                    =   7.5259502099183E-05
(PID.TID 0000.0001) %MON vort_p_mean                  =  -2.4783336703122E-05
(PID.TID 0000.0001) %MON vort_p_sd                    =   1.2811908091846E-04
(PID.TID 0000.0001) %MON surfExpan_theta_mean         =  -7.0757084879427E-06
(PID.TID 0000.0001) %MON surfExpan_salt_mean          =   1.2314375798170E-06
(PID.TID 0000.0001) // =======================================================
(PID.TID 0000.0001) // End MONITOR dynamic field statistics
(PID.TID 0000.0001) // =======================================================
 cg2d: Sum(rhs),rhsMax =  -2.73556294009509E+01  6.42402798880138E+01
(PID.TID 0000.0001)      cg2d_init_res =   2.36838793297489E-01
(PID.TID 0000.0001)      cg2d_iters(min,last) =      -1      10
(PID.TID 0000.0001)      cg2d_last_res =   7.85584931371201E-08
(PID.TID 0000.0001) // =======================================================
(PID.TID 0000.0001) // Begin MONITOR dynamic field statistics
(PID.TID 0000.0001) // =======================================================
(PID.TID 0000.0001) %MON time_tsnumber                =                 72029
(PID.TID 0000.0001) %MON time_secondsf                =   6.4826100000000E+07
(PID.TID 0000.0001) %MON dynstat_eta_max              =   2.5733189169479E+00
(PID.TID 0000.0001) %MON dynstat_eta_min              =  -3.6173004731849E+00
(PID.TID 0000.0001) %MON dynstat_eta_mean             =   2.0419979849985E-02
(PID.TID 0000.0001) %MON dynstat_eta_sd               =   6.2188133231950E-01
(PID.TID 0000.0001) %MON dynstat_eta_del2             =   3.1457604424856E-03
(PID.TID 0000.0001) %MON dynstat_uvel_max             =   3.9250188675418E-01
(PID.TID 0000.0001) %MON dynstat_uvel_min             =  -8.0475580366333E-01
(PID.TID 0000.0001) %MON dynstat_uvel_mean            =  -7.0370483906513E-05
(PID.TID 0000.0001) %MON dynstat_uvel_sd              =   1.2790945882785E-02
(PID.TID 0000.0001) %MON dynstat_uvel_del2            =   8.4289804829498E-05
(PID.TID 0000.0001) %MON dynstat_vvel_max             =   7.2166380285388E-01
(PID.TID 0000.0001) %MON dynstat_vvel_min             =  -9.6197222132735E-01
(PID.TID 0000.0001) %MON dynstat_vvel_mean            =  -4.5762401297045E-04
(PID.TID 0000.0001) %MON dynstat_vvel_sd              =   1.4008034944892E-02
(PID.TID 0000.0001) %MON dynstat_vvel_del2            =   1.2086044063569E-04
(PID.TID 0000.0001) %MON dynstat_wvel_max             =   1.7608883370063E-04
(PID.TID 0000.0001) %MON dynstat_wvel_min             =  -3.6688683874624E-04
(PID.TID 0000.0001) %MON dynstat_wvel_mean            =  -1.5467418612302E-07
(PID.TID 0000.0001) %MON dynstat_wvel_sd              =   8.5062005532438E-06
(PID.TID 0000.0001) %MON dynstat_wvel_del2            =   7.5371627827617E-08
(PID.TID 0000.0001) %MON dynstat_theta_max            =   3.0930558101019E+01
(PID.TID 0000.0001) %MON dynstat_theta_min            =  -3.0059020400254E+00
(PID.TID 0000.0001) %MON dynstat_theta_mean           =   3.9091736661277E+00
(PID.TID 0000.0001) %MON dynstat_theta_sd             =   4.5714564448197E+00
(PID.TID 0000.0001) %MON dynstat_theta_del2           =   2.6480002219369E-03
(PID.TID 0000.0001) %MON dynstat_salt_max             =   4.1357914397618E+01
(PID.TID 0000.0001) %MON dynstat_salt_min             =   1.8518659041835E+01
(PID.TID 0000.0001) %MON dynstat_salt_mean            =   3.4772043314617E+01
(PID.TID 0000.0001) %MON dynstat_salt_sd              =   5.3141566586002E-01
(PID.TID 0000.0001) %MON dynstat_salt_del2            =   9.2150639259751E-04
(PID.TID 0000.0001) %MON dynstat_sst_max              =   3.0930558101019E+01
(PID.TID 0000.0001) %MON dynstat_sst_min              =  -1.8988392715559E+00
(PID.TID 0000.0001) %MON dynstat_sst_mean             =   1.8112017026037E+01
(PID.TID 0000.0001) %MON dynstat_sst_sd               =   9.8070904513027E+00
(PID.TID 0000.0001) %MON dynstat_sst_del2             =   1.5168588794949E-02
(PID.TID 0000.0001) %MON dynstat_sss_max              =   4.1357914397618E+01
(PID.TID 0000.0001) %MON dynstat_sss_min              =   1.8751392272129E+01
(PID.TID 0000.0001) %MON dynstat_sss_mean             =   3.4630849470068E+01
(PID.TID 0000.0001) %MON dynstat_sss_sd               =   1.4689564208893E+00
(PID.TID 0000.0001) %MON dynstat_sss_del2             =   9.8226526667313E-03
(PID.TID 0000.0001) %MON forcing_qnet_max             =   2.8794173721419E+03
(PID.TID 0000.0001) %MON forcing_qnet_min             =  -2.1913439941406E+03
(PID.TID 0000.0001) %MON forcing_qnet_mean            =  -2.7082468446888E+01
(PID.TID 0000.0001) %MON forcing_qnet_sd              =   2.5981093444546E+02
(PID.TID 0000.0001) %MON forcing_qnet_del2            =   6.0681173842810E+00
(PID.TID 0000.0001) %MON forcing_qsw_max              =   0.0000000000000E+00
(PID.TID 0000.0001) %MON forcing_qsw_min              =  -4.0930519913453E+02
(PID.TID 0000.0001) %MON forcing_qsw_mean             =  -6.4457711938686E+01
(PID.TID 0000.0001) %MON forcing_qsw_sd               =   9.8047866357842E+01
(PID.TID 0000.0001) %MON forcing_qsw_del2             =   1.0730481530963E+00
(PID.TID 0000.0001) %MON forcing_empmr_max            =   8.3005512133241E-03
(PID.TID 0000.0001) %MON forcing_empmr_min            =  -1.2156273424625E-01
(PID.TID 0000.0001) %MON forcing_empmr_mean           =  -3.8395028289510E-04
(PID.TID 0000.0001) %MON forcing_empmr_sd             =   5.6980429474073E-03
(PID.TID 0000.0001) %MON forcing_empmr_del2           =   2.2768284037201E-04
(PID.TID 0000.0001) %MON forcing_fu_max               =   4.5560883253026E-01
(PID.TID 0000.0001) %MON forcing_fu_min               =  -3.7529663301952E-01
(PID.TID 0000.0001) %MON forcing_fu_mean              =  -3.0276921764263E-03
(PID.TID 0000.0001) %MON forcing_fu_sd                =   6.6316493727691E-02
(PID.TID 0000.0001) %MON forcing_fu_del2              =   6.4930862514605E-04
(PID.TID 0000.0001) %MON forcing_fv_max               =   3.1781237627755E-01
(PID.TID 0000.0001) %MON forcing_fv_min               =  -3.0045372298795E-01
(PID.TID 0000.0001) %MON forcing_fv_mean              =  -1.2295338001676E-02
(PID.TID 0000.0001) %MON forcing_fv_sd                =   6.5856083873320E-02
(PID.TID 0000.0001) %MON forcing_fv_del2              =   5.7751681758672E-04
(PID.TID 0000.0001) %MON trAdv_CFL_u_max              =   2.3691685013576E-03
(PID.TID 0000.0001) %MON trAdv_CFL_v_max              =   4.8004843277059E-03
(PID.TID 0000.0001) %MON trAdv_CFL_w_max              =   2.0113388489392E-03
(PID.TID 0000.0001) %MON advcfl_uvel_max              =   2.3685870959093E-03
(PID.TID 0000.0001) %MON advcfl_vvel_max              =   3.1392662570337E-03
(PID.TID 0000.0001) %MON advcfl_wvel_max              =   4.2282690172610E-03
(PID.TID 0000.0001) %MON advcfl_W_hf_max              =   1.9923285381734E-03
(PID.TID 0000.0001) %MON pe_b_mean                    =   5.1575701573227E-04
(PID.TID 0000.0001) %MON ke_max                       =   4.0926029578190E-01
(PID.TID 0000.0001) %MON ke_mean                      =   1.6629904780333E-04
(PID.TID 0000.0001) %MON ke_vol                       =   1.3398097544318E+18
(PID.TID 0000.0001) %MON vort_r_min                   =  -5.7092563411010E-06
(PID.TID 0000.0001) %MON vort_r_max                   =   2.4842592496932E-06
(PID.TID 0000.0001) %MON vort_a_mean                  =  -2.0549865324846E-05
(PID.TID 0000.0001) %MON vort_a_sd                    =   7.5259500441465E-05
(PID.TID 0000.0001) %MON vort_p_mean                  =  -2.4783334495504E-05
(PID.TID 0000.0001) %MON vort_p_sd                    =   1.2811907263213E-04
(PID.TID 0000.0001) %MON surfExpan_theta_mean         =  -7.0384969923265E-06
(PID.TID 0000.0001) %MON surfExpan_salt_mean          =   1.1938894671291E-06
(PID.TID 0000.0001) // =======================================================
(PID.TID 0000.0001) // End MONITOR dynamic field statistics
(PID.TID 0000.0001) // =======================================================
 cg2d: Sum(rhs),rhsMax =  -3.06774761647149E+01  5.81990157392201E+01
(PID.TID 0000.0001)      cg2d_init_res =   2.69019761481779E-01
(PID.TID 0000.0001)      cg2d_iters(min,last) =      -1      10
(PID.TID 0000.0001)      cg2d_last_res =   8.66224560717902E-08
(PID.TID 0000.0001) // =======================================================
(PID.TID 0000.0001) // Begin MONITOR dynamic field statistics
(PID.TID 0000.0001) // =======================================================
(PID.TID 0000.0001) %MON time_tsnumber                =                 72030
(PID.TID 0000.0001) %MON time_secondsf                =   6.4827000000000E+07
(PID.TID 0000.0001) %MON dynstat_eta_max              =   2.2762456638503E+00
(PID.TID 0000.0001) %MON dynstat_eta_min              =  -3.2768070328523E+00
(PID.TID 0000.0001) %MON dynstat_eta_mean             =   2.0746098737356E-02
(PID.TID 0000.0001) %MON dynstat_eta_sd               =   6.2145694082326E-01
(PID.TID 0000.0001) %MON dynstat_eta_del2             =   2.9685428545807E-03
(PID.TID 0000.0001) %MON dynstat_uvel_max             =   3.7968297548440E-01
(PID.TID 0000.0001) %MON dynstat_uvel_min             =  -8.4431562358738E-01
(PID.TID 0000.0001) %MON dynstat_uvel_mean            =  -1.0090126229043E-04
(PID.TID 0000.0001) %MON dynstat_uvel_sd              =   1.2802469933901E-02
(PID.TID 0000.0001) %MON dynstat_uvel_del2            =   8.4267651749704E-05
(PID.TID 0000.0001) %MON dynstat_vvel_max             =   8.2760652739063E-01
(PID.TID 0000.0001) %MON dynstat_vvel_min             =  -1.0391667622696E+00
(PID.TID 0000.0001) %MON dynstat_vvel_mean            =  -4.5636743949858E-04
(PID.TID 0000.0001) %MON dynstat_vvel_sd              =   1.4033321184213E-02
(PID.TID 0000.0001) %MON dynstat_vvel_del2            =   1.2342220553187E-04
(PID.TID 0000.0001) %MON dynstat_wvel_max             =   1.8159943886975E-04
(PID.TID 0000.0001) %MON dynstat_wvel_min             =  -3.4009646084343E-04
(PID.TID 0000.0001) %MON dynstat_wvel_mean            =  -1.3018989808106E-07
(PID.TID 0000.0001) %MON dynstat_wvel_sd              =   8.4817575792381E-06
(PID.TID 0000.0001) %MON dynstat_wvel_del2            =   7.4867200067206E-08
(PID.TID 0000.0001) %MON dynstat_theta_max            =   3.0931260354304E+01
(PID.TID 0000.0001) %MON dynstat_theta_min            =  -3.0058657908794E+00
(PID.TID 0000.0001) %MON dynstat_theta_mean           =   3.9091770902981E+00
(PID.TID 0000.0001) %MON dynstat_theta_sd             =   4.5714705482172E+00
(PID.TID 0000.0001) %MON dynstat_theta_del2           =   2.6478799035320E-03
(PID.TID 0000.0001) %MON dynstat_salt_max             =   4.1357568342108E+01
(PID.TID 0000.0001) %MON dynstat_salt_min             =   1.8518669223284E+01
(PID.TID 0000.0001) %MON dynstat_salt_mean            =   3.4772039404354E+01
(PID.TID 0000.0001) %MON dynstat_salt_sd              =   5.3143531794673E-01
(PID.TID 0000.0001) %MON dynstat_salt_del2            =   9.2698934034237E-04
(PID.TID 0000.0001) %MON dynstat_sst_max              =   3.0931260354304E+01
(PID.TID 0000.0001) %MON dynstat_sst_min              =  -1.9005812781269E+00
(PID.TID 0000.0001) %MON dynstat_sst_mean             =   1.8112141475305E+01
(PID.TID 0000.0001) %MON dynstat_sst_sd               =   9.8072777498634E+00
(PID.TID 0000.0001) %MON dynstat_sst_del2             =   1.5166291842409E-02
(PID.TID 0000.0001) %MON dynstat_sss_max              =   4.1357568342108E+01
(PID.TID 0000.0001) %MON dynstat_sss_min              =   1.8751393823604E+01
(PID.TID 0000.0001) %MON dynstat_sss_mean             =   3.4630566641605E+01
(PID.TID 0000.0001) %MON dynstat_sss_sd               =   1.4694536847573E+00
(PID.TID 0000.0001) %MON dynstat_sss_del2             =   9.9038166802740E-03
(PID.TID 0000.0001) %MON forcing_qnet_max             =   5.3196152343750E+03
(PID.TID 0000.0001) %MON forcing_qnet_min             =  -4.6994531250000E+03
(PID.TID 0000.0001) %MON forcing_qnet_mean            =  -2.4035559626513E+01
(PID.TID 0000.0001) %MON forcing_qnet_sd              =   2.8178145991678E+02
(PID.TID 0000.0001) %MON forcing_qnet_del2            =   7.9668190741646E+00
(PID.TID 0000.0001) %MON forcing_qsw_max              =   0.0000000000000E+00
(PID.TID 0000.0001) %MON forcing_qsw_min              =  -4.0062103954118E+02
(PID.TID 0000.0001) %MON forcing_qsw_mean             =  -6.3654230021556E+01
(PID.TID 0000.0001) %MON forcing_qsw_sd               =   9.7718847514046E+01
(PID.TID 0000.0001) %MON forcing_qsw_del2             =   1.0631940152606E+00
(PID.TID 0000.0001) %MON forcing_empmr_max            =   8.2149896770716E-03
(PID.TID 0000.0001) %MON forcing_empmr_min            =  -1.1807961016893E-01
(PID.TID 0000.0001) %MON forcing_empmr_mean           =  -3.7503672047584E-04
(PID.TID 0000.0001) %MON forcing_empmr_sd             =   5.5715481117326E-03
(PID.TID 0000.0001) %MON forcing_empmr_del2           =   2.2143105976695E-04
(PID.TID 0000.0001) %MON forcing_fu_max               =   4.4170527097609E-01
(PID.TID 0000.0001) %MON forcing_fu_min               =  -3.7239718899275E-01
(PID.TID 0000.0001) %MON forcing_fu_mean              =  -3.0131206275263E-03
(PID.TID 0000.0001) %MON forcing_fu_sd                =   6.5684839230430E-02
(PID.TID 0000.0001) %MON forcing_fu_del2              =   6.4230043149225E-04
(PID.TID 0000.0001) %MON forcing_fv_max               =   3.1874354503678E-01
(PID.TID 0000.0001) %MON forcing_fv_min               =  -2.9717984871470E-01
(PID.TID 0000.0001) %MON forcing_fv_mean              =  -1.2368650434932E-02
(PID.TID 0000.0001) %MON forcing_fv_sd                =   6.5594917941227E-02
(PID.TID 0000.0001) %MON forcing_fv_del2              =   5.7420915858925E-04
(PID.TID 0000.0001) %MON trAdv_CFL_u_max              =   2.4876403297801E-03
(PID.TID 0000.0001) %MON trAdv_CFL_v_max              =   5.0355683037796E-03
(PID.TID 0000.0001) %MON trAdv_CFL_w_max              =   1.9554731314006E-03
(PID.TID 0000.0001) %MON advcfl_uvel_max              =   2.4850210235208E-03
(PID.TID 0000.0001) %MON advcfl_vvel_max              =   3.3911802023999E-03
(PID.TID 0000.0001) %MON advcfl_wvel_max              =   4.1071168754412E-03
(PID.TID 0000.0001) %MON advcfl_W_hf_max              =   2.1369451537127E-03
(PID.TID 0000.0001) %MON pe_b_mean                    =   5.1507191384539E-04
(PID.TID 0000.0001) %MON ke_max                       =   4.1058489690533E-01
(PID.TID 0000.0001) %MON ke_mean                      =   1.6676543518230E-04
(PID.TID 0000.0001) %MON ke_vol                       =   1.3398098759226E+18
(PID.TID 0000.0001) %MON vort_r_min                   =  -5.7507499123337E-06
(PID.TID 0000.0001) %MON vort_r_max                   =   2.7316565929748E-06
(PID.TID 0000.0001) %MON vort_a_mean                  =  -2.0549865324846E-05
(PID.TID 0000.0001) %MON vort_a_sd                    =   7.5259499321472E-05
(PID.TID 0000.0001) %MON vort_p_mean                  =  -2.4783332365773E-05
(PID.TID 0000.0001) %MON vort_p_sd                    =   1.2811906913660E-04
(PID.TID 0000.0001) %MON surfExpan_theta_mean         =  -6.9905815978653E-06
(PID.TID 0000.0001) %MON surfExpan_salt_mean          =   1.1560433755208E-06
(PID.TID 0000.0001) // =======================================================
(PID.TID 0000.0001) // End MONITOR dynamic field statistics
(PID.TID 0000.0001) // =======================================================
 cg2d: Sum(rhs),rhsMax =  -3.53278113854366E+01  5.13113504757023E+01
(PID.TID 0000.0001)      cg2d_init_res =   3.12844142906996E-01
(PID.TID 0000.0001)      cg2d_iters(min,last) =      -1      10
(PID.TID 0000.0001)      cg2d_last_res =   9.85252306043543E-08
(PID.TID 0000.0001) // =======================================================
(PID.TID 0000.0001) // Begin MONITOR dynamic field statistics
(PID.TID 0000.0001) // =======================================================
(PID.TID 0000.0001) %MON time_tsnumber                =                 72031
(PID.TID 0000.0001) %MON time_secondsf                =   6.4827900000000E+07
(PID.TID 0000.0001) %MON dynstat_eta_max              =   1.9704749918604E+00
(PID.TID 0000.0001) %MON dynstat_eta_min              =  -2.8888411285356E+00
(PID.TID 0000.0001) %MON dynstat_eta_mean             =   2.1063539494851E-02
(PID.TID 0000.0001) %MON dynstat_eta_sd               =   6.2097617852990E-01
(PID.TID 0000.0001) %MON dynstat_eta_del2             =   2.7898730593567E-03
(PID.TID 0000.0001) %MON dynstat_uvel_max             =   3.6317040089246E-01
(PID.TID 0000.0001) %MON dynstat_uvel_min             =  -8.7923161088774E-01
(PID.TID 0000.0001) %MON dynstat_uvel_mean            =  -1.3415135814743E-04
(PID.TID 0000.0001) %MON dynstat_uvel_sd              =   1.2825569692984E-02
(PID.TID 0000.0001) %MON dynstat_uvel_del2            =   8.4487634539057E-05
(PID.TID 0000.0001) %MON dynstat_vvel_max             =   9.1786442945376E-01
(PID.TID 0000.0001) %MON dynstat_vvel_min             =  -1.0985089318302E+00
(PID.TID 0000.0001) %MON dynstat_vvel_mean            =  -4.5216147772742E-04
(PID.TID 0000.0001) %MON dynstat_vvel_sd              =   1.4045677383706E-02
(PID.TID 0000.0001) %MON dynstat_vvel_del2            =   1.2543802658336E-04
(PID.TID 0000.0001) %MON dynstat_wvel_max             =   1.8593941796903E-04
(PID.TID 0000.0001) %MON dynstat_wvel_min             =  -3.1357296916798E-04
(PID.TID 0000.0001) %MON dynstat_wvel_mean            =  -1.0605744284284E-07
(PID.TID 0000.0001) %MON dynstat_wvel_sd              =   8.4687994872413E-06
(PID.TID 0000.0001) %MON dynstat_wvel_del2            =   7.4514944826511E-08
(PID.TID 0000.0001) %MON dynstat_theta_max            =   3.0931965605093E+01
(PID.TID 0000.0001) %MON dynstat_theta_min            =  -3.0058168796884E+00
(PID.TID 0000.0001) %MON dynstat_theta_mean           =   3.9091803270983E+00
(PID.TID 0000.0001) %MON dynstat_theta_sd             =   4.5714839709572E+00
(PID.TID 0000.0001) %MON dynstat_theta_del2           =   2.6477641676635E-03
(PID.TID 0000.0001) %MON dynstat_salt_max             =   4.1357234482309E+01
(PID.TID 0000.0001) %MON dynstat_salt_min             =   1.8518679455325E+01
(PID.TID 0000.0001) %MON dynstat_salt_mean            =   3.4772035576922E+01
(PID.TID 0000.0001) %MON dynstat_salt_sd              =   5.3145490554605E-01
(PID.TID 0000.0001) %MON dynstat_salt_del2            =   9.3242693183535E-04
(PID.TID 0000.0001) %MON dynstat_sst_max              =   3.0931965605093E+01
(PID.TID 0000.0001) %MON dynstat_sst_min              =  -1.8999146332523E+00
(PID.TID 0000.0001) %MON dynstat_sst_mean             =   1.8112255685949E+01
(PID.TID 0000.0001) %MON dynstat_sst_sd               =   9.8074590235039E+00
(PID.TID 0000.0001) %MON dynstat_sst_del2             =   1.5164154109571E-02
(PID.TID 0000.0001) %MON dynstat_sss_max              =   4.1357234482309E+01
(PID.TID 0000.0001) %MON dynstat_sss_min              =   1.8751397076820E+01
(PID.TID 0000.0001) %MON dynstat_sss_mean             =   3.4630290205872E+01
(PID.TID 0000.0001) %MON dynstat_sss_sd               =   1.4699493405831E+00
(PID.TID 0000.0001) %MON dynstat_sss_del2             =   9.9841246260094E-03
(PID.TID 0000.0001) %MON forcing_qnet_max             =   2.8019598202992E+03
(PID.TID 0000.0001) %MON forcing_qnet_min             =  -2.0872456054688E+03
(PID.TID 0000.0001) %MON forcing_qnet_mean            =  -2.1198315839495E+01
(PID.TID 0000.0001) %MON forcing_qnet_sd              =   2.5570539341876E+02
(PID.TID 0000.0001) %MON forcing_qnet_del2            =   5.6731198997862E+00
(PID.TID 0000.0001) %MON forcing_qsw_max              =   0.0000000000000E+00
(PID.TID 0000.0001) %MON forcing_qsw_min              =  -3.9027612586555E+02
(PID.TID 0000.0001) %MON forcing_qsw_mean             =  -6.2677464345819E+01
(PID.TID 0000.0001) %MON forcing_qsw_sd               =   9.7392974009596E+01
(PID.TID 0000.0001) %MON forcing_qsw_del2             =   1.0508228132311E+00
(PID.TID 0000.0001) %MON forcing_empmr_max            =   8.1302635371685E-03
(PID.TID 0000.0001) %MON forcing_empmr_min            =  -1.1686293035746E-01
(PID.TID 0000.0001) %MON forcing_empmr_mean           =  -3.6505687111990E-04
(PID.TID 0000.0001) %MON forcing_empmr_sd             =   5.4571323375272E-03
(PID.TID 0000.0001) %MON forcing_empmr_del2           =   2.1558283725865E-04
(PID.TID 0000.0001) %MON forcing_fu_max               =   4.2931178612113E-01
(PID.TID 0000.0001) %MON forcing_fu_min               =  -3.6942147088399E-01
(PID.TID 0000.0001) %MON forcing_fu_mean              =  -3.0019648410809E-03
(PID.TID 0000.0001) %MON forcing_fu_sd                =   6.5039858052230E-02
(PID.TID 0000.0001) %MON forcing_fu_del2              =   6.3569328020314E-04
(PID.TID 0000.0001) %MON forcing_fv_max               =   3.1941560390795E-01
(PID.TID 0000.0001) %MON forcing_fv_min               =  -2.9437082499400E-01
(PID.TID 0000.0001) %MON forcing_fv_mean              =  -1.2475170603463E-02
(PID.TID 0000.0001) %MON forcing_fv_sd                =   6.5327216491077E-02
(PID.TID 0000.0001) %MON forcing_fv_del2              =   5.7071935984618E-04
(PID.TID 0000.0001) %MON trAdv_CFL_u_max              =   2.5931241721015E-03
(PID.TID 0000.0001) %MON trAdv_CFL_v_max              =   5.2033130343735E-03
(PID.TID 0000.0001) %MON trAdv_CFL_w_max              =   1.9001216280572E-03
(PID.TID 0000.0001) %MON advcfl_uvel_max              =   2.5877870509096E-03
(PID.TID 0000.0001) %MON advcfl_vvel_max              =   3.5848353479338E-03
(PID.TID 0000.0001) %MON advcfl_wvel_max              =   4.0647975776507E-03
(PID.TID 0000.0001) %MON advcfl_W_hf_max              =   2.2801201283474E-03
(PID.TID 0000.0001) %MON pe_b_mean                    =   5.1429381951976E-04
(PID.TID 0000.0001) %MON ke_max                       =   4.0743630911090E-01
(PID.TID 0000.0001) %MON ke_mean                      =   1.6720022262164E-04
(PID.TID 0000.0001) %MON ke_vol                       =   1.3398099945929E+18
(PID.TID 0000.0001) %MON vort_r_min                   =  -5.7482973990012E-06
(PID.TID 0000.0001) %MON vort_r_max                   =   3.0295682032374E-06
(PID.TID 0000.0001) %MON vort_a_mean                  =  -2.0549865324846E-05
(PID.TID 0000.0001) %MON vort_a_sd                    =   7.5259498915824E-05
(PID.TID 0000.0001) %MON vort_p_mean                  =  -2.4783330320960E-05
(PID.TID 0000.0001) %MON vort_p_sd                    =   1.2811907071969E-04
(PID.TID 0000.0001) %MON surfExpan_theta_mean         =  -6.9482824147106E-06
(PID.TID 0000.0001) %MON surfExpan_salt_mean          =   1.1182088409699E-06
(PID.TID 0000.0001) // =======================================================
(PID.TID 0000.0001) // End MONITOR dynamic field statistics
(PID.TID 0000.0001) // =======================================================
 Computing Diagnostic #     81  oceTAUX      Counter:       1   Parms: UU      U1      
           Vector  Mate for  oceTAUX      Diagnostic #     82  oceTAUY  exists 
 Computing Diagnostic #     82  oceTAUY      Counter:       1   Parms: VV      U1      
           Vector  Mate for  oceTAUY      Diagnostic #     81  oceTAUX  exists 
 Computing Diagnostic #     85  oceFWflx     Counter:       1   Parms: SM      U1      
 Computing Diagnostic #     86  oceSflux     Counter:       1   Parms: SM      U1      
 Computing Diagnostic #     87  oceQnet      Counter:       1   Parms: SM      U1      
 Computing Diagnostic #     88  oceQsw       Counter:       1   Parms: SM      U1      
 Computing Diagnostic #     27  SALT         Counter:       1   Parms: SMR     MR      
 Computing Diagnostic #     26  THETA        Counter:       1   Parms: SMR     MR      
 Computing Diagnostic #     45  UVELMASS     Counter:       1   Parms: UUr     MR      
           Vector  Mate for  UVELMASS     Diagnostic #     46  VVELMASS exists 
 Computing Diagnostic #     46  VVELMASS     Counter:       1   Parms: VVr     MR      
           Vector  Mate for  VVELMASS     Diagnostic #     45  UVELMASS exists 
 cg2d: Sum(rhs),rhsMax =  -4.20681284893840E+01  4.37220798978985E+01
(PID.TID 0000.0001)      cg2d_init_res =   3.73474628081288E-01
(PID.TID 0000.0001)      cg2d_iters(min,last) =      -1      11
(PID.TID 0000.0001)      cg2d_last_res =   3.16311953304204E-08
(PID.TID 0000.0001) // =======================================================
(PID.TID 0000.0001) // Begin MONITOR dynamic field statistics
(PID.TID 0000.0001) // =======================================================
(PID.TID 0000.0001) %MON time_tsnumber                =                 72032
(PID.TID 0000.0001) %MON time_secondsf                =   6.4828800000000E+07
(PID.TID 0000.0001) %MON dynstat_eta_max              =   1.8654613518332E+00
(PID.TID 0000.0001) %MON dynstat_eta_min              =  -2.4615413758918E+00
(PID.TID 0000.0001) %MON dynstat_eta_mean             =   2.1372492753073E-02
(PID.TID 0000.0001) %MON dynstat_eta_sd               =   6.2047539711793E-01
(PID.TID 0000.0001) %MON dynstat_eta_del2             =   2.6166591928766E-03
(PID.TID 0000.0001) %MON dynstat_uvel_max             =   3.4318728870517E-01
(PID.TID 0000.0001) %MON dynstat_uvel_min             =  -9.0878894012771E-01
(PID.TID 0000.0001) %MON dynstat_uvel_mean            =  -1.6930505334057E-04
(PID.TID 0000.0001) %MON dynstat_uvel_sd              =   1.2856242966610E-02
(PID.TID 0000.0001) %MON dynstat_uvel_del2            =   8.4847101343428E-05
(PID.TID 0000.0001) %MON dynstat_vvel_max             =   9.9189661408103E-01
(PID.TID 0000.0001) %MON dynstat_vvel_min             =  -1.1394030581236E+00
(PID.TID 0000.0001) %MON dynstat_vvel_mean            =  -4.4445505538171E-04
(PID.TID 0000.0001) %MON dynstat_vvel_sd              =   1.4044466630093E-02
(PID.TID 0000.0001) %MON dynstat_vvel_del2            =   1.2686308092113E-04
(PID.TID 0000.0001) %MON dynstat_wvel_max             =   1.8924858230292E-04
(PID.TID 0000.0001) %MON dynstat_wvel_min             =  -2.8856515320693E-04
(PID.TID 0000.0001) %MON dynstat_wvel_mean            =  -8.2623150930537E-08
(PID.TID 0000.0001) %MON dynstat_wvel_sd              =   8.4558413623588E-06
(PID.TID 0000.0001) %MON dynstat_wvel_del2            =   7.4330362841126E-08
(PID.TID 0000.0001) %MON dynstat_theta_max            =   3.0932669915983E+01
(PID.TID 0000.0001) %MON dynstat_theta_min            =  -3.0057512180535E+00
(PID.TID 0000.0001) %MON dynstat_theta_mean           =   3.9091833094509E+00
(PID.TID 0000.0001) %MON dynstat_theta_sd             =   4.5714966095073E+00
(PID.TID 0000.0001) %MON dynstat_theta_del2           =   2.6476486139144E-03
(PID.TID 0000.0001) %MON dynstat_salt_max             =   4.1356911253284E+01
(PID.TID 0000.0001) %MON dynstat_salt_min             =   1.8518689736815E+01
(PID.TID 0000.0001) %MON dynstat_salt_mean            =   3.4772031817688E+01
(PID.TID 0000.0001) %MON dynstat_salt_sd              =   5.3147437230814E-01
(PID.TID 0000.0001) %MON dynstat_salt_del2            =   9.3782837959240E-04
(PID.TID 0000.0001) %MON dynstat_sst_max              =   3.0932669915983E+01
(PID.TID 0000.0001) %MON dynstat_sst_min              =  -1.8990975794032E+00
(PID.TID 0000.0001) %MON dynstat_sst_mean             =   1.8112354698344E+01
(PID.TID 0000.0001) %MON dynstat_sst_sd               =   9.8076387558178E+00
(PID.TID 0000.0001) %MON dynstat_sst_del2             =   1.5162006414049E-02
(PID.TID 0000.0001) %MON dynstat_sss_max              =   4.1356911253284E+01
(PID.TID 0000.0001) %MON dynstat_sss_min              =   1.8751402204783E+01
(PID.TID 0000.0001) %MON dynstat_sss_mean             =   3.4630019104327E+01
(PID.TID 0000.0001) %MON dynstat_sss_sd               =   1.4704418570956E+00
(PID.TID 0000.0001) %MON dynstat_sss_del2             =   1.0063715916641E-02
(PID.TID 0000.0001) %MON forcing_qnet_max             =   2.7633260902974E+03
(PID.TID 0000.0001) %MON forcing_qnet_min             =  -1.7422806706916E+03
(PID.TID 0000.0001) %MON forcing_qnet_mean            =  -1.7366107298590E+01
(PID.TID 0000.0001) %MON forcing_qnet_sd              =   2.5235977206592E+02
(PID.TID 0000.0001) %MON forcing_qnet_del2            =   5.3302532406439E+00
(PID.TID 0000.0001) %MON forcing_qsw_max              =   0.0000000000000E+00
(PID.TID 0000.0001) %MON forcing_qsw_min              =  -3.7831491276816E+02
(PID.TID 0000.0001) %MON forcing_qsw_mean             =  -6.1542475312883E+01
(PID.TID 0000.0001) %MON forcing_qsw_sd               =   9.7060615145630E+01
(PID.TID 0000.0001) %MON forcing_qsw_del2             =   1.0360001533697E+00
(PID.TID 0000.0001) %MON forcing_empmr_max            =   8.0465711653233E-03
(PID.TID 0000.0001) %MON forcing_empmr_min            =  -1.1565884202719E-01
(PID.TID 0000.0001) %MON forcing_empmr_mean           =  -3.5529624695582E-04
(PID.TID 0000.0001) %MON forcing_empmr_sd             =   5.3594937792778E-03
(PID.TID 0000.0001) %MON forcing_empmr_del2           =   2.1126993746750E-04
(PID.TID 0000.0001) %MON forcing_fu_max               =   4.2034342717571E-01
(PID.TID 0000.0001) %MON forcing_fu_min               =  -3.6853155294456E-01
(PID.TID 0000.0001) %MON forcing_fu_mean              =  -2.9828607454422E-03
(PID.TID 0000.0001) %MON forcing_fu_sd                =   6.4494223288840E-02
(PID.TID 0000.0001) %MON forcing_fu_del2              =   6.3024506985728E-04
(PID.TID 0000.0001) %MON forcing_fv_max               =   3.2100098394902E-01
(PID.TID 0000.0001) %MON forcing_fv_min               =  -2.9201671466793E-01
(PID.TID 0000.0001) %MON forcing_fv_mean              =  -1.2559971685092E-02
(PID.TID 0000.0001) %MON forcing_fv_sd                =   6.5130910105933E-02
(PID.TID 0000.0001) %MON forcing_fv_del2              =   5.6801681857211E-04
(PID.TID 0000.0001) %MON trAdv_CFL_u_max              =   2.6835165999871E-03
(PID.TID 0000.0001) %MON trAdv_CFL_v_max              =   5.3027241450036E-03
(PID.TID 0000.0001) %MON trAdv_CFL_w_max              =   1.8527459437122E-03
(PID.TID 0000.0001) %MON advcfl_uvel_max              =   2.6747812773676E-03
(PID.TID 0000.0001) %MON advcfl_vvel_max              =   3.7182877989897E-03
(PID.TID 0000.0001) %MON advcfl_wvel_max              =   4.0229162444239E-03
(PID.TID 0000.0001) %MON advcfl_W_hf_max              =   2.4059070052639E-03
(PID.TID 0000.0001) %MON pe_b_mean                    =   5.1348303197038E-04
(PID.TID 0000.0001) %MON ke_max                       =   4.3660643704452E-01
(PID.TID 0000.0001) %MON ke_mean                      =   1.6754804906567E-04
(PID.TID 0000.0001) %MON ke_vol                       =   1.3398101101054E+18
(PID.TID 0000.0001) %MON vort_r_min                   =  -5.7010219455848E-06
(PID.TID 0000.0001) %MON vort_r_max                   =   3.2739240638262E-06
(PID.TID 0000.0001) %MON vort_a_mean                  =  -2.0549865324846E-05
(PID.TID 0000.0001) %MON vort_a_sd                    =   7.5259499390040E-05
(PID.TID 0000.0001) %MON vort_p_mean                  =  -2.4783328364288E-05
(PID.TID 0000.0001) %MON vort_p_sd                    =   1.2811907728652E-04
(PID.TID 0000.0001) %MON surfExpan_theta_mean         =  -6.8908938009622E-06
(PID.TID 0000.0001) %MON surfExpan_salt_mean          =   1.0814038123977E-06
(PID.TID 0000.0001) // =======================================================
(PID.TID 0000.0001) // End MONITOR dynamic field statistics
(PID.TID 0000.0001) // =======================================================
 cg2d: Sum(rhs),rhsMax =  -4.57021145999382E+01  4.08195200053925E+01
(PID.TID 0000.0001)      cg2d_init_res =   4.02942538471754E-01
(PID.TID 0000.0001)      cg2d_iters(min,last) =      -1      11
(PID.TID 0000.0001)      cg2d_last_res =   3.58916341335325E-08
(PID.TID 0000.0001) // =======================================================
(PID.TID 0000.0001) // Begin MONITOR dynamic field statistics
(PID.TID 0000.0001) // =======================================================
(PID.TID 0000.0001) %MON time_tsnumber                =                 72033
(PID.TID 0000.0001) %MON time_secondsf                =   6.4829700000000E+07
(PID.TID 0000.0001) %MON dynstat_eta_max              =   1.8429939006686E+00
(PID.TID 0000.0001) %MON dynstat_eta_min              =  -2.0035390570783E+00
(PID.TID 0000.0001) %MON dynstat_eta_mean             =   2.1677308673867E-02
(PID.TID 0000.0001) %MON dynstat_eta_sd               =   6.1998009409430E-01
(PID.TID 0000.0001) %MON dynstat_eta_del2             =   2.4553517946911E-03
(PID.TID 0000.0001) %MON dynstat_uvel_max             =   3.2001318236861E-01
(PID.TID 0000.0001) %MON dynstat_uvel_min             =  -9.3233781120272E-01
(PID.TID 0000.0001) %MON dynstat_uvel_mean            =  -2.0554518699348E-04
(PID.TID 0000.0001) %MON dynstat_uvel_sd              =   1.2890517964165E-02
(PID.TID 0000.0001) %MON dynstat_uvel_del2            =   8.5263331321353E-05
(PID.TID 0000.0001) %MON dynstat_vvel_max             =   1.0494572472249E+00
(PID.TID 0000.0001) %MON dynstat_vvel_min             =  -1.1616181773189E+00
(PID.TID 0000.0001) %MON dynstat_vvel_mean            =  -4.3282424209661E-04
(PID.TID 0000.0001) %MON dynstat_vvel_sd              =   1.4030153005817E-02
(PID.TID 0000.0001) %MON dynstat_vvel_del2            =   1.2767777904819E-04
(PID.TID 0000.0001) %MON dynstat_wvel_max             =   1.9643295246359E-04
(PID.TID 0000.0001) %MON dynstat_wvel_min             =  -2.6591046696807E-04
(PID.TID 0000.0001) %MON dynstat_wvel_mean            =  -6.1816853013448E-08
(PID.TID 0000.0001) %MON dynstat_wvel_sd              =   8.4363090969697E-06
(PID.TID 0000.0001) %MON dynstat_wvel_del2            =   7.4236788618832E-08
(PID.TID 0000.0001) %MON dynstat_theta_max            =   3.0933342955517E+01
(PID.TID 0000.0001) %MON dynstat_theta_min            =  -3.0056671767391E+00
(PID.TID 0000.0001) %MON dynstat_theta_mean           =   3.9091859687970E+00
(PID.TID 0000.0001) %MON dynstat_theta_sd             =   4.5715080130707E+00
(PID.TID 0000.0001) %MON dynstat_theta_del2           =   2.6475311991578E-03
(PID.TID 0000.0001) %MON dynstat_salt_max             =   4.1356594783282E+01
(PID.TID 0000.0001) %MON dynstat_salt_min             =   1.8518700066982E+01
(PID.TID 0000.0001) %MON dynstat_salt_mean            =   3.4772028119762E+01
(PID.TID 0000.0001) %MON dynstat_salt_sd              =   5.3149370895967E-01
(PID.TID 0000.0001) %MON dynstat_salt_del2            =   9.4318939094789E-04
(PID.TID 0000.0001) %MON dynstat_sst_max              =   3.0933342955517E+01
(PID.TID 0000.0001) %MON dynstat_sst_min              =  -1.8984016736158E+00
(PID.TID 0000.0001) %MON dynstat_sst_mean             =   1.8112432831771E+01
(PID.TID 0000.0001) %MON dynstat_sst_sd               =   9.8078096868186E+00
(PID.TID 0000.0001) %MON dynstat_sst_del2             =   1.5159862217329E-02
(PID.TID 0000.0001) %MON dynstat_sss_max              =   4.1356594783282E+01
(PID.TID 0000.0001) %MON dynstat_sss_min              =   1.8751409218753E+01
(PID.TID 0000.0001) %MON dynstat_sss_mean             =   3.4629752954763E+01
(PID.TID 0000.0001) %MON dynstat_sss_sd               =   1.4709308567183E+00
(PID.TID 0000.0001) %MON dynstat_sss_del2             =   1.0142540348123E-02
(PID.TID 0000.0001) %MON forcing_qnet_max             =   2.7254355701532E+03
(PID.TID 0000.0001) %MON forcing_qnet_min             =  -1.7190236807576E+03
(PID.TID 0000.0001) %MON forcing_qnet_mean            =  -1.2178688363243E+01
(PID.TID 0000.0001) %MON forcing_qnet_sd              =   2.5074108246928E+02
(PID.TID 0000.0001) %MON forcing_qnet_del2            =   5.2469753499255E+00
(PID.TID 0000.0001) %MON forcing_qsw_max              =   0.0000000000000E+00
(PID.TID 0000.0001) %MON forcing_qsw_min              =  -3.9024273895201E+02
(PID.TID 0000.0001) %MON forcing_qsw_mean             =  -5.9383969046105E+01
(PID.TID 0000.0001) %MON forcing_qsw_sd               =   9.7095509519664E+01
(PID.TID 0000.0001) %MON forcing_qsw_del2             =   9.9603920205105E-01
(PID.TID 0000.0001) %MON forcing_empmr_max            =   7.9636173322797E-03
(PID.TID 0000.0001) %MON forcing_empmr_min            =  -1.1446733772755E-01
(PID.TID 0000.0001) %MON forcing_empmr_mean           =  -3.5053830891190E-04
(PID.TID 0000.0001) %MON forcing_empmr_sd             =   5.2881754368700E-03
(PID.TID 0000.0001) %MON forcing_empmr_del2           =   2.0845319110222E-04
(PID.TID 0000.0001) %MON forcing_fu_max               =   4.1043468872366E-01
(PID.TID 0000.0001) %MON forcing_fu_min               =  -3.6829722022793E-01
(PID.TID 0000.0001) %MON forcing_fu_mean              =  -2.9676185567285E-03
(PID.TID 0000.0001) %MON forcing_fu_sd                =   6.3920710693346E-02
(PID.TID 0000.0001) %MON forcing_fu_del2              =   6.2429264407479E-04
(PID.TID 0000.0001) %MON forcing_fv_max               =   3.2212033538940E-01
(PID.TID 0000.0001) %MON forcing_fv_min               =  -2.8984243464209E-01
(PID.TID 0000.0001) %MON forcing_fv_mean              =  -1.2671889777167E-02
(PID.TID 0000.0001) %MON forcing_fv_sd                =   6.4918420206104E-02
(PID.TID 0000.0001) %MON forcing_fv_del2              =   5.6553483374139E-04
(PID.TID 0000.0001) %MON trAdv_CFL_u_max              =   2.7568663871717E-03
(PID.TID 0000.0001) %MON trAdv_CFL_v_max              =   5.3338530385443E-03
(PID.TID 0000.0001) %MON trAdv_CFL_w_max              =   1.8043039660151E-03
(PID.TID 0000.0001) %MON advcfl_uvel_max              =   2.7440911871534E-03
(PID.TID 0000.0001) %MON advcfl_vvel_max              =   3.7907838363383E-03
(PID.TID 0000.0001) %MON advcfl_wvel_max              =   3.9814726166103E-03
(PID.TID 0000.0001) %MON advcfl_W_hf_max              =   2.5131139054035E-03
(PID.TID 0000.0001) %MON pe_b_mean                    =   5.1268197867072E-04
(PID.TID 0000.0001) %MON ke_max                       =   4.8122613477992E-01
(PID.TID 0000.0001) %MON ke_mean                      =   1.6776852835834E-04
(PID.TID 0000.0001) %MON ke_vol                       =   1.3398102225294E+18
(PID.TID 0000.0001) %MON vort_r_min                   =  -5.6086803333345E-06
(PID.TID 0000.0001) %MON vort_r_max                   =   3.4639127575101E-06
(PID.TID 0000.0001) %MON vort_a_mean                  =  -2.0549865324846E-05
(PID.TID 0000.0001) %MON vort_a_sd                    =   7.5259500878546E-05
(PID.TID 0000.0001) %MON vort_p_mean                  =  -2.4783326491830E-05
(PID.TID 0000.0001) %MON vort_p_sd                    =   1.2811908843937E-04
(PID.TID 0000.0001) %MON surfExpan_theta_mean         =  -6.8524260491515E-06
(PID.TID 0000.0001) %MON surfExpan_salt_mean          =   1.0480784273579E-06
(PID.TID 0000.0001) // =======================================================
(PID.TID 0000.0001) // End MONITOR dynamic field statistics
(PID.TID 0000.0001) // =======================================================
 cg2d: Sum(rhs),rhsMax =  -4.51665173215758E+01  4.18758828501285E+01
(PID.TID 0000.0001)      cg2d_init_res =   3.92443042718792E-01
(PID.TID 0000.0001)      cg2d_iters(min,last) =      -1      11
(PID.TID 0000.0001)      cg2d_last_res =   3.58837442985021E-08
(PID.TID 0000.0001) // =======================================================
(PID.TID 0000.0001) // Begin MONITOR dynamic field statistics
(PID.TID 0000.0001) // =======================================================
(PID.TID 0000.0001) %MON time_tsnumber                =                 72034
(PID.TID 0000.0001) %MON time_secondsf                =   6.4830600000000E+07
(PID.TID 0000.0001) %MON dynstat_eta_max              =   1.8712951163519E+00
(PID.TID 0000.0001) %MON dynstat_eta_min              =  -1.6078522644201E+00
(PID.TID 0000.0001) %MON dynstat_eta_mean             =   2.1977675355237E-02
(PID.TID 0000.0001) %MON dynstat_eta_sd               =   6.1951156622864E-01
(PID.TID 0000.0001) %MON dynstat_eta_del2             =   2.3119546644026E-03
(PID.TID 0000.0001) %MON dynstat_uvel_max             =   2.9397683211036E-01
(PID.TID 0000.0001) %MON dynstat_uvel_min             =  -9.4930792149369E-01
(PID.TID 0000.0001) %MON dynstat_uvel_mean            =  -2.4206376854202E-04
(PID.TID 0000.0001) %MON dynstat_uvel_sd              =   1.2924878055066E-02
(PID.TID 0000.0001) %MON dynstat_uvel_del2            =   8.5673149740409E-05
(PID.TID 0000.0001) %MON dynstat_vvel_max             =   1.0905796994049E+00
(PID.TID 0000.0001) %MON dynstat_vvel_min             =  -1.1652850656315E+00
(PID.TID 0000.0001) %MON dynstat_vvel_mean            =  -4.1695595982386E-04
(PID.TID 0000.0001) %MON dynstat_vvel_sd              =   1.4004192944662E-02
(PID.TID 0000.0001) %MON dynstat_vvel_del2            =   1.2787583130971E-04
(PID.TID 0000.0001) %MON dynstat_wvel_max             =   2.0420409283858E-04
(PID.TID 0000.0001) %MON dynstat_wvel_min             =  -2.4606563252352E-04
(PID.TID 0000.0001) %MON dynstat_wvel_mean            =  -4.2916816608091E-08
(PID.TID 0000.0001) %MON dynstat_wvel_sd              =   8.4057914942381E-06
(PID.TID 0000.0001) %MON dynstat_wvel_del2            =   7.4158264340790E-08
(PID.TID 0000.0001) %MON dynstat_theta_max            =   3.0934007755653E+01
(PID.TID 0000.0001) %MON dynstat_theta_min            =  -3.0055650708097E+00
(PID.TID 0000.0001) %MON dynstat_theta_mean           =   3.9091884320183E+00
(PID.TID 0000.0001) %MON dynstat_theta_sd             =   4.5715186947994E+00
(PID.TID 0000.0001) %MON dynstat_theta_del2           =   2.6474135016217E-03
(PID.TID 0000.0001) %MON dynstat_salt_max             =   4.1356281915700E+01
(PID.TID 0000.0001) %MON dynstat_salt_min             =   1.8518710439711E+01
(PID.TID 0000.0001) %MON dynstat_salt_mean            =   3.4772024492044E+01
(PID.TID 0000.0001) %MON dynstat_salt_sd              =   5.3151292781277E-01
(PID.TID 0000.0001) %MON dynstat_salt_del2            =   9.4850621246144E-04
(PID.TID 0000.0001) %MON dynstat_sst_max              =   3.0934007755653E+01
(PID.TID 0000.0001) %MON dynstat_sst_min              =  -1.8982761531556E+00
(PID.TID 0000.0001) %MON dynstat_sst_mean             =   1.8112499916126E+01
(PID.TID 0000.0001) %MON dynstat_sst_sd               =   9.8079756025235E+00
(PID.TID 0000.0001) %MON dynstat_sst_del2             =   1.5157732950252E-02
(PID.TID 0000.0001) %MON dynstat_sss_max              =   4.1356281915700E+01
(PID.TID 0000.0001) %MON dynstat_sss_min              =   1.8751418632215E+01
(PID.TID 0000.0001) %MON dynstat_sss_mean             =   3.4629492454875E+01
(PID.TID 0000.0001) %MON dynstat_sss_sd               =   1.4714167275247E+00
(PID.TID 0000.0001) %MON dynstat_sss_del2             =   1.0220547711361E-02
(PID.TID 0000.0001) %MON forcing_qnet_max             =   2.6878311086877E+03
(PID.TID 0000.0001) %MON forcing_qnet_min             =  -1.6965902772068E+03
(PID.TID 0000.0001) %MON forcing_qnet_mean            =  -9.3598977750887E+00
(PID.TID 0000.0001) %MON forcing_qnet_sd              =   2.4930530545756E+02
(PID.TID 0000.0001) %MON forcing_qnet_del2            =   5.1221260822048E+00
(PID.TID 0000.0001) %MON forcing_qsw_max              =   0.0000000000000E+00
(PID.TID 0000.0001) %MON forcing_qsw_min              =  -3.9443280212816E+02
(PID.TID 0000.0001) %MON forcing_qsw_mean             =  -5.8627781093781E+01
(PID.TID 0000.0001) %MON forcing_qsw_sd               =   9.7475667326797E+01
(PID.TID 0000.0001) %MON forcing_qsw_del2             =   9.8314141394306E-01
(PID.TID 0000.0001) %MON forcing_empmr_max            =   7.8814504668117E-03
(PID.TID 0000.0001) %MON forcing_empmr_min            =  -1.1328842490911E-01
(PID.TID 0000.0001) %MON forcing_empmr_mean           =  -3.4542168357641E-04
(PID.TID 0000.0001) %MON forcing_empmr_sd             =   5.2090194409626E-03
(PID.TID 0000.0001) %MON forcing_empmr_del2           =   2.0536656018983E-04
(PID.TID 0000.0001) %MON forcing_fu_max               =   4.0414764967252E-01
(PID.TID 0000.0001) %MON forcing_fu_min               =  -3.6863321337491E-01
(PID.TID 0000.0001) %MON forcing_fu_mean              =  -2.9277024209420E-03
(PID.TID 0000.0001) %MON forcing_fu_sd                =   6.3412409415572E-02
(PID.TID 0000.0001) %MON forcing_fu_del2              =   6.1951892461306E-04
(PID.TID 0000.0001) %MON forcing_fv_max               =   3.2047513792847E-01
(PID.TID 0000.0001) %MON forcing_fv_min               =  -2.8680771130929E-01
(PID.TID 0000.0001) %MON forcing_fv_mean              =  -1.2829688303206E-02
(PID.TID 0000.0001) %MON forcing_fv_sd                =   6.4639652887953E-02
(PID.TID 0000.0001) %MON forcing_fv_del2              =   5.6240328143181E-04
(PID.TID 0000.0001) %MON trAdv_CFL_u_max              =   2.8114149825564E-03
(PID.TID 0000.0001) %MON trAdv_CFL_v_max              =   5.2977824872649E-03
(PID.TID 0000.0001) %MON trAdv_CFL_w_max              =   1.8202247143213E-03
(PID.TID 0000.0001) %MON advcfl_uvel_max              =   2.7940382444699E-03
(PID.TID 0000.0001) %MON advcfl_vvel_max              =   3.8027502304740E-03
(PID.TID 0000.0001) %MON advcfl_wvel_max              =   3.9404669533605E-03
(PID.TID 0000.0001) %MON advcfl_W_hf_max              =   2.6003210204590E-03
(PID.TID 0000.0001) %MON pe_b_mean                    =   5.1192576077739E-04
(PID.TID 0000.0001) %MON ke_max                       =   5.1156238853603E-01
(PID.TID 0000.0001) %MON ke_mean                      =   1.6783961494235E-04
(PID.TID 0000.0001) %MON ke_vol                       =   1.3398103334479E+18
(PID.TID 0000.0001) %MON vort_r_min                   =  -5.4716646320421E-06
(PID.TID 0000.0001) %MON vort_r_max                   =   3.5996444293844E-06
(PID.TID 0000.0001) %MON vort_a_mean                  =  -2.0549865324846E-05
(PID.TID 0000.0001) %MON vort_a_sd                    =   7.5259503486322E-05
(PID.TID 0000.0001) %MON vort_p_mean                  =  -2.4783324668419E-05
(PID.TID 0000.0001) %MON vort_p_sd                    =   1.2811910315862E-04
(PID.TID 0000.0001) %MON surfExpan_theta_mean         =  -6.7858450849086E-06
(PID.TID 0000.0001) %MON surfExpan_salt_mean          =   1.0181956127673E-06
(PID.TID 0000.0001) // =======================================================
(PID.TID 0000.0001) // End MONITOR dynamic field statistics
(PID.TID 0000.0001) // =======================================================
 cg2d: Sum(rhs),rhsMax =  -4.26355393224978E+01  4.49607091918923E+01
(PID.TID 0000.0001)      cg2d_init_res =   3.62599277900455E-01
(PID.TID 0000.0001)      cg2d_iters(min,last) =      -1      11
(PID.TID 0000.0001)      cg2d_last_res =   3.29878354723151E-08
(PID.TID 0000.0001) // =======================================================
(PID.TID 0000.0001) // Begin MONITOR dynamic field statistics
(PID.TID 0000.0001) // =======================================================
(PID.TID 0000.0001) %MON time_tsnumber                =                 72035
(PID.TID 0000.0001) %MON time_secondsf                =   6.4831500000000E+07
(PID.TID 0000.0001) %MON dynstat_eta_max              =   2.0081733728923E+00
(PID.TID 0000.0001) %MON dynstat_eta_min              =  -1.6078123120329E+00
(PID.TID 0000.0001) %MON dynstat_eta_mean             =   2.2274403736501E-02
(PID.TID 0000.0001) %MON dynstat_eta_sd               =   6.1908669480733E-01
(PID.TID 0000.0001) %MON dynstat_eta_del2             =   2.1921447892241E-03
(PID.TID 0000.0001) %MON dynstat_uvel_max             =   2.8534426789476E-01
(PID.TID 0000.0001) %MON dynstat_uvel_min             =  -9.5921990642377E-01
(PID.TID 0000.0001) %MON dynstat_uvel_mean            =  -2.7811316468517E-04
(PID.TID 0000.0001) %MON dynstat_uvel_sd              =   1.2956261536184E-02
(PID.TID 0000.0001) %MON dynstat_uvel_del2            =   8.6031567715308E-05
(PID.TID 0000.0001) %MON dynstat_vvel_max             =   1.1155568791413E+00
(PID.TID 0000.0001) %MON dynstat_vvel_min             =  -1.1508795359369E+00
(PID.TID 0000.0001) %MON dynstat_vvel_mean            =  -3.9664292370468E-04
(PID.TID 0000.0001) %MON dynstat_vvel_sd              =   1.3968776951804E-02
(PID.TID 0000.0001) %MON dynstat_vvel_del2            =   1.2745860911996E-04
(PID.TID 0000.0001) %MON dynstat_wvel_max             =   2.0901524573869E-04
(PID.TID 0000.0001) %MON dynstat_wvel_min             =  -2.2916506365393E-04
(PID.TID 0000.0001) %MON dynstat_wvel_mean            =  -2.7810937231073E-08
(PID.TID 0000.0001) %MON dynstat_wvel_sd              =   8.3646099202577E-06
(PID.TID 0000.0001) %MON dynstat_wvel_del2            =   7.4105403367444E-08
(PID.TID 0000.0001) %MON dynstat_theta_max            =   3.0934660612003E+01
(PID.TID 0000.0001) %MON dynstat_theta_min            =  -3.0054466498441E+00
(PID.TID 0000.0001) %MON dynstat_theta_mean           =   3.9091906884393E+00
(PID.TID 0000.0001) %MON dynstat_theta_sd             =   4.5715285888520E+00
(PID.TID 0000.0001) %MON dynstat_theta_del2           =   2.6472970530730E-03
(PID.TID 0000.0001) %MON dynstat_salt_max             =   4.1355970655593E+01
(PID.TID 0000.0001) %MON dynstat_salt_min             =   1.8518720845463E+01
(PID.TID 0000.0001) %MON dynstat_salt_mean            =   3.4772020923061E+01
(PID.TID 0000.0001) %MON dynstat_salt_sd              =   5.3153200225515E-01
(PID.TID 0000.0001) %MON dynstat_salt_del2            =   9.5377518644747E-04
(PID.TID 0000.0001) %MON dynstat_sst_max              =   3.0934660612003E+01
(PID.TID 0000.0001) %MON dynstat_sst_min              =  -1.8982324496906E+00
(PID.TID 0000.0001) %MON dynstat_sst_mean             =   1.8112554406531E+01
(PID.TID 0000.0001) %MON dynstat_sst_sd               =   9.8081356180787E+00
(PID.TID 0000.0001) %MON dynstat_sst_del2             =   1.5155645813596E-02
(PID.TID 0000.0001) %MON dynstat_sss_max              =   4.1355970655593E+01
(PID.TID 0000.0001) %MON dynstat_sss_min              =   1.8751430714065E+01
(PID.TID 0000.0001) %MON dynstat_sss_mean             =   3.4629236790349E+01
(PID.TID 0000.0001) %MON dynstat_sss_sd               =   1.4718986317496E+00
(PID.TID 0000.0001) %MON dynstat_sss_del2             =   1.0297690860089E-02
(PID.TID 0000.0001) %MON forcing_qnet_max             =   2.6507341197927E+03
(PID.TID 0000.0001) %MON forcing_qnet_min             =  -1.6729763611560E+03
(PID.TID 0000.0001) %MON forcing_qnet_mean            =  -6.2075551741016E+00
(PID.TID 0000.0001) %MON forcing_qnet_sd              =   2.4883720067261E+02
(PID.TID 0000.0001) %MON forcing_qnet_del2            =   5.0495269043759E+00
(PID.TID 0000.0001) %MON forcing_qsw_max              =   0.0000000000000E+00
(PID.TID 0000.0001) %MON forcing_qsw_min              =  -3.9903736559885E+02
(PID.TID 0000.0001) %MON forcing_qsw_mean             =  -5.7738949367531E+01
(PID.TID 0000.0001) %MON forcing_qsw_sd               =   9.7751326705576E+01
(PID.TID 0000.0001) %MON forcing_qsw_del2             =   9.6869505567679E-01
(PID.TID 0000.0001) %MON forcing_empmr_max            =   7.8002670779824E-03
(PID.TID 0000.0001) %MON forcing_empmr_min            =  -1.1212125420570E-01
(PID.TID 0000.0001) %MON forcing_empmr_mean           =  -3.4123763845301E-04
(PID.TID 0000.0001) %MON forcing_empmr_sd             =   5.1318661195944E-03
(PID.TID 0000.0001) %MON forcing_empmr_del2           =   2.0235804974764E-04
(PID.TID 0000.0001) %MON forcing_fu_max               =   4.0105646615139E-01
(PID.TID 0000.0001) %MON forcing_fu_min               =  -3.6802383170330E-01
(PID.TID 0000.0001) %MON forcing_fu_mean              =  -2.8644700323235E-03
(PID.TID 0000.0001) %MON forcing_fu_sd                =   6.3036963119219E-02
(PID.TID 0000.0001) %MON forcing_fu_del2              =   6.1648322527538E-04
(PID.TID 0000.0001) %MON forcing_fv_max               =   3.1848618832101E-01
(PID.TID 0000.0001) %MON forcing_fv_min               =  -2.8242562048473E-01
(PID.TID 0000.0001) %MON forcing_fv_mean              =  -1.2998449880103E-02
(PID.TID 0000.0001) %MON forcing_fv_sd                =   6.4368976680263E-02
(PID.TID 0000.0001) %MON forcing_fv_del2              =   5.5910530758032E-04
(PID.TID 0000.0001) %MON trAdv_CFL_u_max              =   2.9788474326646E-03
(PID.TID 0000.0001) %MON trAdv_CFL_v_max              =   5.1966052533324E-03
(PID.TID 0000.0001) %MON trAdv_CFL_w_max              =   1.8663608067734E-03
(PID.TID 0000.0001) %MON advcfl_uvel_max              =   2.9654266866185E-03
(PID.TID 0000.0001) %MON advcfl_vvel_max              =   3.7557397323720E-03
(PID.TID 0000.0001) %MON advcfl_wvel_max              =   3.8998697115027E-03
(PID.TID 0000.0001) %MON advcfl_W_hf_max              =   2.6662297239620E-03
(PID.TID 0000.0001) %MON pe_b_mean                    =   5.1124216021855E-04
(PID.TID 0000.0001) %MON ke_max                       =   5.2548336211942E-01
(PID.TID 0000.0001) %MON ke_mean                      =   1.6775404556776E-04
(PID.TID 0000.0001) %MON ke_vol                       =   1.3398104427473E+18
(PID.TID 0000.0001) %MON vort_r_min                   =  -5.2909964308121E-06
(PID.TID 0000.0001) %MON vort_r_max                   =   3.6820858740113E-06
(PID.TID 0000.0001) %MON vort_a_mean                  =  -2.0549865324846E-05
(PID.TID 0000.0001) %MON vort_a_sd                    =   7.5259507284122E-05
(PID.TID 0000.0001) %MON vort_p_mean                  =  -2.4783322891960E-05
(PID.TID 0000.0001) %MON vort_p_sd                    =   1.2811912034164E-04
(PID.TID 0000.0001) %MON surfExpan_theta_mean         =  -6.7299722028239E-06
(PID.TID 0000.0001) %MON surfExpan_salt_mean          =   9.9196317685882E-07
(PID.TID 0000.0001) // =======================================================
(PID.TID 0000.0001) // End MONITOR dynamic field statistics
(PID.TID 0000.0001) // =======================================================
 Computing Diagnostic #     81  oceTAUX      Counter:       1   Parms: UU      U1      
           Vector  Mate for  oceTAUX      Diagnostic #     82  oceTAUY  exists 
 Computing Diagnostic #     82  oceTAUY      Counter:       1   Parms: VV      U1      
           Vector  Mate for  oceTAUY      Diagnostic #     81  oceTAUX  exists 
 Computing Diagnostic #     85  oceFWflx     Counter:       1   Parms: SM      U1      
 Computing Diagnostic #     86  oceSflux     Counter:       1   Parms: SM      U1      
 Computing Diagnostic #     87  oceQnet      Counter:       1   Parms: SM      U1      
 Computing Diagnostic #     88  oceQsw       Counter:       1   Parms: SM      U1      
 Computing Diagnostic #     27  SALT         Counter:       1   Parms: SMR     MR      
 Computing Diagnostic #     26  THETA        Counter:       1   Parms: SMR     MR      
 Computing Diagnostic #     45  UVELMASS     Counter:       1   Parms: UUr     MR      
           Vector  Mate for  UVELMASS     Diagnostic #     46  VVELMASS exists 
 Computing Diagnostic #     46  VVELMASS     Counter:       1   Parms: VVr     MR      
           Vector  Mate for  VVELMASS     Diagnostic #     45  UVELMASS exists 
 cg2d: Sum(rhs),rhsMax =  -4.04681572067752E+01  4.79902685774710E+01
(PID.TID 0000.0001)      cg2d_init_res =   3.35129677804637E-01
(PID.TID 0000.0001)      cg2d_iters(min,last) =      -1      11
(PID.TID 0000.0001)      cg2d_last_res =   2.94159659438886E-08
(PID.TID 0000.0001) // =======================================================
(PID.TID 0000.0001) // Begin MONITOR dynamic field statistics
(PID.TID 0000.0001) // =======================================================
(PID.TID 0000.0001) %MON time_tsnumber                =                 72036
(PID.TID 0000.0001) %MON time_secondsf                =   6.4832400000000E+07
(PID.TID 0000.0001) %MON dynstat_eta_max              =   2.1425688854740E+00
(PID.TID 0000.0001) %MON dynstat_eta_min              =  -1.6079024123079E+00
(PID.TID 0000.0001) %MON dynstat_eta_mean             =   2.2566685797088E-02
(PID.TID 0000.0001) %MON dynstat_eta_sd               =   6.1871528408664E-01
(PID.TID 0000.0001) %MON dynstat_eta_del2             =   2.1007303796252E-03
(PID.TID 0000.0001) %MON dynstat_uvel_max             =   2.9685424116131E-01
(PID.TID 0000.0001) %MON dynstat_uvel_min             =  -9.6169562399500E-01
(PID.TID 0000.0001) %MON dynstat_uvel_mean            =  -3.1302508316234E-04
(PID.TID 0000.0001) %MON dynstat_uvel_sd              =   1.2982115693391E-02
(PID.TID 0000.0001) %MON dynstat_uvel_del2            =   8.6309864383495E-05
(PID.TID 0000.0001) %MON dynstat_vvel_max             =   1.1249187396131E+00
(PID.TID 0000.0001) %MON dynstat_vvel_min             =  -1.1191948365228E+00
(PID.TID 0000.0001) %MON dynstat_vvel_mean            =  -3.7180370041975E-04
(PID.TID 0000.0001) %MON dynstat_vvel_sd              =   1.3926551479138E-02
(PID.TID 0000.0001) %MON dynstat_vvel_del2            =   1.2643295745501E-04
(PID.TID 0000.0001) %MON dynstat_wvel_max             =   2.1128975864240E-04
(PID.TID 0000.0001) %MON dynstat_wvel_min             =  -2.1509706143491E-04
(PID.TID 0000.0001) %MON dynstat_wvel_mean            =  -1.6333520274797E-08
(PID.TID 0000.0001) %MON dynstat_wvel_sd              =   8.3148066448141E-06
(PID.TID 0000.0001) %MON dynstat_wvel_del2            =   7.4066027397685E-08
(PID.TID 0000.0001) %MON dynstat_theta_max            =   3.0935296715960E+01
(PID.TID 0000.0001) %MON dynstat_theta_min            =  -3.0053146630801E+00
(PID.TID 0000.0001) %MON dynstat_theta_mean           =   3.9091927797491E+00
(PID.TID 0000.0001) %MON dynstat_theta_sd             =   4.5715378594947E+00
(PID.TID 0000.0001) %MON dynstat_theta_del2           =   2.6471770751033E-03
(PID.TID 0000.0001) %MON dynstat_salt_max             =   4.1355658719540E+01
(PID.TID 0000.0001) %MON dynstat_salt_min             =   1.8518731286210E+01
(PID.TID 0000.0001) %MON dynstat_salt_mean            =   3.4772017437048E+01
(PID.TID 0000.0001) %MON dynstat_salt_sd              =   5.3155097134195E-01
(PID.TID 0000.0001) %MON dynstat_salt_del2            =   9.5899173627020E-04
(PID.TID 0000.0001) %MON dynstat_sst_max              =   3.0935296715960E+01
(PID.TID 0000.0001) %MON dynstat_sst_min              =  -1.8981955848099E+00
(PID.TID 0000.0001) %MON dynstat_sst_mean             =   1.8112603658302E+01
(PID.TID 0000.0001) %MON dynstat_sst_sd               =   9.8082913364888E+00
(PID.TID 0000.0001) %MON dynstat_sst_del2             =   1.5153457534035E-02
(PID.TID 0000.0001) %MON dynstat_sss_max              =   4.1355658719540E+01
(PID.TID 0000.0001) %MON dynstat_sss_min              =   1.8751445620504E+01
(PID.TID 0000.0001) %MON dynstat_sss_mean             =   3.4628988969553E+01
(PID.TID 0000.0001) %MON dynstat_sss_sd               =   1.4723795857182E+00
(PID.TID 0000.0001) %MON dynstat_sss_del2             =   1.0373903303435E-02
(PID.TID 0000.0001) %MON forcing_qnet_max             =   2.6167645611758E+03
(PID.TID 0000.0001) %MON forcing_qnet_min             =  -1.6496292410618E+03
(PID.TID 0000.0001) %MON forcing_qnet_mean            =  -3.9053933053410E+00
(PID.TID 0000.0001) %MON forcing_qnet_sd              =   2.4624187529131E+02
(PID.TID 0000.0001) %MON forcing_qnet_del2            =   5.1163854595200E+00
(PID.TID 0000.0001) %MON forcing_qsw_max              =   0.0000000000000E+00
(PID.TID 0000.0001) %MON forcing_qsw_min              =  -4.0342498415883E+02
(PID.TID 0000.0001) %MON forcing_qsw_mean             =  -5.6725869165526E+01
(PID.TID 0000.0001) %MON forcing_qsw_sd               =   9.7912314556421E+01
(PID.TID 0000.0001) %MON forcing_qsw_del2             =   9.5289220259287E-01
(PID.TID 0000.0001) %MON forcing_empmr_max            =   7.7197728678584E-03
(PID.TID 0000.0001) %MON forcing_empmr_min            =  -1.1096583306789E-01
(PID.TID 0000.0001) %MON forcing_empmr_mean           =  -3.3612436967541E-04
(PID.TID 0000.0001) %MON forcing_empmr_sd             =   5.0437191180984E-03
(PID.TID 0000.0001) %MON forcing_empmr_del2           =   1.9893345094041E-04
(PID.TID 0000.0001) %MON forcing_fu_max               =   3.9952652212030E-01
(PID.TID 0000.0001) %MON forcing_fu_min               =  -3.6750919434433E-01
(PID.TID 0000.0001) %MON forcing_fu_mean              =  -2.7894947412285E-03
(PID.TID 0000.0001) %MON forcing_fu_sd                =   6.2785907423131E-02
(PID.TID 0000.0001) %MON forcing_fu_del2              =   6.1503193757645E-04
(PID.TID 0000.0001) %MON forcing_fv_max               =   3.1773578380060E-01
(PID.TID 0000.0001) %MON forcing_fv_min               =  -2.8087366915412E-01
(PID.TID 0000.0001) %MON forcing_fv_mean              =  -1.3175133160883E-02
(PID.TID 0000.0001) %MON forcing_fv_sd                =   6.4157109046355E-02
(PID.TID 0000.0001) %MON forcing_fv_del2              =   5.5598817204162E-04
(PID.TID 0000.0001) %MON trAdv_CFL_u_max              =   3.1239627750070E-03
(PID.TID 0000.0001) %MON trAdv_CFL_v_max              =   5.0333838888952E-03
(PID.TID 0000.0001) %MON trAdv_CFL_w_max              =   1.8969697937220E-03
(PID.TID 0000.0001) %MON advcfl_uvel_max              =   3.0990594504185E-03
(PID.TID 0000.0001) %MON advcfl_vvel_max              =   3.6523410005481E-03
(PID.TID 0000.0001) %MON advcfl_wvel_max              =   3.8596811501876E-03
(PID.TID 0000.0001) %MON advcfl_W_hf_max              =   2.7099568481743E-03
(PID.TID 0000.0001) %MON pe_b_mean                    =   5.1064713334564E-04
(PID.TID 0000.0001) %MON ke_max                       =   5.2226968862270E-01
(PID.TID 0000.0001) %MON ke_mean                      =   1.6751622472826E-04
(PID.TID 0000.0001) %MON ke_vol                       =   1.3398105507229E+18
(PID.TID 0000.0001) %MON vort_r_min                   =  -5.0683087758409E-06
(PID.TID 0000.0001) %MON vort_r_max                   =   3.7129862923069E-06
(PID.TID 0000.0001) %MON vort_a_mean                  =  -2.0549865324846E-05
(PID.TID 0000.0001) %MON vort_a_sd                    =   7.5259512305071E-05
(PID.TID 0000.0001) %MON vort_p_mean                  =  -2.4783321153017E-05
(PID.TID 0000.0001) %MON vort_p_sd                    =   1.2811913855981E-04
(PID.TID 0000.0001) %MON surfExpan_theta_mean         =  -6.6506747579235E-06
(PID.TID 0000.0001) %MON surfExpan_salt_mean          =   9.6861103216456E-07
(PID.TID 0000.0001) // =======================================================
(PID.TID 0000.0001) // End MONITOR dynamic field statistics
(PID.TID 0000.0001) // =======================================================
 cg2d: Sum(rhs),rhsMax =  -3.86160463839006E+01  5.09299958457170E+01
(PID.TID 0000.0001)      cg2d_init_res =   3.10207502976467E-01
(PID.TID 0000.0001)      cg2d_iters(min,last) =      -1      11
(PID.TID 0000.0001)      cg2d_last_res =   2.57575121052201E-08
(PID.TID 0000.0001) // =======================================================
(PID.TID 0000.0001) // Begin MONITOR dynamic field statistics
(PID.TID 0000.0001) // =======================================================
(PID.TID 0000.0001) %MON time_tsnumber                =                 72037
(PID.TID 0000.0001) %MON time_secondsf                =   6.4833300000000E+07
(PID.TID 0000.0001) %MON dynstat_eta_max              =   2.2729515026116E+00
(PID.TID 0000.0001) %MON dynstat_eta_min              =  -1.6080822356593E+00
(PID.TID 0000.0001) %MON dynstat_eta_mean             =   2.2852968523043E-02
(PID.TID 0000.0001) %MON dynstat_eta_sd               =   6.1840430801973E-01
(PID.TID 0000.0001) %MON dynstat_eta_del2             =   2.0411956517970E-03
(PID.TID 0000.0001) %MON dynstat_uvel_max             =   3.0721542473023E-01
(PID.TID 0000.0001) %MON dynstat_uvel_min             =  -9.5646628358052E-01
(PID.TID 0000.0001) %MON dynstat_uvel_mean            =  -3.4622728629201E-04
(PID.TID 0000.0001) %MON dynstat_uvel_sd              =   1.3000256467912E-02
(PID.TID 0000.0001) %MON dynstat_uvel_del2            =   8.6491909092978E-05
(PID.TID 0000.0001) %MON dynstat_vvel_max             =   1.1194072140282E+00
(PID.TID 0000.0001) %MON dynstat_vvel_min             =  -1.0713067133551E+00
(PID.TID 0000.0001) %MON dynstat_vvel_mean            =  -3.4246751677077E-04
(PID.TID 0000.0001) %MON dynstat_vvel_sd              =   1.3880279549407E-02
(PID.TID 0000.0001) %MON dynstat_vvel_del2            =   1.2481111917583E-04
(PID.TID 0000.0001) %MON dynstat_wvel_max             =   2.1241608554183E-04
(PID.TID 0000.0001) %MON dynstat_wvel_min             =  -2.0358398507285E-04
(PID.TID 0000.0001) %MON dynstat_wvel_mean            =  -8.8864899333308E-09
(PID.TID 0000.0001) %MON dynstat_wvel_sd              =   8.2585654732130E-06
(PID.TID 0000.0001) %MON dynstat_wvel_del2            =   7.4033193028147E-08
(PID.TID 0000.0001) %MON dynstat_theta_max            =   3.0935868503415E+01
(PID.TID 0000.0001) %MON dynstat_theta_min            =  -3.0051725219073E+00
(PID.TID 0000.0001) %MON dynstat_theta_mean           =   3.9091946281668E+00
(PID.TID 0000.0001) %MON dynstat_theta_sd             =   4.5715461436429E+00
(PID.TID 0000.0001) %MON dynstat_theta_del2           =   2.6470549296200E-03
(PID.TID 0000.0001) %MON dynstat_salt_max             =   4.1355343506585E+01
(PID.TID 0000.0001) %MON dynstat_salt_min             =   1.8518741753739E+01
(PID.TID 0000.0001) %MON dynstat_salt_mean            =   3.4772014031782E+01
(PID.TID 0000.0001) %MON dynstat_salt_sd              =   5.3156982273125E-01
(PID.TID 0000.0001) %MON dynstat_salt_del2            =   9.6415340878212E-04
(PID.TID 0000.0001) %MON dynstat_sst_max              =   3.0935868503415E+01
(PID.TID 0000.0001) %MON dynstat_sst_min              =  -1.8981550255195E+00
(PID.TID 0000.0001) %MON dynstat_sst_mean             =   1.8112635444772E+01
(PID.TID 0000.0001) %MON dynstat_sst_sd               =   9.8084363346053E+00
(PID.TID 0000.0001) %MON dynstat_sst_del2             =   1.5151192647211E-02
(PID.TID 0000.0001) %MON dynstat_sss_max              =   4.1355343506585E+01
(PID.TID 0000.0001) %MON dynstat_sss_min              =   1.8751463762489E+01
(PID.TID 0000.0001) %MON dynstat_sss_mean             =   3.4628746530576E+01
(PID.TID 0000.0001) %MON dynstat_sss_sd               =   1.4728559192336E+00
(PID.TID 0000.0001) %MON dynstat_sss_del2             =   1.0449170521553E-02
(PID.TID 0000.0001) %MON forcing_qnet_max             =   2.5823192962148E+03
(PID.TID 0000.0001) %MON forcing_qnet_min             =  -1.6272527882545E+03
(PID.TID 0000.0001) %MON forcing_qnet_mean            =  -2.8095216272400E-01
(PID.TID 0000.0001) %MON forcing_qnet_sd              =   2.4424792372811E+02
(PID.TID 0000.0001) %MON forcing_qnet_del2            =   4.9150710130319E+00
(PID.TID 0000.0001) %MON forcing_qsw_max              =   0.0000000000000E+00
(PID.TID 0000.0001) %MON forcing_qsw_min              =  -4.1334503302426E+02
(PID.TID 0000.0001) %MON forcing_qsw_mean             =  -5.4986412631180E+01
(PID.TID 0000.0001) %MON forcing_qsw_sd               =   9.8774219759391E+01
(PID.TID 0000.0001) %MON forcing_qsw_del2             =   9.2250536657729E-01
(PID.TID 0000.0001) %MON forcing_empmr_max            =   7.6402621343732E-03
(PID.TID 0000.0001) %MON forcing_empmr_min            =  -1.0982298851013E-01
(PID.TID 0000.0001) %MON forcing_empmr_mean           =  -3.2922513484819E-04
(PID.TID 0000.0001) %MON forcing_empmr_sd             =   4.9394078794859E-03
(PID.TID 0000.0001) %MON forcing_empmr_del2           =   1.9489778464311E-04
(PID.TID 0000.0001) %MON forcing_fu_max               =   3.9506505206982E-01
(PID.TID 0000.0001) %MON forcing_fu_min               =  -3.6710824653288E-01
(PID.TID 0000.0001) %MON forcing_fu_mean              =  -2.7145983689015E-03
(PID.TID 0000.0001) %MON forcing_fu_sd                =   6.2470975564176E-02
(PID.TID 0000.0001) %MON forcing_fu_del2              =   6.1303537851565E-04
(PID.TID 0000.0001) %MON forcing_fv_max               =   3.1899205033314E-01
(PID.TID 0000.0001) %MON forcing_fv_min               =  -2.8336488631759E-01
(PID.TID 0000.0001) %MON forcing_fv_mean              =  -1.3333759618133E-02
(PID.TID 0000.0001) %MON forcing_fv_sd                =   6.4032013934521E-02
(PID.TID 0000.0001) %MON forcing_fv_del2              =   5.5404161606252E-04
(PID.TID 0000.0001) %MON trAdv_CFL_u_max              =   3.2042488785298E-03
(PID.TID 0000.0001) %MON trAdv_CFL_v_max              =   4.8120934548095E-03
(PID.TID 0000.0001) %MON trAdv_CFL_w_max              =   1.9119022751832E-03
(PID.TID 0000.0001) %MON advcfl_uvel_max              =   3.1675440969892E-03
(PID.TID 0000.0001) %MON advcfl_vvel_max              =   3.4960645864898E-03
(PID.TID 0000.0001) %MON advcfl_wvel_max              =   3.8199300351350E-03
(PID.TID 0000.0001) %MON advcfl_W_hf_max              =   2.7312889645474E-03
(PID.TID 0000.0001) %MON pe_b_mean                    =   5.1015190713881E-04
(PID.TID 0000.0001) %MON ke_max                       =   5.0253603305176E-01
(PID.TID 0000.0001) %MON ke_mean                      =   1.6713608535619E-04
(PID.TID 0000.0001) %MON ke_vol                       =   1.3398106570804E+18
(PID.TID 0000.0001) %MON vort_r_min                   =  -4.8058182019894E-06
(PID.TID 0000.0001) %MON vort_r_max                   =   3.6947945614501E-06
(PID.TID 0000.0001) %MON vort_a_mean                  =  -2.0549865324846E-05
(PID.TID 0000.0001) %MON vort_a_sd                    =   7.5259518538269E-05
(PID.TID 0000.0001) %MON vort_p_mean                  =  -2.4783319453032E-05
(PID.TID 0000.0001) %MON vort_p_sd                    =   1.2811915640133E-04
(PID.TID 0000.0001) %MON surfExpan_theta_mean         =  -6.5594644435435E-06
(PID.TID 0000.0001) %MON surfExpan_salt_mean          =   9.4990712071480E-07
(PID.TID 0000.0001) // =======================================================
(PID.TID 0000.0001) // End MONITOR dynamic field statistics
(PID.TID 0000.0001) // =======================================================
 cg2d: Sum(rhs),rhsMax =  -3.70387724408245E+01  5.37452529011305E+01
(PID.TID 0000.0001)      cg2d_init_res =   2.87869019610883E-01
(PID.TID 0000.0001)      cg2d_iters(min,last) =      -1      10
(PID.TID 0000.0001)      cg2d_last_res =   9.97900006492753E-08
(PID.TID 0000.0001) // =======================================================
(PID.TID 0000.0001) // Begin MONITOR dynamic field statistics
(PID.TID 0000.0001) // =======================================================
(PID.TID 0000.0001) %MON time_tsnumber                =                 72038
(PID.TID 0000.0001) %MON time_secondsf                =   6.4834200000000E+07
(PID.TID 0000.0001) %MON dynstat_eta_max              =   2.3977879064929E+00
(PID.TID 0000.0001) %MON dynstat_eta_min              =  -1.6083078405368E+00
(PID.TID 0000.0001) %MON dynstat_eta_mean             =   2.3131184287896E-02
(PID.TID 0000.0001) %MON dynstat_eta_sd               =   6.1815890670040E-01
(PID.TID 0000.0001) %MON dynstat_eta_del2             =   2.0151663011989E-03
(PID.TID 0000.0001) %MON dynstat_uvel_max             =   3.1631632571029E-01
(PID.TID 0000.0001) %MON dynstat_uvel_min             =  -9.5147143032668E-01
(PID.TID 0000.0001) %MON dynstat_uvel_mean            =  -3.7726789996235E-04
(PID.TID 0000.0001) %MON dynstat_uvel_sd              =   1.3009063860477E-02
(PID.TID 0000.0001) %MON dynstat_uvel_del2            =   8.6573227730840E-05
(PID.TID 0000.0001) %MON dynstat_vvel_max             =   1.0999496224463E+00
(PID.TID 0000.0001) %MON dynstat_vvel_min             =  -1.0085347439675E+00
(PID.TID 0000.0001) %MON dynstat_vvel_mean            =  -3.0877340287392E-04
(PID.TID 0000.0001) %MON dynstat_vvel_sd              =   1.3832592486614E-02
(PID.TID 0000.0001) %MON dynstat_vvel_del2            =   1.2261285483503E-04
(PID.TID 0000.0001) %MON dynstat_wvel_max             =   2.1238179076531E-04
(PID.TID 0000.0001) %MON dynstat_wvel_min             =  -1.9425420407055E-04
(PID.TID 0000.0001) %MON dynstat_wvel_mean            =  -6.1380279338049E-09
(PID.TID 0000.0001) %MON dynstat_wvel_sd              =   8.1977668810569E-06
(PID.TID 0000.0001) %MON dynstat_wvel_del2            =   7.4001075289805E-08
(PID.TID 0000.0001) %MON dynstat_theta_max            =   3.0936416948505E+01
(PID.TID 0000.0001) %MON dynstat_theta_min            =  -3.0050240870844E+00
(PID.TID 0000.0001) %MON dynstat_theta_mean           =   3.9091963364309E+00
(PID.TID 0000.0001) %MON dynstat_theta_sd             =   4.5715539350154E+00
(PID.TID 0000.0001) %MON dynstat_theta_del2           =   2.6469290553442E-03
(PID.TID 0000.0001) %MON dynstat_salt_max             =   4.1355023705185E+01
(PID.TID 0000.0001) %MON dynstat_salt_min             =   1.8518752239126E+01
(PID.TID 0000.0001) %MON dynstat_salt_mean            =   3.4772010696993E+01
(PID.TID 0000.0001) %MON dynstat_salt_sd              =   5.3158855123743E-01
(PID.TID 0000.0001) %MON dynstat_salt_del2            =   9.6925704908573E-04
(PID.TID 0000.0001) %MON dynstat_sst_max              =   3.0936416948505E+01
(PID.TID 0000.0001) %MON dynstat_sst_min              =  -1.8981091019629E+00
(PID.TID 0000.0001) %MON dynstat_sst_mean             =   1.8112658945083E+01
(PID.TID 0000.0001) %MON dynstat_sst_sd               =   9.8085776901483E+00
(PID.TID 0000.0001) %MON dynstat_sst_del2             =   1.5148812445032E-02
(PID.TID 0000.0001) %MON dynstat_sss_max              =   4.1355023705185E+01
(PID.TID 0000.0001) %MON dynstat_sss_min              =   1.8751486160123E+01
(PID.TID 0000.0001) %MON dynstat_sss_mean             =   3.4628509476280E+01
(PID.TID 0000.0001) %MON dynstat_sss_sd               =   1.4733287366341E+00
(PID.TID 0000.0001) %MON dynstat_sss_del2             =   1.0523450215234E-02
(PID.TID 0000.0001) %MON forcing_qnet_max             =   2.5479422743348E+03
(PID.TID 0000.0001) %MON forcing_qnet_min             =  -1.6030397773728E+03
(PID.TID 0000.0001) %MON forcing_qnet_mean            =   1.6563626579473E+00
(PID.TID 0000.0001) %MON forcing_qnet_sd              =   2.4289607668256E+02
(PID.TID 0000.0001) %MON forcing_qnet_del2            =   4.8197028196413E+00
(PID.TID 0000.0001) %MON forcing_qsw_max              =   0.0000000000000E+00
(PID.TID 0000.0001) %MON forcing_qsw_min              =  -4.1432581266420E+02
(PID.TID 0000.0001) %MON forcing_qsw_mean             =  -5.4360853281517E+01
(PID.TID 0000.0001) %MON forcing_qsw_sd               =   9.9049491520913E+01
(PID.TID 0000.0001) %MON forcing_qsw_del2             =   9.1112433165533E-01
(PID.TID 0000.0001) %MON forcing_empmr_max            =   7.5614410452545E-03
(PID.TID 0000.0001) %MON forcing_empmr_min            =  -1.0869106650352E-01
(PID.TID 0000.0001) %MON forcing_empmr_mean           =  -3.1994812958065E-04
(PID.TID 0000.0001) %MON forcing_empmr_sd             =   4.8169107880121E-03
(PID.TID 0000.0001) %MON forcing_empmr_del2           =   1.9017176867796E-04
(PID.TID 0000.0001) %MON forcing_fu_max               =   3.8752882370279E-01
(PID.TID 0000.0001) %MON forcing_fu_min               =  -3.6619567076500E-01
(PID.TID 0000.0001) %MON forcing_fu_mean              =  -2.7050530844138E-03
(PID.TID 0000.0001) %MON forcing_fu_sd                =   6.2058323189680E-02
(PID.TID 0000.0001) %MON forcing_fu_del2              =   6.0932262617864E-04
(PID.TID 0000.0001) %MON forcing_fv_max               =   3.2453875851290E-01
(PID.TID 0000.0001) %MON forcing_fv_min               =  -2.8380201961853E-01
(PID.TID 0000.0001) %MON forcing_fv_mean              =  -1.3492363034893E-02
(PID.TID 0000.0001) %MON forcing_fv_sd                =   6.3975215461693E-02
(PID.TID 0000.0001) %MON forcing_fv_del2              =   5.5274741755353E-04
(PID.TID 0000.0001) %MON trAdv_CFL_u_max              =   3.2209254744622E-03
(PID.TID 0000.0001) %MON trAdv_CFL_v_max              =   4.5375485637376E-03
(PID.TID 0000.0001) %MON trAdv_CFL_w_max              =   1.9115741264249E-03
(PID.TID 0000.0001) %MON advcfl_uvel_max              =   3.1729351780787E-03
(PID.TID 0000.0001) %MON advcfl_vvel_max              =   3.2962953808923E-03
(PID.TID 0000.0001) %MON advcfl_wvel_max              =   3.7805588349052E-03
(PID.TID 0000.0001) %MON advcfl_W_hf_max              =   2.7308201806069E-03
(PID.TID 0000.0001) %MON pe_b_mean                    =   5.0976465607347E-04
(PID.TID 0000.0001) %MON ke_max                       =   4.6805476933537E-01
(PID.TID 0000.0001) %MON ke_mean                      =   1.6662826689534E-04
(PID.TID 0000.0001) %MON ke_vol                       =   1.3398107612549E+18
(PID.TID 0000.0001) %MON vort_r_min                   =  -4.5062881906676E-06
(PID.TID 0000.0001) %MON vort_r_max                   =   3.6342917360236E-06
(PID.TID 0000.0001) %MON vort_a_mean                  =  -2.0549865324846E-05
(PID.TID 0000.0001) %MON vort_a_sd                    =   7.5259525936743E-05
(PID.TID 0000.0001) %MON vort_p_mean                  =  -2.4783317797124E-05
(PID.TID 0000.0001) %MON vort_p_sd                    =   1.2811917261827E-04
(PID.TID 0000.0001) %MON surfExpan_theta_mean         =  -6.4707045404250E-06
(PID.TID 0000.0001) %MON surfExpan_salt_mean          =   9.3369372053749E-07
(PID.TID 0000.0001) // =======================================================
(PID.TID 0000.0001) // End MONITOR dynamic field statistics
(PID.TID 0000.0001) // =======================================================
 cg2d: Sum(rhs),rhsMax =  -3.57054124401167E+01  5.64018713513008E+01
(PID.TID 0000.0001)      cg2d_init_res =   2.67191669795266E-01
(PID.TID 0000.0001)      cg2d_iters(min,last) =      -1      10
(PID.TID 0000.0001)      cg2d_last_res =   8.71295642677964E-08
(PID.TID 0000.0001) // =======================================================
(PID.TID 0000.0001) // Begin MONITOR dynamic field statistics
(PID.TID 0000.0001) // =======================================================
(PID.TID 0000.0001) %MON time_tsnumber                =                 72039
(PID.TID 0000.0001) %MON time_secondsf                =   6.4835100000000E+07
(PID.TID 0000.0001) %MON dynstat_eta_max              =   2.5155655685400E+00
(PID.TID 0000.0001) %MON dynstat_eta_min              =  -1.6085364556624E+00
(PID.TID 0000.0001) %MON dynstat_eta_mean             =   2.3400694180158E-02
(PID.TID 0000.0001) %MON dynstat_eta_sd               =   6.1797931678516E-01
(PID.TID 0000.0001) %MON dynstat_eta_del2             =   2.0217672397822E-03
(PID.TID 0000.0001) %MON dynstat_uvel_max             =   3.2405559796355E-01
(PID.TID 0000.0001) %MON dynstat_uvel_min             =  -9.3507742405148E-01
(PID.TID 0000.0001) %MON dynstat_uvel_mean            =  -4.0574189023697E-04
(PID.TID 0000.0001) %MON dynstat_uvel_sd              =   1.3007748135738E-02
(PID.TID 0000.0001) %MON dynstat_uvel_del2            =   8.6567501608355E-05
(PID.TID 0000.0001) %MON dynstat_vvel_max             =   1.0676314981499E+00
(PID.TID 0000.0001) %MON dynstat_vvel_min             =  -9.3240288153522E-01
(PID.TID 0000.0001) %MON dynstat_vvel_mean            =  -2.7098505877636E-04
(PID.TID 0000.0001) %MON dynstat_vvel_sd              =   1.3786001270545E-02
(PID.TID 0000.0001) %MON dynstat_vvel_del2            =   1.1987140618075E-04
(PID.TID 0000.0001) %MON dynstat_wvel_max             =   2.1076459524594E-04
(PID.TID 0000.0001) %MON dynstat_wvel_min             =  -1.9088329400809E-04
(PID.TID 0000.0001) %MON dynstat_wvel_mean            =  -7.7599496415108E-09
(PID.TID 0000.0001) %MON dynstat_wvel_sd              =   8.1354930728122E-06
(PID.TID 0000.0001) %MON dynstat_wvel_del2            =   7.4006717427476E-08
(PID.TID 0000.0001) %MON dynstat_theta_max            =   3.0936937653378E+01
(PID.TID 0000.0001) %MON dynstat_theta_min            =  -3.0048736076926E+00
(PID.TID 0000.0001) %MON dynstat_theta_mean           =   3.9091978646898E+00
(PID.TID 0000.0001) %MON dynstat_theta_sd             =   4.5715610712712E+00
(PID.TID 0000.0001) %MON dynstat_theta_del2           =   2.6466844065735E-03
(PID.TID 0000.0001) %MON dynstat_salt_max             =   4.1354698118512E+01
(PID.TID 0000.0001) %MON dynstat_salt_min             =   1.8518762736943E+01
(PID.TID 0000.0001) %MON dynstat_salt_mean            =   3.4772007417557E+01
(PID.TID 0000.0001) %MON dynstat_salt_sd              =   5.3160710952341E-01
(PID.TID 0000.0001) %MON dynstat_salt_del2            =   9.7430154763876E-04
(PID.TID 0000.0001) %MON dynstat_sst_max              =   3.0936937653378E+01
(PID.TID 0000.0001) %MON dynstat_sst_min              =  -1.8980580856109E+00
(PID.TID 0000.0001) %MON dynstat_sst_mean             =   1.8112696116520E+01
(PID.TID 0000.0001) %MON dynstat_sst_sd               =   9.8086696420302E+00
(PID.TID 0000.0001) %MON dynstat_sst_del2             =   1.5142652580231E-02
(PID.TID 0000.0001) %MON dynstat_sss_max              =   4.1354698118512E+01
(PID.TID 0000.0001) %MON dynstat_sss_min              =   1.8751512969324E+01
(PID.TID 0000.0001) %MON dynstat_sss_mean             =   3.4628278217135E+01
(PID.TID 0000.0001) %MON dynstat_sss_sd               =   1.4737967081081E+00
(PID.TID 0000.0001) %MON dynstat_sss_del2             =   1.0596712562728E-02
(PID.TID 0000.0001) %MON forcing_qnet_max             =   2.5140220960215E+03
(PID.TID 0000.0001) %MON forcing_qnet_min             =  -1.5818564705419E+03
(PID.TID 0000.0001) %MON forcing_qnet_mean            =   4.1900448061136E+00
(PID.TID 0000.0001) %MON forcing_qnet_sd              =   2.4206084097919E+02
(PID.TID 0000.0001) %MON forcing_qnet_del2            =   4.7600449987219E+00
(PID.TID 0000.0001) %MON forcing_qsw_max              =   0.0000000000000E+00
(PID.TID 0000.0001) %MON forcing_qsw_min              =  -4.1355398128433E+02
(PID.TID 0000.0001) %MON forcing_qsw_mean             =  -5.3636828361427E+01
(PID.TID 0000.0001) %MON forcing_qsw_sd               =   9.9123836747696E+01
(PID.TID 0000.0001) %MON forcing_qsw_del2             =   8.9891687760174E-01
(PID.TID 0000.0001) %MON forcing_empmr_max            =   7.4835051782429E-03
(PID.TID 0000.0001) %MON forcing_empmr_min            =  -1.0757172852755E-01
(PID.TID 0000.0001) %MON forcing_empmr_mean           =  -3.0993637610191E-04
(PID.TID 0000.0001) %MON forcing_empmr_sd             =   4.7369412999596E-03
(PID.TID 0000.0001) %MON forcing_empmr_del2           =   1.8705415655706E-04
(PID.TID 0000.0001) %MON forcing_fu_max               =   3.8723003696377E-01
(PID.TID 0000.0001) %MON forcing_fu_min               =  -3.6590945161067E-01
(PID.TID 0000.0001) %MON forcing_fu_mean              =  -2.6397536773158E-03
(PID.TID 0000.0001) %MON forcing_fu_sd                =   6.1836218094947E-02
(PID.TID 0000.0001) %MON forcing_fu_del2              =   6.0796710949549E-04
(PID.TID 0000.0001) %MON forcing_fv_max               =   3.3145613863254E-01
(PID.TID 0000.0001) %MON forcing_fv_min               =  -2.8299352467641E-01
(PID.TID 0000.0001) %MON forcing_fv_mean              =  -1.3681322041611E-02
(PID.TID 0000.0001) %MON forcing_fv_sd                =   6.3922040113555E-02
(PID.TID 0000.0001) %MON forcing_fv_del2              =   5.5156227390458E-04
(PID.TID 0000.0001) %MON trAdv_CFL_u_max              =   3.1762290158240E-03
(PID.TID 0000.0001) %MON trAdv_CFL_v_max              =   4.2153122698104E-03
(PID.TID 0000.0001) %MON trAdv_CFL_w_max              =   1.9232219377703E-03
(PID.TID 0000.0001) %MON advcfl_uvel_max              =   3.1182649929715E-03
(PID.TID 0000.0001) %MON advcfl_vvel_max              =   3.1994454146179E-03
(PID.TID 0000.0001) %MON advcfl_wvel_max              =   3.7416253400886E-03
(PID.TID 0000.0001) %MON advcfl_W_hf_max              =   2.7100004160659E-03
(PID.TID 0000.0001) %MON pe_b_mean                    =   5.0948558366726E-04
(PID.TID 0000.0001) %MON ke_max                       =   4.2151721738980E-01
(PID.TID 0000.0001) %MON ke_mean                      =   1.6601555378588E-04
(PID.TID 0000.0001) %MON ke_vol                       =   1.3398108624939E+18
(PID.TID 0000.0001) %MON vort_r_min                   =  -4.1729816891207E-06
(PID.TID 0000.0001) %MON vort_r_max                   =   3.8697288639560E-06
(PID.TID 0000.0001) %MON vort_a_mean                  =  -2.0549865324846E-05
(PID.TID 0000.0001) %MON vort_a_sd                    =   7.5259534427174E-05
(PID.TID 0000.0001) %MON vort_p_mean                  =  -2.4783316191054E-05
(PID.TID 0000.0001) %MON vort_p_sd                    =   1.2811918644399E-04
(PID.TID 0000.0001) %MON surfExpan_theta_mean         =  -6.3750399224066E-06
(PID.TID 0000.0001) %MON surfExpan_salt_mean          =   9.2192311822253E-07
(PID.TID 0000.0001) // =======================================================
(PID.TID 0000.0001) // End MONITOR dynamic field statistics
(PID.TID 0000.0001) // =======================================================
 Computing Diagnostic #     81  oceTAUX      Counter:       1   Parms: UU      U1      
           Vector  Mate for  oceTAUX      Diagnostic #     82  oceTAUY  exists 
 Computing Diagnostic #     82  oceTAUY      Counter:       1   Parms: VV      U1      
           Vector  Mate for  oceTAUY      Diagnostic #     81  oceTAUX  exists 
 Computing Diagnostic #     85  oceFWflx     Counter:       1   Parms: SM      U1      
 Computing Diagnostic #     86  oceSflux     Counter:       1   Parms: SM      U1      
 Computing Diagnostic #     87  oceQnet      Counter:       1   Parms: SM      U1      
 Computing Diagnostic #     88  oceQsw       Counter:       1   Parms: SM      U1      
 Computing Diagnostic #     27  SALT         Counter:       1   Parms: SMR     MR      
 Computing Diagnostic #     26  THETA        Counter:       1   Parms: SMR     MR      
 Computing Diagnostic #     45  UVELMASS     Counter:       1   Parms: UUr     MR      
           Vector  Mate for  UVELMASS     Diagnostic #     46  VVELMASS exists 
 Computing Diagnostic #     46  VVELMASS     Counter:       1   Parms: VVr     MR      
           Vector  Mate for  VVELMASS     Diagnostic #     45  UVELMASS exists 
 cg2d: Sum(rhs),rhsMax =  -3.46004684996240E+01  5.88666975758220E+01
(PID.TID 0000.0001)      cg2d_init_res =   2.46805902419970E-01
(PID.TID 0000.0001)      cg2d_iters(min,last) =      -1      10
(PID.TID 0000.0001)      cg2d_last_res =   6.97090205964936E-08
(PID.TID 0000.0001) // =======================================================
(PID.TID 0000.0001) // Begin MONITOR dynamic field statistics
(PID.TID 0000.0001) // =======================================================
(PID.TID 0000.0001) %MON time_tsnumber                =                 72040
(PID.TID 0000.0001) %MON time_secondsf                =   6.4836000000000E+07
(PID.TID 0000.0001) %MON dynstat_eta_max              =   2.6248168095117E+00
(PID.TID 0000.0001) %MON dynstat_eta_min              =  -1.6087247461491E+00
(PID.TID 0000.0001) %MON dynstat_eta_mean             =   2.3667523940046E-02
(PID.TID 0000.0001) %MON dynstat_eta_sd               =   6.1785740705944E-01
(PID.TID 0000.0001) %MON dynstat_eta_del2             =   2.0560922075602E-03
(PID.TID 0000.0001) %MON dynstat_uvel_max             =   3.3034358842461E-01
(PID.TID 0000.0001) %MON dynstat_uvel_min             =  -9.0182806306011E-01
(PID.TID 0000.0001) %MON dynstat_uvel_mean            =  -4.3140031434600E-04
(PID.TID 0000.0001) %MON dynstat_uvel_sd              =   1.2996092687673E-02
(PID.TID 0000.0001) %MON dynstat_uvel_del2            =   8.6505168673509E-05
(PID.TID 0000.0001) %MON dynstat_vvel_max             =   1.0236685894227E+00
(PID.TID 0000.0001) %MON dynstat_vvel_min             =  -8.4460123042706E-01
(PID.TID 0000.0001) %MON dynstat_vvel_mean            =  -2.2951248106267E-04
(PID.TID 0000.0001) %MON dynstat_vvel_sd              =   1.3742791752960E-02
(PID.TID 0000.0001) %MON dynstat_vvel_del2            =   1.1664056689658E-04
(PID.TID 0000.0001) %MON dynstat_wvel_max             =   2.0774018431426E-04
(PID.TID 0000.0001) %MON dynstat_wvel_min             =  -1.9759049036080E-04
(PID.TID 0000.0001) %MON dynstat_wvel_mean            =  -1.4223919924942E-08
(PID.TID 0000.0001) %MON dynstat_wvel_sd              =   8.0735952406102E-06
(PID.TID 0000.0001) %MON dynstat_wvel_del2            =   7.3992443576938E-08
(PID.TID 0000.0001) %MON dynstat_theta_max            =   3.0937428712104E+01
(PID.TID 0000.0001) %MON dynstat_theta_min            =  -3.0047256660457E+00
(PID.TID 0000.0001) %MON dynstat_theta_mean           =   3.9091992160849E+00
(PID.TID 0000.0001) %MON dynstat_theta_sd             =   4.5715675728882E+00
(PID.TID 0000.0001) %MON dynstat_theta_del2           =   2.6465463694738E-03
(PID.TID 0000.0001) %MON dynstat_salt_max             =   4.1354366243134E+01
(PID.TID 0000.0001) %MON dynstat_salt_min             =   1.8518773239544E+01
(PID.TID 0000.0001) %MON dynstat_salt_mean            =   3.4772004191541E+01
(PID.TID 0000.0001) %MON dynstat_salt_sd              =   5.3162550994135E-01
(PID.TID 0000.0001) %MON dynstat_salt_del2            =   9.7928419893183E-04
(PID.TID 0000.0001) %MON dynstat_sst_max              =   3.0937428712104E+01
(PID.TID 0000.0001) %MON dynstat_sst_min              =  -1.8980006023100E+00
(PID.TID 0000.0001) %MON dynstat_sst_mean             =   1.8112700869725E+01
(PID.TID 0000.0001) %MON dynstat_sst_sd               =   9.8087972948741E+00
(PID.TID 0000.0001) %MON dynstat_sst_del2             =   1.5139825162857E-02
(PID.TID 0000.0001) %MON dynstat_sss_max              =   4.1354366243134E+01
(PID.TID 0000.0001) %MON dynstat_sss_min              =   1.8751544512101E+01
(PID.TID 0000.0001) %MON dynstat_sss_mean             =   3.4628050143938E+01
(PID.TID 0000.0001) %MON dynstat_sss_sd               =   1.4742607468294E+00
(PID.TID 0000.0001) %MON dynstat_sss_del2             =   1.0668962024491E-02
(PID.TID 0000.0001) %MON forcing_qnet_max             =   2.4818205011446E+03
(PID.TID 0000.0001) %MON forcing_qnet_min             =  -1.5609046246829E+03
(PID.TID 0000.0001) %MON forcing_qnet_mean            =   6.8451460580956E+00
(PID.TID 0000.0001) %MON forcing_qnet_sd              =   2.4037429544733E+02
(PID.TID 0000.0001) %MON forcing_qnet_del2            =   4.7134967680236E+00
(PID.TID 0000.0001) %MON forcing_qsw_max              =   0.0000000000000E+00
(PID.TID 0000.0001) %MON forcing_qsw_min              =  -4.1623576343188E+02
(PID.TID 0000.0001) %MON forcing_qsw_mean             =  -5.2818749484942E+01
(PID.TID 0000.0001) %MON forcing_qsw_sd               =   9.8992813545496E+01
(PID.TID 0000.0001) %MON forcing_qsw_del2             =   8.8604476950621E-01
(PID.TID 0000.0001) %MON forcing_empmr_max            =   7.4063567444682E-03
(PID.TID 0000.0001) %MON forcing_empmr_min            =  -1.0646329820156E-01
(PID.TID 0000.0001) %MON forcing_empmr_mean           =  -3.0685422387035E-04
(PID.TID 0000.0001) %MON forcing_empmr_sd             =   4.6879680525864E-03
(PID.TID 0000.0001) %MON forcing_empmr_del2           =   1.8511696088232E-04
(PID.TID 0000.0001) %MON forcing_fu_max               =   3.8556950262136E-01
(PID.TID 0000.0001) %MON forcing_fu_min               =  -3.6622621296307E-01
(PID.TID 0000.0001) %MON forcing_fu_mean              =  -2.5684515899222E-03
(PID.TID 0000.0001) %MON forcing_fu_sd                =   6.1576926659923E-02
(PID.TID 0000.0001) %MON forcing_fu_del2              =   6.0624356805757E-04
(PID.TID 0000.0001) %MON forcing_fv_max               =   3.2210265357759E-01
(PID.TID 0000.0001) %MON forcing_fv_min               =  -2.8294009867025E-01
(PID.TID 0000.0001) %MON forcing_fv_mean              =  -1.3918419898705E-02
(PID.TID 0000.0001) %MON forcing_fv_sd                =   6.3776365737375E-02
(PID.TID 0000.0001) %MON forcing_fv_del2              =   5.4877010049974E-04
(PID.TID 0000.0001) %MON trAdv_CFL_u_max              =   3.0733081374800E-03
(PID.TID 0000.0001) %MON trAdv_CFL_v_max              =   3.8515813287167E-03
(PID.TID 0000.0001) %MON trAdv_CFL_w_max              =   1.9929138018314E-03
(PID.TID 0000.0001) %MON advcfl_uvel_max              =   3.0073861333699E-03
(PID.TID 0000.0001) %MON advcfl_vvel_max              =   3.0676987145774E-03
(PID.TID 0000.0001) %MON advcfl_wvel_max              =   3.7030712417934E-03
(PID.TID 0000.0001) %MON advcfl_W_hf_max              =   2.6710892666698E-03
(PID.TID 0000.0001) %MON pe_b_mean                    =   5.0930157107158E-04
(PID.TID 0000.0001) %MON ke_max                       =   3.6625650553295E-01
(PID.TID 0000.0001) %MON ke_mean                      =   1.6532462381178E-04
(PID.TID 0000.0001) %MON ke_vol                       =   1.3398109605650E+18
(PID.TID 0000.0001) %MON vort_r_min                   =  -3.8095983032468E-06
(PID.TID 0000.0001) %MON vort_r_max                   =   4.0087022154518E-06
(PID.TID 0000.0001) %MON vort_a_mean                  =  -2.0549865324846E-05
(PID.TID 0000.0001) %MON vort_a_sd                    =   7.5259543891258E-05
(PID.TID 0000.0001) %MON vort_p_mean                  =  -2.4783314634006E-05
(PID.TID 0000.0001) %MON vort_p_sd                    =   1.2811919705895E-04
(PID.TID 0000.0001) %MON surfExpan_theta_mean         =  -6.3030428382418E-06
(PID.TID 0000.0001) %MON surfExpan_salt_mean          =   9.2296245321657E-07
(PID.TID 0000.0001) // =======================================================
(PID.TID 0000.0001) // End MONITOR dynamic field statistics
(PID.TID 0000.0001) // =======================================================
 cg2d: Sum(rhs),rhsMax =  -3.37034806683903E+01  6.11081219657573E+01
(PID.TID 0000.0001)      cg2d_init_res =   2.27923803111155E-01
(PID.TID 0000.0001)      cg2d_iters(min,last) =      -1      10
(PID.TID 0000.0001)      cg2d_last_res =   5.19164402891265E-08
(PID.TID 0000.0001) // =======================================================
(PID.TID 0000.0001) // Begin MONITOR dynamic field statistics
(PID.TID 0000.0001) // =======================================================
(PID.TID 0000.0001) %MON time_tsnumber                =                 72041
(PID.TID 0000.0001) %MON time_secondsf                =   6.4836900000000E+07
(PID.TID 0000.0001) %MON dynstat_eta_max              =   2.7241421730342E+00
(PID.TID 0000.0001) %MON dynstat_eta_min              =  -1.6088205980732E+00
(PID.TID 0000.0001) %MON dynstat_eta_mean             =   2.3931772416670E-02
(PID.TID 0000.0001) %MON dynstat_eta_sd               =   6.1778252078217E-01
(PID.TID 0000.0001) %MON dynstat_eta_del2             =   2.1109656908598E-03
(PID.TID 0000.0001) %MON dynstat_uvel_max             =   3.3510349830837E-01
(PID.TID 0000.0001) %MON dynstat_uvel_min             =  -8.5720922649632E-01
(PID.TID 0000.0001) %MON dynstat_uvel_mean            =  -4.5408436012020E-04
(PID.TID 0000.0001) %MON dynstat_uvel_sd              =   1.2974629158973E-02
(PID.TID 0000.0001) %MON dynstat_uvel_del2            =   8.6426133753252E-05
(PID.TID 0000.0001) %MON dynstat_vvel_max             =   9.6939410393389E-01
(PID.TID 0000.0001) %MON dynstat_vvel_min             =  -7.4695013090797E-01
(PID.TID 0000.0001) %MON dynstat_vvel_mean            =  -1.8484290077689E-04
(PID.TID 0000.0001) %MON dynstat_vvel_sd              =   1.3704960021855E-02
(PID.TID 0000.0001) %MON dynstat_vvel_del2            =   1.1299793249004E-04
(PID.TID 0000.0001) %MON dynstat_wvel_max             =   2.0353544665209E-04
(PID.TID 0000.0001) %MON dynstat_wvel_min             =  -2.0320629402477E-04
(PID.TID 0000.0001) %MON dynstat_wvel_mean            =  -2.4691299283186E-08
(PID.TID 0000.0001) %MON dynstat_wvel_sd              =   8.0152837159305E-06
(PID.TID 0000.0001) %MON dynstat_wvel_del2            =   7.3999260735234E-08
(PID.TID 0000.0001) %MON dynstat_theta_max            =   3.0937833688598E+01
(PID.TID 0000.0001) %MON dynstat_theta_min            =  -3.0045851800577E+00
(PID.TID 0000.0001) %MON dynstat_theta_mean           =   3.9092004071663E+00
(PID.TID 0000.0001) %MON dynstat_theta_sd             =   4.5715732046446E+00
(PID.TID 0000.0001) %MON dynstat_theta_del2           =   2.6464260561008E-03
(PID.TID 0000.0001) %MON dynstat_salt_max             =   4.1354028050643E+01
(PID.TID 0000.0001) %MON dynstat_salt_min             =   1.8518783739982E+01
(PID.TID 0000.0001) %MON dynstat_salt_mean            =   3.4772001028782E+01
(PID.TID 0000.0001) %MON dynstat_salt_sd              =   5.3164375133858E-01
(PID.TID 0000.0001) %MON dynstat_salt_del2            =   9.8420420415374E-04
(PID.TID 0000.0001) %MON dynstat_sst_max              =   3.0937833688598E+01
(PID.TID 0000.0001) %MON dynstat_sst_min              =  -1.8979372142794E+00
(PID.TID 0000.0001) %MON dynstat_sst_mean             =   1.8112690011475E+01
(PID.TID 0000.0001) %MON dynstat_sst_sd               =   9.8089193045900E+00
(PID.TID 0000.0001) %MON dynstat_sst_del2             =   1.5137540816314E-02
(PID.TID 0000.0001) %MON dynstat_sss_max              =   4.1354028050643E+01
(PID.TID 0000.0001) %MON dynstat_sss_min              =   1.8751581130264E+01
(PID.TID 0000.0001) %MON dynstat_sss_mean             =   3.4627826506071E+01
(PID.TID 0000.0001) %MON dynstat_sss_sd               =   1.4747201625712E+00
(PID.TID 0000.0001) %MON dynstat_sss_del2             =   1.0740174954045E-02
(PID.TID 0000.0001) %MON forcing_qnet_max             =   2.4492127632704E+03
(PID.TID 0000.0001) %MON forcing_qnet_min             =  -1.5381273667478E+03
(PID.TID 0000.0001) %MON forcing_qnet_mean            =   9.2629932869354E+00
(PID.TID 0000.0001) %MON forcing_qnet_sd              =   2.3765020102673E+02
(PID.TID 0000.0001) %MON forcing_qnet_del2            =   4.5891458977592E+00
(PID.TID 0000.0001) %MON forcing_qsw_max              =   0.0000000000000E+00
(PID.TID 0000.0001) %MON forcing_qsw_min              =  -4.2533312844493E+02
(PID.TID 0000.0001) %MON forcing_qsw_mean             =  -5.1522363488614E+01
(PID.TID 0000.0001) %MON forcing_qsw_sd               =   9.8421276753511E+01
(PID.TID 0000.0001) %MON forcing_qsw_del2             =   8.6904313984101E-01
(PID.TID 0000.0001) %MON forcing_empmr_max            =   7.3299957439303E-03
(PID.TID 0000.0001) %MON forcing_empmr_min            =  -1.0536660254002E-01
(PID.TID 0000.0001) %MON forcing_empmr_mean           =  -3.0388574811821E-04
(PID.TID 0000.0001) %MON forcing_empmr_sd             =   4.6396379505676E-03
(PID.TID 0000.0001) %MON forcing_empmr_del2           =   1.8320269011628E-04
(PID.TID 0000.0001) %MON forcing_fu_max               =   3.8242622604520E-01
(PID.TID 0000.0001) %MON forcing_fu_min               =  -3.6563415437252E-01
(PID.TID 0000.0001) %MON forcing_fu_mean              =  -2.5495501353996E-03
(PID.TID 0000.0001) %MON forcing_fu_sd                =   6.1296412714861E-02
(PID.TID 0000.0001) %MON forcing_fu_del2              =   6.0453541949833E-04
(PID.TID 0000.0001) %MON forcing_fv_max               =   3.1736315281833E-01
(PID.TID 0000.0001) %MON forcing_fv_min               =  -2.8445090929867E-01
(PID.TID 0000.0001) %MON forcing_fv_mean              =  -1.4139656597954E-02
(PID.TID 0000.0001) %MON forcing_fv_sd                =   6.3546485461156E-02
(PID.TID 0000.0001) %MON forcing_fv_del2              =   5.4609835437377E-04
(PID.TID 0000.0001) %MON trAdv_CFL_u_max              =   2.9161563141143E-03
(PID.TID 0000.0001) %MON trAdv_CFL_v_max              =   3.4531288404882E-03
(PID.TID 0000.0001) %MON trAdv_CFL_w_max              =   2.0465097852503E-03
(PID.TID 0000.0001) %MON advcfl_uvel_max              =   2.8448577746399E-03
(PID.TID 0000.0001) %MON advcfl_vvel_max              =   2.9050505967308E-03
(PID.TID 0000.0001) %MON advcfl_wvel_max              =   3.6649253057397E-03
(PID.TID 0000.0001) %MON advcfl_W_hf_max              =   2.6170044374635E-03
(PID.TID 0000.0001) %MON pe_b_mean                    =   5.0919502076767E-04
(PID.TID 0000.0001) %MON ke_max                       =   3.1355651355110E-01
(PID.TID 0000.0001) %MON ke_mean                      =   1.6458736993142E-04
(PID.TID 0000.0001) %MON ke_vol                       =   1.3398110576608E+18
(PID.TID 0000.0001) %MON vort_r_min                   =  -3.4202324866970E-06
(PID.TID 0000.0001) %MON vort_r_max                   =   4.0522053411505E-06
(PID.TID 0000.0001) %MON vort_a_mean                  =  -2.0549865324846E-05
(PID.TID 0000.0001) %MON vort_a_sd                    =   7.5259554185941E-05
(PID.TID 0000.0001) %MON vort_p_mean                  =  -2.4783313088173E-05
(PID.TID 0000.0001) %MON vort_p_sd                    =   1.2811920273209E-04
(PID.TID 0000.0001) %MON surfExpan_theta_mean         =  -6.2327680622339E-06
(PID.TID 0000.0001) %MON surfExpan_salt_mean          =   9.3014730832087E-07
(PID.TID 0000.0001) // =======================================================
(PID.TID 0000.0001) // End MONITOR dynamic field statistics
(PID.TID 0000.0001) // =======================================================
 cg2d: Sum(rhs),rhsMax =  -3.29984466726743E+01  6.30965761733643E+01
(PID.TID 0000.0001)      cg2d_init_res =   2.10427990889318E-01
(PID.TID 0000.0001)      cg2d_iters(min,last) =      -1      10
(PID.TID 0000.0001)      cg2d_last_res =   4.66780884901229E-08
(PID.TID 0000.0001) // =======================================================
(PID.TID 0000.0001) // Begin MONITOR dynamic field statistics
(PID.TID 0000.0001) // =======================================================
(PID.TID 0000.0001) %MON time_tsnumber                =                 72042
(PID.TID 0000.0001) %MON time_secondsf                =   6.4837800000000E+07
(PID.TID 0000.0001) %MON dynstat_eta_max              =   2.8122323828604E+00
(PID.TID 0000.0001) %MON dynstat_eta_min              =  -1.6087710280036E+00
(PID.TID 0000.0001) %MON dynstat_eta_mean             =   2.4193598203518E-02
(PID.TID 0000.0001) %MON dynstat_eta_sd               =   6.1774155536705E-01
(PID.TID 0000.0001) %MON dynstat_eta_del2             =   2.1784454203703E-03
(PID.TID 0000.0001) %MON dynstat_uvel_max             =   3.3827216313754E-01
(PID.TID 0000.0001) %MON dynstat_uvel_min             =  -8.1352459480144E-01
(PID.TID 0000.0001) %MON dynstat_uvel_mean            =  -4.7365736557521E-04
(PID.TID 0000.0001) %MON dynstat_uvel_sd              =   1.2944627603170E-02
(PID.TID 0000.0001) %MON dynstat_uvel_del2            =   8.6376117515932E-05
(PID.TID 0000.0001) %MON dynstat_vvel_max             =   9.0619489616601E-01
(PID.TID 0000.0001) %MON dynstat_vvel_min             =  -6.4136656184981E-01
(PID.TID 0000.0001) %MON dynstat_vvel_mean            =  -1.3754273757238E-04
(PID.TID 0000.0001) %MON dynstat_vvel_sd              =   1.3674105292514E-02
(PID.TID 0000.0001) %MON dynstat_vvel_del2            =   1.0904603516885E-04
(PID.TID 0000.0001) %MON dynstat_wvel_max             =   1.9841519274694E-04
(PID.TID 0000.0001) %MON dynstat_wvel_min             =  -2.0768263494586E-04
(PID.TID 0000.0001) %MON dynstat_wvel_mean            =  -3.9153128543659E-08
(PID.TID 0000.0001) %MON dynstat_wvel_sd              =   7.9618843331536E-06
(PID.TID 0000.0001) %MON dynstat_wvel_del2            =   7.4042928204056E-08
(PID.TID 0000.0001) %MON dynstat_theta_max            =   3.0938204265397E+01
(PID.TID 0000.0001) %MON dynstat_theta_min            =  -3.0044573030014E+00
(PID.TID 0000.0001) %MON dynstat_theta_mean           =   3.9092016300675E+00
(PID.TID 0000.0001) %MON dynstat_theta_sd             =   4.5715786053999E+00
(PID.TID 0000.0001) %MON dynstat_theta_del2           =   2.6462998148574E-03
(PID.TID 0000.0001) %MON dynstat_salt_max             =   4.1353683985014E+01
(PID.TID 0000.0001) %MON dynstat_salt_min             =   1.8518794231922E+01
(PID.TID 0000.0001) %MON dynstat_salt_mean            =   3.4771997949576E+01
(PID.TID 0000.0001) %MON dynstat_salt_sd              =   5.3166177054644E-01
(PID.TID 0000.0001) %MON dynstat_salt_del2            =   9.8906539348790E-04
(PID.TID 0000.0001) %MON dynstat_sst_max              =   3.0938204265397E+01
(PID.TID 0000.0001) %MON dynstat_sst_min              =  -1.8978668995648E+00
(PID.TID 0000.0001) %MON dynstat_sst_mean             =   1.8112683684701E+01
(PID.TID 0000.0001) %MON dynstat_sst_sd               =   9.8090318522801E+00
(PID.TID 0000.0001) %MON dynstat_sst_del2             =   1.5134735427290E-02
(PID.TID 0000.0001) %MON dynstat_sss_max              =   4.1353683985014E+01
(PID.TID 0000.0001) %MON dynstat_sss_min              =   1.8751623648133E+01
(PID.TID 0000.0001) %MON dynstat_sss_mean             =   3.4627610093958E+01
(PID.TID 0000.0001) %MON dynstat_sss_sd               =   1.4751746537427E+00
(PID.TID 0000.0001) %MON dynstat_sss_del2             =   1.0810381029194E-02
(PID.TID 0000.0001) %MON forcing_qnet_max             =   2.4190694004006E+03
(PID.TID 0000.0001) %MON forcing_qnet_min             =  -1.0723515625000E+04
(PID.TID 0000.0001) %MON forcing_qnet_mean            =   8.5516748111430E+00
(PID.TID 0000.0001) %MON forcing_qnet_sd              =   2.7691592343083E+02
(PID.TID 0000.0001) %MON forcing_qnet_del2            =   8.8234688713190E+00
(PID.TID 0000.0001) %MON forcing_qsw_max              =   0.0000000000000E+00
(PID.TID 0000.0001) %MON forcing_qsw_min              =  -4.2702245679497E+02
(PID.TID 0000.0001) %MON forcing_qsw_mean             =  -5.1250776498006E+01
(PID.TID 0000.0001) %MON forcing_qsw_sd               =   9.8224074908687E+01
(PID.TID 0000.0001) %MON forcing_qsw_del2             =   8.6412198339242E-01
(PID.TID 0000.0001) %MON forcing_empmr_max            =   7.2544217109680E-03
(PID.TID 0000.0001) %MON forcing_empmr_min            =  -1.0428082942963E-01
(PID.TID 0000.0001) %MON forcing_empmr_mean           =  -3.0109965487514E-04
(PID.TID 0000.0001) %MON forcing_empmr_sd             =   4.5918520187955E-03
(PID.TID 0000.0001) %MON forcing_empmr_del2           =   1.8131546660425E-04
(PID.TID 0000.0001) %MON forcing_fu_max               =   3.8201525582253E-01
(PID.TID 0000.0001) %MON forcing_fu_min               =  -3.6660069086142E-01
(PID.TID 0000.0001) %MON forcing_fu_mean              =  -2.5025372847426E-03
(PID.TID 0000.0001) %MON forcing_fu_sd                =   6.1202543822769E-02
(PID.TID 0000.0001) %MON forcing_fu_del2              =   6.0571930173844E-04
(PID.TID 0000.0001) %MON forcing_fv_max               =   3.1924478737062E-01
(PID.TID 0000.0001) %MON forcing_fv_min               =  -2.8634234531438E-01
(PID.TID 0000.0001) %MON forcing_fv_mean              =  -1.4289820173560E-02
(PID.TID 0000.0001) %MON forcing_fv_sd                =   6.3393440945529E-02
(PID.TID 0000.0001) %MON forcing_fv_del2              =   5.4425395978041E-04
(PID.TID 0000.0001) %MON trAdv_CFL_u_max              =   2.7095180222676E-03
(PID.TID 0000.0001) %MON trAdv_CFL_v_max              =   3.0270526824949E-03
(PID.TID 0000.0001) %MON trAdv_CFL_w_max              =   2.0835274990626E-03
(PID.TID 0000.0001) %MON advcfl_uvel_max              =   2.6358165140954E-03
(PID.TID 0000.0001) %MON advcfl_vvel_max              =   2.7156571441670E-03
(PID.TID 0000.0001) %MON advcfl_wvel_max              =   3.6271592845087E-03
(PID.TID 0000.0001) %MON advcfl_W_hf_max              =   2.5511509955211E-03
(PID.TID 0000.0001) %MON pe_b_mean                    =   5.0914434382072E-04
(PID.TID 0000.0001) %MON ke_max                       =   2.7021320081612E-01
(PID.TID 0000.0001) %MON ke_mean                      =   1.6383942816328E-04
(PID.TID 0000.0001) %MON ke_vol                       =   1.3398111538173E+18
(PID.TID 0000.0001) %MON vort_r_min                   =  -3.0092964792948E-06
(PID.TID 0000.0001) %MON vort_r_max                   =   4.0030765033969E-06
(PID.TID 0000.0001) %MON vort_a_mean                  =  -2.0549865324846E-05
(PID.TID 0000.0001) %MON vort_a_sd                    =   7.5259565160517E-05
(PID.TID 0000.0001) %MON vort_p_mean                  =  -2.4783311546908E-05
(PID.TID 0000.0001) %MON vort_p_sd                    =   1.2811920328326E-04
(PID.TID 0000.0001) %MON surfExpan_theta_mean         =  -6.1850937357398E-06
(PID.TID 0000.0001) %MON surfExpan_salt_mean          =   9.4234150239631E-07
(PID.TID 0000.0001) // =======================================================
(PID.TID 0000.0001) // End MONITOR dynamic field statistics
(PID.TID 0000.0001) // =======================================================
 cg2d: Sum(rhs),rhsMax =  -3.24732938738533E+01  6.48050039157727E+01
(PID.TID 0000.0001)      cg2d_init_res =   1.94206599981961E-01
(PID.TID 0000.0001)      cg2d_iters(min,last) =      -1      10
(PID.TID 0000.0001)      cg2d_last_res =   3.50748420535758E-08
(PID.TID 0000.0001) // =======================================================
(PID.TID 0000.0001) // Begin MONITOR dynamic field statistics
(PID.TID 0000.0001) // =======================================================
(PID.TID 0000.0001) %MON time_tsnumber                =                 72043
(PID.TID 0000.0001) %MON time_secondsf                =   6.4838700000000E+07
(PID.TID 0000.0001) %MON dynstat_eta_max              =   2.8878891494585E+00
(PID.TID 0000.0001) %MON dynstat_eta_min              =  -1.6085274040131E+00
(PID.TID 0000.0001) %MON dynstat_eta_mean             =   2.4453220117941E-02
(PID.TID 0000.0001) %MON dynstat_eta_sd               =   6.1771751230569E-01
(PID.TID 0000.0001) %MON dynstat_eta_del2             =   2.2507209051502E-03
(PID.TID 0000.0001) %MON dynstat_uvel_max             =   3.3980046153354E-01
(PID.TID 0000.0001) %MON dynstat_uvel_min             =  -7.6297898114708E-01
(PID.TID 0000.0001) %MON dynstat_uvel_mean            =  -4.9004597003448E-04
(PID.TID 0000.0001) %MON dynstat_uvel_sd              =   1.2907876917292E-02
(PID.TID 0000.0001) %MON dynstat_uvel_del2            =   8.6396410900483E-05
(PID.TID 0000.0001) %MON dynstat_vvel_max             =   8.3551141694479E-01
(PID.TID 0000.0001) %MON dynstat_vvel_min             =  -5.2983256934980E-01
(PID.TID 0000.0001) %MON dynstat_vvel_mean            =  -8.8275310478254E-05
(PID.TID 0000.0001) %MON dynstat_vvel_sd              =   1.3651397872289E-02
(PID.TID 0000.0001) %MON dynstat_vvel_del2            =   1.0491344102607E-04
(PID.TID 0000.0001) %MON dynstat_wvel_max             =   1.9266182197884E-04
(PID.TID 0000.0001) %MON dynstat_wvel_min             =  -2.1094013428814E-04
(PID.TID 0000.0001) %MON dynstat_wvel_mean            =  -5.7406373595220E-08
(PID.TID 0000.0001) %MON dynstat_wvel_sd              =   7.9149060941026E-06
(PID.TID 0000.0001) %MON dynstat_wvel_del2            =   7.4132819690866E-08
(PID.TID 0000.0001) %MON dynstat_theta_max            =   3.0938538010782E+01
(PID.TID 0000.0001) %MON dynstat_theta_min            =  -3.0043473727888E+00
(PID.TID 0000.0001) %MON dynstat_theta_mean           =   3.9092026436634E+00
(PID.TID 0000.0001) %MON dynstat_theta_sd             =   4.5715833369349E+00
(PID.TID 0000.0001) %MON dynstat_theta_del2           =   2.6461903854273E-03
(PID.TID 0000.0001) %MON dynstat_salt_max             =   4.1353334913649E+01
(PID.TID 0000.0001) %MON dynstat_salt_min             =   1.8518804709890E+01
(PID.TID 0000.0001) %MON dynstat_salt_mean            =   3.4771994890583E+01
(PID.TID 0000.0001) %MON dynstat_salt_sd              =   5.3167965970012E-01
(PID.TID 0000.0001) %MON dynstat_salt_del2            =   9.9385483256569E-04
(PID.TID 0000.0001) %MON dynstat_sst_max              =   3.0938538010782E+01
(PID.TID 0000.0001) %MON dynstat_sst_min              =  -1.8977906726138E+00
(PID.TID 0000.0001) %MON dynstat_sst_mean             =   1.8112659825796E+01
(PID.TID 0000.0001) %MON dynstat_sst_sd               =   9.8091452318638E+00
(PID.TID 0000.0001) %MON dynstat_sst_del2             =   1.5132705574166E-02
(PID.TID 0000.0001) %MON dynstat_sss_max              =   4.1353334913649E+01
(PID.TID 0000.0001) %MON dynstat_sss_min              =   1.8751672313771E+01
(PID.TID 0000.0001) %MON dynstat_sss_mean             =   3.4627394765803E+01
(PID.TID 0000.0001) %MON dynstat_sss_sd               =   1.4756246942282E+00
(PID.TID 0000.0001) %MON dynstat_sss_del2             =   1.0879472551454E-02
(PID.TID 0000.0001) %MON forcing_qnet_max             =   2.3880779741789E+03
(PID.TID 0000.0001) %MON forcing_qnet_min             =  -1.6364770507812E+03
(PID.TID 0000.0001) %MON forcing_qnet_mean            =   1.1961417544067E+01
(PID.TID 0000.0001) %MON forcing_qnet_sd              =   2.3243569859477E+02
(PID.TID 0000.0001) %MON forcing_qnet_del2            =   4.3713123802531E+00
(PID.TID 0000.0001) %MON forcing_qsw_max              =   0.0000000000000E+00
(PID.TID 0000.0001) %MON forcing_qsw_min              =  -4.2758312064959E+02
(PID.TID 0000.0001) %MON forcing_qsw_mean             =  -5.0915829849333E+01
(PID.TID 0000.0001) %MON forcing_qsw_sd               =   9.7792852805513E+01
(PID.TID 0000.0001) %MON forcing_qsw_del2             =   8.5872065024880E-01
(PID.TID 0000.0001) %MON forcing_empmr_max            =   7.1796346455812E-03
(PID.TID 0000.0001) %MON forcing_empmr_min            =  -1.0320679843426E-01
(PID.TID 0000.0001) %MON forcing_empmr_mean           =  -2.9856520158578E-04
(PID.TID 0000.0001) %MON forcing_empmr_sd             =   4.5444939029667E-03
(PID.TID 0000.0001) %MON forcing_empmr_del2           =   1.7943963031559E-04
(PID.TID 0000.0001) %MON forcing_fu_max               =   3.8236766211118E-01
(PID.TID 0000.0001) %MON forcing_fu_min               =  -3.6551677218776E-01
(PID.TID 0000.0001) %MON forcing_fu_mean              =  -2.4342921642897E-03
(PID.TID 0000.0001) %MON forcing_fu_sd                =   6.1160969627555E-02
(PID.TID 0000.0001) %MON forcing_fu_del2              =   6.0587457971975E-04
(PID.TID 0000.0001) %MON forcing_fv_max               =   3.2697524719160E-01
(PID.TID 0000.0001) %MON forcing_fv_min               =  -2.8778492023575E-01
(PID.TID 0000.0001) %MON forcing_fv_mean              =  -1.4438426296258E-02
(PID.TID 0000.0001) %MON forcing_fv_sd                =   6.3307831013046E-02
(PID.TID 0000.0001) %MON forcing_fv_del2              =   5.4315388238686E-04
(PID.TID 0000.0001) %MON trAdv_CFL_u_max              =   2.4588130265296E-03
(PID.TID 0000.0001) %MON trAdv_CFL_v_max              =   2.5807190281615E-03
(PID.TID 0000.0001) %MON trAdv_CFL_w_max              =   2.1033080639275E-03
(PID.TID 0000.0001) %MON advcfl_uvel_max              =   2.3858781032263E-03
(PID.TID 0000.0001) %MON advcfl_vvel_max              =   2.5038350558571E-03
(PID.TID 0000.0001) %MON advcfl_wvel_max              =   3.5898016846698E-03
(PID.TID 0000.0001) %MON advcfl_W_hf_max              =   2.4771599733334E-03
(PID.TID 0000.0001) %MON pe_b_mean                    =   5.0912156145777E-04
(PID.TID 0000.0001) %MON ke_max                       =   2.2576250099664E-01
(PID.TID 0000.0001) %MON ke_mean                      =   1.6311714473175E-04
(PID.TID 0000.0001) %MON ke_vol                       =   1.3398112490923E+18
(PID.TID 0000.0001) %MON vort_r_min                   =  -2.5814561435761E-06
(PID.TID 0000.0001) %MON vort_r_max                   =   3.8659220148979E-06
(PID.TID 0000.0001) %MON vort_a_mean                  =  -2.0549865324846E-05
(PID.TID 0000.0001) %MON vort_a_sd                    =   7.5259576650062E-05
(PID.TID 0000.0001) %MON vort_p_mean                  =  -2.4783310001227E-05
(PID.TID 0000.0001) %MON vort_p_sd                    =   1.2811919899752E-04
(PID.TID 0000.0001) %MON surfExpan_theta_mean         =  -6.1602871295188E-06
(PID.TID 0000.0001) %MON surfExpan_salt_mean          =   9.5926830407740E-07
(PID.TID 0000.0001) // =======================================================
(PID.TID 0000.0001) // End MONITOR dynamic field statistics
(PID.TID 0000.0001) // =======================================================
 Computing Diagnostic #     81  oceTAUX      Counter:       1   Parms: UU      U1      
           Vector  Mate for  oceTAUX      Diagnostic #     82  oceTAUY  exists 
 Computing Diagnostic #     82  oceTAUY      Counter:       1   Parms: VV      U1      
           Vector  Mate for  oceTAUY      Diagnostic #     81  oceTAUX  exists 
 Computing Diagnostic #     85  oceFWflx     Counter:       1   Parms: SM      U1      
 Computing Diagnostic #     86  oceSflux     Counter:       1   Parms: SM      U1      
 Computing Diagnostic #     87  oceQnet      Counter:       1   Parms: SM      U1      
 Computing Diagnostic #     88  oceQsw       Counter:       1   Parms: SM      U1      
 Computing Diagnostic #     27  SALT         Counter:       1   Parms: SMR     MR      
 Computing Diagnostic #     26  THETA        Counter:       1   Parms: SMR     MR      
 Computing Diagnostic #     45  UVELMASS     Counter:       1   Parms: UUr     MR      
           Vector  Mate for  UVELMASS     Diagnostic #     46  VVELMASS exists 
 Computing Diagnostic #     46  VVELMASS     Counter:       1   Parms: VVr     MR      
           Vector  Mate for  VVELMASS     Diagnostic #     45  UVELMASS exists 
 cg2d: Sum(rhs),rhsMax =  -3.21190651878765E+01  6.62092840340731E+01
(PID.TID 0000.0001)      cg2d_init_res =   1.79293829515077E-01
(PID.TID 0000.0001)      cg2d_iters(min,last) =      -1      10
(PID.TID 0000.0001)      cg2d_last_res =   5.80155042663603E-08
(PID.TID 0000.0001) // =======================================================
(PID.TID 0000.0001) // Begin MONITOR dynamic field statistics
(PID.TID 0000.0001) // =======================================================
(PID.TID 0000.0001) %MON time_tsnumber                =                 72044
(PID.TID 0000.0001) %MON time_secondsf                =   6.4839600000000E+07
(PID.TID 0000.0001) %MON dynstat_eta_max              =   2.9500438759943E+00
(PID.TID 0000.0001) %MON dynstat_eta_min              =  -1.6080455030503E+00
(PID.TID 0000.0001) %MON dynstat_eta_mean             =   2.4710581279228E-02
(PID.TID 0000.0001) %MON dynstat_eta_sd               =   6.1769146897512E-01
(PID.TID 0000.0001) %MON dynstat_eta_del2             =   2.3207367227393E-03
(PID.TID 0000.0001) %MON dynstat_uvel_max             =   3.3965346869869E-01
(PID.TID 0000.0001) %MON dynstat_uvel_min             =  -7.0610113926118E-01
(PID.TID 0000.0001) %MON dynstat_uvel_mean            =  -5.0323647341248E-04
(PID.TID 0000.0001) %MON dynstat_uvel_sd              =   1.2866686583925E-02
(PID.TID 0000.0001) %MON dynstat_uvel_del2            =   8.6524683934042E-05
(PID.TID 0000.0001) %MON dynstat_vvel_max             =   7.5881323403234E-01
(PID.TID 0000.0001) %MON dynstat_vvel_min             =  -4.1436407838477E-01
(PID.TID 0000.0001) %MON dynstat_vvel_mean            =  -3.7752144178608E-05
(PID.TID 0000.0001) %MON dynstat_vvel_sd              =   1.3637538976937E-02
(PID.TID 0000.0001) %MON dynstat_vvel_del2            =   1.0075413941077E-04
(PID.TID 0000.0001) %MON dynstat_wvel_max             =   1.8655596841258E-04
(PID.TID 0000.0001) %MON dynstat_wvel_min             =  -2.1287687608923E-04
(PID.TID 0000.0001) %MON dynstat_wvel_mean            =  -7.8438039472511E-08
(PID.TID 0000.0001) %MON dynstat_wvel_sd              =   7.8755352073507E-06
(PID.TID 0000.0001) %MON dynstat_wvel_del2            =   7.4275498968317E-08
(PID.TID 0000.0001) %MON dynstat_theta_max            =   3.0938831505475E+01
(PID.TID 0000.0001) %MON dynstat_theta_min            =  -3.0042606714644E+00
(PID.TID 0000.0001) %MON dynstat_theta_mean           =   3.9092035758805E+00
(PID.TID 0000.0001) %MON dynstat_theta_sd             =   4.5715876652308E+00
(PID.TID 0000.0001) %MON dynstat_theta_del2           =   2.6460740206609E-03
(PID.TID 0000.0001) %MON dynstat_salt_max             =   4.1352982072439E+01
(PID.TID 0000.0001) %MON dynstat_salt_min             =   1.8518815168951E+01
(PID.TID 0000.0001) %MON dynstat_salt_mean            =   3.4771991886136E+01
(PID.TID 0000.0001) %MON dynstat_salt_sd              =   5.3169736708493E-01
(PID.TID 0000.0001) %MON dynstat_salt_del2            =   9.9857577704553E-04
(PID.TID 0000.0001) %MON dynstat_sst_max              =   3.0938831505475E+01
(PID.TID 0000.0001) %MON dynstat_sst_min              =  -1.8977079652415E+00
(PID.TID 0000.0001) %MON dynstat_sst_mean             =   1.8112629420776E+01
(PID.TID 0000.0001) %MON dynstat_sst_sd               =   9.8092545134889E+00
(PID.TID 0000.0001) %MON dynstat_sst_del2             =   1.5130633445592E-02
(PID.TID 0000.0001) %MON dynstat_sss_max              =   4.1352982072439E+01
(PID.TID 0000.0001) %MON dynstat_sss_min              =   1.8751708910266E+01
(PID.TID 0000.0001) %MON dynstat_sss_mean             =   3.4627183423267E+01
(PID.TID 0000.0001) %MON dynstat_sss_sd               =   1.4760697803666E+00
(PID.TID 0000.0001) %MON dynstat_sss_del2             =   1.0947483012777E-02
(PID.TID 0000.0001) %MON forcing_qnet_max             =   2.3599368167874E+03
(PID.TID 0000.0001) %MON forcing_qnet_min             =  -1.5794132080078E+03
(PID.TID 0000.0001) %MON forcing_qnet_mean            =   1.3188108037443E+01
(PID.TID 0000.0001) %MON forcing_qnet_sd              =   2.3017514911008E+02
(PID.TID 0000.0001) %MON forcing_qnet_del2            =   4.3045013890643E+00
(PID.TID 0000.0001) %MON forcing_qsw_max              =   0.0000000000000E+00
(PID.TID 0000.0001) %MON forcing_qsw_min              =  -4.2950415988099E+02
(PID.TID 0000.0001) %MON forcing_qsw_mean             =  -5.0525343799321E+01
(PID.TID 0000.0001) %MON forcing_qsw_sd               =   9.7130851159406E+01
(PID.TID 0000.0001) %MON forcing_qsw_del2             =   8.5285177465420E-01
(PID.TID 0000.0001) %MON forcing_empmr_max            =   7.1056350134313E-03
(PID.TID 0000.0001) %MON forcing_empmr_min            =  -1.0214367508888E-01
(PID.TID 0000.0001) %MON forcing_empmr_mean           =  -2.9596533548081E-04
(PID.TID 0000.0001) %MON forcing_empmr_sd             =   4.4975892546723E-03
(PID.TID 0000.0001) %MON forcing_empmr_del2           =   1.7758060340332E-04
(PID.TID 0000.0001) %MON forcing_fu_max               =   3.8070515229572E-01
(PID.TID 0000.0001) %MON forcing_fu_min               =  -3.6507276659130E-01
(PID.TID 0000.0001) %MON forcing_fu_mean              =  -2.4298114726759E-03
(PID.TID 0000.0001) %MON forcing_fu_sd                =   6.0961850305041E-02
(PID.TID 0000.0001) %MON forcing_fu_del2              =   6.0443061435470E-04
(PID.TID 0000.0001) %MON forcing_fv_max               =   3.2788596453541E-01
(PID.TID 0000.0001) %MON forcing_fv_min               =  -2.8905933767090E-01
(PID.TID 0000.0001) %MON forcing_fv_mean              =  -1.4623825142460E-02
(PID.TID 0000.0001) %MON forcing_fv_sd                =   6.3208966353198E-02
(PID.TID 0000.0001) %MON forcing_fv_del2              =   5.4230492242506E-04
(PID.TID 0000.0001) %MON trAdv_CFL_u_max              =   2.1700470314509E-03
(PID.TID 0000.0001) %MON trAdv_CFL_v_max              =   2.2949327675895E-03
(PID.TID 0000.0001) %MON trAdv_CFL_w_max              =   2.1051067965371E-03
(PID.TID 0000.0001) %MON advcfl_uvel_max              =   2.1010403674690E-03
(PID.TID 0000.0001) %MON advcfl_vvel_max              =   2.2739882875162E-03
(PID.TID 0000.0001) %MON advcfl_wvel_max              =   3.5528234813524E-03
(PID.TID 0000.0001) %MON advcfl_W_hf_max              =   2.3986395630821E-03
(PID.TID 0000.0001) %MON pe_b_mean                    =   5.0909551973689E-04
(PID.TID 0000.0001) %MON ke_max                       =   1.8221591031623E-01
(PID.TID 0000.0001) %MON ke_mean                      =   1.6245700616647E-04
(PID.TID 0000.0001) %MON ke_vol                       =   1.3398113435653E+18
(PID.TID 0000.0001) %MON vort_r_min                   =  -2.6167262984664E-06
(PID.TID 0000.0001) %MON vort_r_max                   =   3.6469219759794E-06
(PID.TID 0000.0001) %MON vort_a_mean                  =  -2.0549865324846E-05
(PID.TID 0000.0001) %MON vort_a_sd                    =   7.5259588479634E-05
(PID.TID 0000.0001) %MON vort_p_mean                  =  -2.4783308440920E-05
(PID.TID 0000.0001) %MON vort_p_sd                    =   1.2811919045945E-04
(PID.TID 0000.0001) %MON surfExpan_theta_mean         =  -6.1537934957755E-06
(PID.TID 0000.0001) %MON surfExpan_salt_mean          =   9.8005932483662E-07
(PID.TID 0000.0001) // =======================================================
(PID.TID 0000.0001) // End MONITOR dynamic field statistics
(PID.TID 0000.0001) // =======================================================
 cg2d: Sum(rhs),rhsMax =  -3.19294536233696E+01  6.72886031669904E+01
(PID.TID 0000.0001)      cg2d_init_res =   1.65888280222985E-01
(PID.TID 0000.0001)      cg2d_iters(min,last) =      -1      10
(PID.TID 0000.0001)      cg2d_last_res =   6.97750440563540E-08
(PID.TID 0000.0001) // =======================================================
(PID.TID 0000.0001) // Begin MONITOR dynamic field statistics
(PID.TID 0000.0001) // =======================================================
(PID.TID 0000.0001) %MON time_tsnumber                =                 72045
(PID.TID 0000.0001) %MON time_secondsf                =   6.4840500000000E+07
(PID.TID 0000.0001) %MON dynstat_eta_max              =   2.9977741530237E+00
(PID.TID 0000.0001) %MON dynstat_eta_min              =  -1.6072955780403E+00
(PID.TID 0000.0001) %MON dynstat_eta_mean             =   2.4965149616869E-02
(PID.TID 0000.0001) %MON dynstat_eta_sd               =   6.1764421478316E-01
(PID.TID 0000.0001) %MON dynstat_eta_del2             =   2.3824785425894E-03
(PID.TID 0000.0001) %MON dynstat_uvel_max             =   3.3781041108466E-01
(PID.TID 0000.0001) %MON dynstat_uvel_min             =  -6.4351226246919E-01
(PID.TID 0000.0001) %MON dynstat_uvel_mean            =  -5.1320872624731E-04
(PID.TID 0000.0001) %MON dynstat_uvel_sd              =   1.2823722030528E-02
(PID.TID 0000.0001) %MON dynstat_uvel_del2            =   8.6791295004321E-05
(PID.TID 0000.0001) %MON dynstat_vvel_max             =   6.7757323443877E-01
(PID.TID 0000.0001) %MON dynstat_vvel_min             =  -3.9978001994193E-01
(PID.TID 0000.0001) %MON dynstat_vvel_mean            =   1.3338177043047E-05
(PID.TID 0000.0001) %MON dynstat_vvel_sd              =   1.3632730634394E-02
(PID.TID 0000.0001) %MON dynstat_vvel_del2            =   9.6742965831567E-05
(PID.TID 0000.0001) %MON dynstat_wvel_max             =   1.8035780192738E-04
(PID.TID 0000.0001) %MON dynstat_wvel_min             =  -2.1337976571678E-04
(PID.TID 0000.0001) %MON dynstat_wvel_mean            =  -1.0156655584322E-07
(PID.TID 0000.0001) %MON dynstat_wvel_sd              =   7.8451678491210E-06
(PID.TID 0000.0001) %MON dynstat_wvel_del2            =   7.4476543572436E-08
(PID.TID 0000.0001) %MON dynstat_theta_max            =   3.0939021943180E+01
(PID.TID 0000.0001) %MON dynstat_theta_min            =  -3.0042021564857E+00
(PID.TID 0000.0001) %MON dynstat_theta_mean           =   3.9092044247808E+00
(PID.TID 0000.0001) %MON dynstat_theta_sd             =   4.5715914839240E+00
(PID.TID 0000.0001) %MON dynstat_theta_del2           =   2.6459558330700E-03
(PID.TID 0000.0001) %MON dynstat_salt_max             =   4.1352626906600E+01
(PID.TID 0000.0001) %MON dynstat_salt_min             =   1.8518825605662E+01
(PID.TID 0000.0001) %MON dynstat_salt_mean            =   3.4771988923838E+01
(PID.TID 0000.0001) %MON dynstat_salt_sd              =   5.3171488310547E-01
(PID.TID 0000.0001) %MON dynstat_salt_del2            =   1.0032274615021E-03
(PID.TID 0000.0001) %MON dynstat_sst_max              =   3.0939021943180E+01
(PID.TID 0000.0001) %MON dynstat_sst_min              =  -1.8976201787487E+00
(PID.TID 0000.0001) %MON dynstat_sst_mean             =   1.8112592976993E+01
(PID.TID 0000.0001) %MON dynstat_sst_sd               =   9.8093562257996E+00
(PID.TID 0000.0001) %MON dynstat_sst_del2             =   1.5128474143757E-02
(PID.TID 0000.0001) %MON dynstat_sss_max              =   4.1352626906600E+01
(PID.TID 0000.0001) %MON dynstat_sss_min              =   1.8751741689350E+01
(PID.TID 0000.0001) %MON dynstat_sss_mean             =   3.4626975252445E+01
(PID.TID 0000.0001) %MON dynstat_sss_sd               =   1.4765096989081E+00
(PID.TID 0000.0001) %MON dynstat_sss_del2             =   1.1014391222900E-02
(PID.TID 0000.0001) %MON forcing_qnet_max             =   2.3300704818484E+03
(PID.TID 0000.0001) %MON forcing_qnet_min             =  -1.4529835622177E+03
(PID.TID 0000.0001) %MON forcing_qnet_mean            =   1.4421919204479E+01
(PID.TID 0000.0001) %MON forcing_qnet_sd              =   2.2678581148532E+02
(PID.TID 0000.0001) %MON forcing_qnet_del2            =   4.3742034699137E+00
(PID.TID 0000.0001) %MON forcing_qsw_max              =   0.0000000000000E+00
(PID.TID 0000.0001) %MON forcing_qsw_min              =  -4.3479419416027E+02
(PID.TID 0000.0001) %MON forcing_qsw_mean             =  -5.0044025712084E+01
(PID.TID 0000.0001) %MON forcing_qsw_sd               =   9.5111457333901E+01
(PID.TID 0000.0001) %MON forcing_qsw_del2             =   8.3889718299780E-01
(PID.TID 0000.0001) %MON forcing_empmr_max            =   7.0324228145182E-03
(PID.TID 0000.0001) %MON forcing_empmr_min            =  -1.0109146684408E-01
(PID.TID 0000.0001) %MON forcing_empmr_mean           =  -2.9275358828738E-04
(PID.TID 0000.0001) %MON forcing_empmr_sd             =   4.4511212686390E-03
(PID.TID 0000.0001) %MON forcing_empmr_del2           =   1.7572137089757E-04
(PID.TID 0000.0001) %MON forcing_fu_max               =   3.8187254212513E-01
(PID.TID 0000.0001) %MON forcing_fu_min               =  -3.6616994544936E-01
(PID.TID 0000.0001) %MON forcing_fu_mean              =  -2.4492405562320E-03
(PID.TID 0000.0001) %MON forcing_fu_sd                =   6.0840307608286E-02
(PID.TID 0000.0001) %MON forcing_fu_del2              =   6.0409805765611E-04
(PID.TID 0000.0001) %MON forcing_fv_max               =   3.3433595429745E-01
(PID.TID 0000.0001) %MON forcing_fv_min               =  -2.9001611325016E-01
(PID.TID 0000.0001) %MON forcing_fv_mean              =  -1.4761532424117E-02
(PID.TID 0000.0001) %MON forcing_fv_sd                =   6.3074788856461E-02
(PID.TID 0000.0001) %MON forcing_fv_del2              =   5.4131826907766E-04
(PID.TID 0000.0001) %MON trAdv_CFL_u_max              =   1.9479270209529E-03
(PID.TID 0000.0001) %MON trAdv_CFL_v_max              =   2.0550363235350E-03
(PID.TID 0000.0001) %MON trAdv_CFL_w_max              =   2.0881973838802E-03
(PID.TID 0000.0001) %MON advcfl_uvel_max              =   1.8940091317212E-03
(PID.TID 0000.0001) %MON advcfl_vvel_max              =   2.0305307418802E-03
(PID.TID 0000.0001) %MON advcfl_wvel_max              =   3.5162249337072E-03
(PID.TID 0000.0001) %MON advcfl_W_hf_max              =   2.3189347392684E-03
(PID.TID 0000.0001) %MON pe_b_mean                    =   5.0903456518722E-04
(PID.TID 0000.0001) %MON ke_max                       =   1.4134446816047E-01
(PID.TID 0000.0001) %MON ke_mean                      =   1.6189317452736E-04
(PID.TID 0000.0001) %MON ke_vol                       =   1.3398114372156E+18
(PID.TID 0000.0001) %MON vort_r_min                   =  -2.6885940878699E-06
(PID.TID 0000.0001) %MON vort_r_max                   =   3.3536802938070E-06
(PID.TID 0000.0001) %MON vort_a_mean                  =  -2.0549865324846E-05
(PID.TID 0000.0001) %MON vort_a_sd                    =   7.5259600486132E-05
(PID.TID 0000.0001) %MON vort_p_mean                  =  -2.4783306857437E-05
(PID.TID 0000.0001) %MON vort_p_sd                    =   1.2811917843429E-04
(PID.TID 0000.0001) %MON surfExpan_theta_mean         =  -6.1633077136287E-06
(PID.TID 0000.0001) %MON surfExpan_salt_mean          =   1.0052548300821E-06
(PID.TID 0000.0001) // =======================================================
(PID.TID 0000.0001) // End MONITOR dynamic field statistics
(PID.TID 0000.0001) // =======================================================
 cg2d: Sum(rhs),rhsMax =  -3.19025047524314E+01  6.80257761125502E+01
(PID.TID 0000.0001)      cg2d_init_res =   1.54373513913400E-01
(PID.TID 0000.0001)      cg2d_iters(min,last) =      -1      10
(PID.TID 0000.0001)      cg2d_last_res =   7.43400297347245E-08
(PID.TID 0000.0001) // =======================================================
(PID.TID 0000.0001) // Begin MONITOR dynamic field statistics
(PID.TID 0000.0001) // =======================================================
(PID.TID 0000.0001) %MON time_tsnumber                =                 72046
(PID.TID 0000.0001) %MON time_secondsf                =   6.4841400000000E+07
(PID.TID 0000.0001) %MON dynstat_eta_max              =   3.0303179523784E+00
(PID.TID 0000.0001) %MON dynstat_eta_min              =  -1.6062655977941E+00
(PID.TID 0000.0001) %MON dynstat_eta_mean             =   2.5217350839339E-02
(PID.TID 0000.0001) %MON dynstat_eta_sd               =   6.1755873829729E-01
(PID.TID 0000.0001) %MON dynstat_eta_del2             =   2.4311251931975E-03
(PID.TID 0000.0001) %MON dynstat_uvel_max             =   3.3426455243876E-01
(PID.TID 0000.0001) %MON dynstat_uvel_min             =  -5.7591528090403E-01
(PID.TID 0000.0001) %MON dynstat_uvel_mean            =  -5.1996097395318E-04
(PID.TID 0000.0001) %MON dynstat_uvel_sd              =   1.2781696224684E-02
(PID.TID 0000.0001) %MON dynstat_uvel_del2            =   8.7214305431590E-05
(PID.TID 0000.0001) %MON dynstat_vvel_max             =   5.9323632819882E-01
(PID.TID 0000.0001) %MON dynstat_vvel_min             =  -3.9347210690345E-01
(PID.TID 0000.0001) %MON dynstat_vvel_mean            =   6.4290020586255E-05
(PID.TID 0000.0001) %MON dynstat_vvel_sd              =   1.3636720320706E-02
(PID.TID 0000.0001) %MON dynstat_vvel_del2            =   9.3066142205135E-05
(PID.TID 0000.0001) %MON dynstat_wvel_max             =   1.7471380964003E-04
(PID.TID 0000.0001) %MON dynstat_wvel_min             =  -2.1233807139432E-04
(PID.TID 0000.0001) %MON dynstat_wvel_mean            =  -1.2677167768764E-07
(PID.TID 0000.0001) %MON dynstat_wvel_sd              =   7.8250094983628E-06
(PID.TID 0000.0001) %MON dynstat_wvel_del2            =   7.4736752195002E-08
(PID.TID 0000.0001) %MON dynstat_theta_max            =   3.0939173782489E+01
(PID.TID 0000.0001) %MON dynstat_theta_min            =  -3.0041759303055E+00
(PID.TID 0000.0001) %MON dynstat_theta_mean           =   3.9092052808731E+00
(PID.TID 0000.0001) %MON dynstat_theta_sd             =   4.5715952409181E+00
(PID.TID 0000.0001) %MON dynstat_theta_del2           =   2.6458249930599E-03
(PID.TID 0000.0001) %MON dynstat_salt_max             =   4.1352271300896E+01
(PID.TID 0000.0001) %MON dynstat_salt_min             =   1.8518836017606E+01
(PID.TID 0000.0001) %MON dynstat_salt_mean            =   3.4771986013647E+01
(PID.TID 0000.0001) %MON dynstat_salt_sd              =   5.3173220527782E-01
(PID.TID 0000.0001) %MON dynstat_salt_del2            =   1.0078082778566E-03
(PID.TID 0000.0001) %MON dynstat_sst_max              =   3.0939173782489E+01
(PID.TID 0000.0001) %MON dynstat_sst_min              =  -1.8975271032865E+00
(PID.TID 0000.0001) %MON dynstat_sst_mean             =   1.8112558250083E+01
(PID.TID 0000.0001) %MON dynstat_sst_sd               =   9.8094567638877E+00
(PID.TID 0000.0001) %MON dynstat_sst_del2             =   1.5126100042049E-02
(PID.TID 0000.0001) %MON dynstat_sss_max              =   4.1352271300896E+01
(PID.TID 0000.0001) %MON dynstat_sss_min              =   1.8751771728663E+01
(PID.TID 0000.0001) %MON dynstat_sss_mean             =   3.4626771466798E+01
(PID.TID 0000.0001) %MON dynstat_sss_sd               =   1.4769454977974E+00
(PID.TID 0000.0001) %MON dynstat_sss_del2             =   1.1080195005868E-02
(PID.TID 0000.0001) %MON forcing_qnet_max             =   2.6180481268831E+03
(PID.TID 0000.0001) %MON forcing_qnet_min             =  -2.4723876953125E+03
(PID.TID 0000.0001) %MON forcing_qnet_mean            =   1.4250042281719E+01
(PID.TID 0000.0001) %MON forcing_qnet_sd              =   2.3196589078919E+02
(PID.TID 0000.0001) %MON forcing_qnet_del2            =   5.1575524707022E+00
(PID.TID 0000.0001) %MON forcing_qsw_max              =   0.0000000000000E+00
(PID.TID 0000.0001) %MON forcing_qsw_min              =  -4.3679591721589E+02
(PID.TID 0000.0001) %MON forcing_qsw_mean             =  -5.0187846507817E+01
(PID.TID 0000.0001) %MON forcing_qsw_sd               =   9.4465066701589E+01
(PID.TID 0000.0001) %MON forcing_qsw_del2             =   8.3892945547058E-01
(PID.TID 0000.0001) %MON forcing_empmr_max            =   6.9598988629878E-03
(PID.TID 0000.0001) %MON forcing_empmr_min            =  -1.0005015134811E-01
(PID.TID 0000.0001) %MON forcing_empmr_mean           =  -2.9003140583933E-04
(PID.TID 0000.0001) %MON forcing_empmr_sd             =   4.4050027183043E-03
(PID.TID 0000.0001) %MON forcing_empmr_del2           =   1.7387273942267E-04
(PID.TID 0000.0001) %MON forcing_fu_max               =   3.8414038346619E-01
(PID.TID 0000.0001) %MON forcing_fu_min               =  -3.6499540668995E-01
(PID.TID 0000.0001) %MON forcing_fu_mean              =  -2.4391440111398E-03
(PID.TID 0000.0001) %MON forcing_fu_sd                =   6.0746841553677E-02
(PID.TID 0000.0001) %MON forcing_fu_del2              =   6.0375694869433E-04
(PID.TID 0000.0001) %MON forcing_fv_max               =   3.2302100531569E-01
(PID.TID 0000.0001) %MON forcing_fv_min               =  -2.9130407725797E-01
(PID.TID 0000.0001) %MON forcing_fv_mean              =  -1.4903377716127E-02
(PID.TID 0000.0001) %MON forcing_fv_sd                =   6.2822857170963E-02
(PID.TID 0000.0001) %MON forcing_fv_del2              =   5.3848649064084E-04
(PID.TID 0000.0001) %MON trAdv_CFL_u_max              =   1.7462711819001E-03
(PID.TID 0000.0001) %MON trAdv_CFL_v_max              =   1.8650929304428E-03
(PID.TID 0000.0001) %MON trAdv_CFL_w_max              =   2.0519925576929E-03
(PID.TID 0000.0001) %MON advcfl_uvel_max              =   1.6950551912477E-03
(PID.TID 0000.0001) %MON advcfl_vvel_max              =   1.7777924811413E-03
(PID.TID 0000.0001) %MON advcfl_wvel_max              =   3.4800052642822E-03
(PID.TID 0000.0001) %MON advcfl_W_hf_max              =   2.2409157902115E-03
(PID.TID 0000.0001) %MON pe_b_mean                    =   5.0891073793323E-04
(PID.TID 0000.0001) %MON ke_max                       =   1.2651557375517E-01
(PID.TID 0000.0001) %MON ke_mean                      =   1.6145434895787E-04
(PID.TID 0000.0001) %MON ke_vol                       =   1.3398115298496E+18
(PID.TID 0000.0001) %MON vort_r_min                   =  -2.7525058379260E-06
(PID.TID 0000.0001) %MON vort_r_max                   =   2.9949995177041E-06
(PID.TID 0000.0001) %MON vort_a_mean                  =  -2.0549865324846E-05
(PID.TID 0000.0001) %MON vort_a_sd                    =   7.5259612514422E-05
(PID.TID 0000.0001) %MON vort_p_mean                  =  -2.4783305245892E-05
(PID.TID 0000.0001) %MON vort_p_sd                    =   1.2811916378369E-04
(PID.TID 0000.0001) %MON surfExpan_theta_mean         =  -6.2134359021070E-06
(PID.TID 0000.0001) %MON surfExpan_salt_mean          =   1.0323416272914E-06
(PID.TID 0000.0001) // =======================================================
(PID.TID 0000.0001) // End MONITOR dynamic field statistics
(PID.TID 0000.0001) // =======================================================
 cg2d: Sum(rhs),rhsMax =  -3.20391577337432E+01  6.84075018078377E+01
(PID.TID 0000.0001)      cg2d_init_res =   1.45207350262896E-01
(PID.TID 0000.0001)      cg2d_iters(min,last) =      -1      10
(PID.TID 0000.0001)      cg2d_last_res =   7.60712840262818E-08
(PID.TID 0000.0001) // =======================================================
(PID.TID 0000.0001) // Begin MONITOR dynamic field statistics
(PID.TID 0000.0001) // =======================================================
(PID.TID 0000.0001) %MON time_tsnumber                =                 72047
(PID.TID 0000.0001) %MON time_secondsf                =   6.4842300000000E+07
(PID.TID 0000.0001) %MON dynstat_eta_max              =   3.0502657889418E+00
(PID.TID 0000.0001) %MON dynstat_eta_min              =  -1.6049681400465E+00
(PID.TID 0000.0001) %MON dynstat_eta_mean             =   2.5467481208047E-02
(PID.TID 0000.0001) %MON dynstat_eta_sd               =   6.1742065077913E-01
(PID.TID 0000.0001) %MON dynstat_eta_del2             =   2.4630988683429E-03
(PID.TID 0000.0001) %MON dynstat_uvel_max             =   3.2902305914608E-01
(PID.TID 0000.0001) %MON dynstat_uvel_min             =  -5.6837789910664E-01
(PID.TID 0000.0001) %MON dynstat_uvel_mean            =  -5.2352560624651E-04
(PID.TID 0000.0001) %MON dynstat_uvel_sd              =   1.2743221077952E-02
(PID.TID 0000.0001) %MON dynstat_uvel_del2            =   8.7799326261616E-05
(PID.TID 0000.0001) %MON dynstat_vvel_max             =   5.0721176862355E-01
(PID.TID 0000.0001) %MON dynstat_vvel_min             =  -3.9233219852328E-01
(PID.TID 0000.0001) %MON dynstat_vvel_mean            =   1.1444947492751E-04
(PID.TID 0000.0001) %MON dynstat_vvel_sd              =   1.3648809278282E-02
(PID.TID 0000.0001) %MON dynstat_vvel_del2            =   8.9909034916977E-05
(PID.TID 0000.0001) %MON dynstat_wvel_max             =   1.6923836238085E-04
(PID.TID 0000.0001) %MON dynstat_wvel_min             =  -2.0965855420920E-04
(PID.TID 0000.0001) %MON dynstat_wvel_mean            =  -1.5298881773198E-07
(PID.TID 0000.0001) %MON dynstat_wvel_sd              =   7.8162707317029E-06
(PID.TID 0000.0001) %MON dynstat_wvel_del2            =   7.5058309261999E-08
(PID.TID 0000.0001) %MON dynstat_theta_max            =   3.0939285610857E+01
(PID.TID 0000.0001) %MON dynstat_theta_min            =  -3.0041851779930E+00
(PID.TID 0000.0001) %MON dynstat_theta_mean           =   3.9092063307763E+00
(PID.TID 0000.0001) %MON dynstat_theta_sd             =   4.5715993963085E+00
(PID.TID 0000.0001) %MON dynstat_theta_del2           =   2.6456760271773E-03
(PID.TID 0000.0001) %MON dynstat_salt_max             =   4.1351917117335E+01
(PID.TID 0000.0001) %MON dynstat_salt_min             =   1.8518846403552E+01
(PID.TID 0000.0001) %MON dynstat_salt_mean            =   3.4771983218535E+01
(PID.TID 0000.0001) %MON dynstat_salt_sd              =   5.3174931114217E-01
(PID.TID 0000.0001) %MON dynstat_salt_del2            =   1.0123230568252E-03
(PID.TID 0000.0001) %MON dynstat_sst_max              =   3.0939285610857E+01
(PID.TID 0000.0001) %MON dynstat_sst_min              =  -1.8974313620466E+00
(PID.TID 0000.0001) %MON dynstat_sst_mean             =   1.8112539186509E+01
(PID.TID 0000.0001) %MON dynstat_sst_sd               =   9.8095509174769E+00
(PID.TID 0000.0001) %MON dynstat_sst_del2             =   1.5123184595255E-02
(PID.TID 0000.0001) %MON dynstat_sss_max              =   4.1351917117335E+01
(PID.TID 0000.0001) %MON dynstat_sss_min              =   1.8751799632415E+01
(PID.TID 0000.0001) %MON dynstat_sss_mean             =   3.4626576467542E+01
(PID.TID 0000.0001) %MON dynstat_sss_sd               =   1.4773758257942E+00
(PID.TID 0000.0001) %MON dynstat_sss_del2             =   1.1144959825600E-02
(PID.TID 0000.0001) %MON forcing_qnet_max             =   4.0320418963364E+03
(PID.TID 0000.0001) %MON forcing_qnet_min             =  -1.8554808593750E+04
(PID.TID 0000.0001) %MON forcing_qnet_mean            =   1.0862421223870E+01
(PID.TID 0000.0001) %MON forcing_qnet_sd              =   3.7151479235298E+02
(PID.TID 0000.0001) %MON forcing_qnet_del2            =   1.2328184328567E+01
(PID.TID 0000.0001) %MON forcing_qsw_max              =   0.0000000000000E+00
(PID.TID 0000.0001) %MON forcing_qsw_min              =  -4.3698760279085E+02
(PID.TID 0000.0001) %MON forcing_qsw_mean             =  -5.0250369488227E+01
(PID.TID 0000.0001) %MON forcing_qsw_sd               =   9.3671403211853E+01
(PID.TID 0000.0001) %MON forcing_qsw_del2             =   8.3788554308899E-01
(PID.TID 0000.0001) %MON forcing_empmr_max            =   6.8881628103554E-03
(PID.TID 0000.0001) %MON forcing_empmr_min            =  -9.9018916487694E-02
(PID.TID 0000.0001) %MON forcing_empmr_mean           =  -2.8764992401475E-04
(PID.TID 0000.0001) %MON forcing_empmr_sd             =   4.3601385198569E-03
(PID.TID 0000.0001) %MON forcing_empmr_del2           =   1.7209632976556E-04
(PID.TID 0000.0001) %MON forcing_fu_max               =   3.8627810241543E-01
(PID.TID 0000.0001) %MON forcing_fu_min               =  -3.6541725005498E-01
(PID.TID 0000.0001) %MON forcing_fu_mean              =  -2.4126798066628E-03
(PID.TID 0000.0001) %MON forcing_fu_sd                =   6.0718354570013E-02
(PID.TID 0000.0001) %MON forcing_fu_del2              =   6.0419021589145E-04
(PID.TID 0000.0001) %MON forcing_fv_max               =   3.1542714419153E-01
(PID.TID 0000.0001) %MON forcing_fv_min               =  -2.9227672522762E-01
(PID.TID 0000.0001) %MON forcing_fv_mean              =  -1.5041369299338E-02
(PID.TID 0000.0001) %MON forcing_fv_sd                =   6.2495768864883E-02
(PID.TID 0000.0001) %MON forcing_fv_del2              =   5.3613807314619E-04
(PID.TID 0000.0001) %MON trAdv_CFL_u_max              =   1.6135931919480E-03
(PID.TID 0000.0001) %MON trAdv_CFL_v_max              =   1.7645800903820E-03
(PID.TID 0000.0001) %MON trAdv_CFL_w_max              =   1.9961822345601E-03
(PID.TID 0000.0001) %MON advcfl_uvel_max              =   1.6168635228410E-03
(PID.TID 0000.0001) %MON advcfl_vvel_max              =   1.5199967125127E-03
(PID.TID 0000.0001) %MON advcfl_wvel_max              =   3.4441362256589E-03
(PID.TID 0000.0001) %MON advcfl_W_hf_max              =   2.1668203510996E-03
(PID.TID 0000.0001) %MON pe_b_mean                    =   5.0870040925583E-04
(PID.TID 0000.0001) %MON ke_max                       =   1.3771757803061E-01
(PID.TID 0000.0001) %MON ke_mean                      =   1.6116211254948E-04
(PID.TID 0000.0001) %MON ke_vol                       =   1.3398116216223E+18
(PID.TID 0000.0001) %MON vort_r_min                   =  -2.8572769570635E-06
(PID.TID 0000.0001) %MON vort_r_max                   =   2.5807045159148E-06
(PID.TID 0000.0001) %MON vort_a_mean                  =  -2.0549865324846E-05
(PID.TID 0000.0001) %MON vort_a_sd                    =   7.5259624424196E-05
(PID.TID 0000.0001) %MON vort_p_mean                  =  -2.4783303594908E-05
(PID.TID 0000.0001) %MON vort_p_sd                    =   1.2811914753413E-04
(PID.TID 0000.0001) %MON surfExpan_theta_mean         =  -6.2852006185448E-06
(PID.TID 0000.0001) %MON surfExpan_salt_mean          =   1.0606078774068E-06
(PID.TID 0000.0001) // =======================================================
(PID.TID 0000.0001) // End MONITOR dynamic field statistics
(PID.TID 0000.0001) // =======================================================
 Computing Diagnostic #     81  oceTAUX      Counter:       1   Parms: UU      U1      
           Vector  Mate for  oceTAUX      Diagnostic #     82  oceTAUY  exists 
 Computing Diagnostic #     82  oceTAUY      Counter:       1   Parms: VV      U1      
           Vector  Mate for  oceTAUY      Diagnostic #     81  oceTAUX  exists 
 Computing Diagnostic #     85  oceFWflx     Counter:       1   Parms: SM      U1      
 Computing Diagnostic #     86  oceSflux     Counter:       1   Parms: SM      U1      
 Computing Diagnostic #     87  oceQnet      Counter:       1   Parms: SM      U1      
 Computing Diagnostic #     88  oceQsw       Counter:       1   Parms: SM      U1      
 Computing Diagnostic #     27  SALT         Counter:       1   Parms: SMR     MR      
 Computing Diagnostic #     26  THETA        Counter:       1   Parms: SMR     MR      
 Computing Diagnostic #     45  UVELMASS     Counter:       1   Parms: UUr     MR      
           Vector  Mate for  UVELMASS     Diagnostic #     46  VVELMASS exists 
 Computing Diagnostic #     46  VVELMASS     Counter:       1   Parms: VVr     MR      
           Vector  Mate for  VVELMASS     Diagnostic #     45  UVELMASS exists 
 cg2d: Sum(rhs),rhsMax =  -3.23425306394896E+01  6.84245550318667E+01
(PID.TID 0000.0001)      cg2d_init_res =   1.38864201763525E-01
(PID.TID 0000.0001)      cg2d_iters(min,last) =      -1      10
(PID.TID 0000.0001)      cg2d_last_res =   7.66136140295025E-08
(PID.TID 0000.0001) // =======================================================
(PID.TID 0000.0001) // Begin MONITOR dynamic field statistics
(PID.TID 0000.0001) // =======================================================
(PID.TID 0000.0001) %MON time_tsnumber                =                 72048
(PID.TID 0000.0001) %MON time_secondsf                =   6.4843200000000E+07
(PID.TID 0000.0001) %MON dynstat_eta_max              =   3.0844746263194E+00
(PID.TID 0000.0001) %MON dynstat_eta_min              =  -1.6034379029635E+00
(PID.TID 0000.0001) %MON dynstat_eta_mean             =   2.5715036987652E-02
(PID.TID 0000.0001) %MON dynstat_eta_sd               =   6.1721945782819E-01
(PID.TID 0000.0001) %MON dynstat_eta_del2             =   2.4760359809463E-03
(PID.TID 0000.0001) %MON dynstat_uvel_max             =   3.2210693154965E-01
(PID.TID 0000.0001) %MON dynstat_uvel_min             =  -5.7034882964649E-01
(PID.TID 0000.0001) %MON dynstat_uvel_mean            =  -5.2399049314458E-04
(PID.TID 0000.0001) %MON dynstat_uvel_sd              =   1.2710536131864E-02
(PID.TID 0000.0001) %MON dynstat_uvel_del2            =   8.8537216051307E-05
(PID.TID 0000.0001) %MON dynstat_vvel_max             =   4.2085238351765E-01
(PID.TID 0000.0001) %MON dynstat_vvel_min             =  -4.2319901017239E-01
(PID.TID 0000.0001) %MON dynstat_vvel_mean            =   1.6323131675009E-04
(PID.TID 0000.0001) %MON dynstat_vvel_sd              =   1.3667939208221E-02
(PID.TID 0000.0001) %MON dynstat_vvel_del2            =   8.7436282046767E-05
(PID.TID 0000.0001) %MON dynstat_wvel_max             =   1.6356264769066E-04
(PID.TID 0000.0001) %MON dynstat_wvel_min             =  -2.0527855305849E-04
(PID.TID 0000.0001) %MON dynstat_wvel_mean            =  -1.7910081097985E-07
(PID.TID 0000.0001) %MON dynstat_wvel_sd              =   7.8194883709241E-06
(PID.TID 0000.0001) %MON dynstat_wvel_del2            =   7.5431233669581E-08
(PID.TID 0000.0001) %MON dynstat_theta_max            =   3.0939355038376E+01
(PID.TID 0000.0001) %MON dynstat_theta_min            =  -3.0042317731313E+00
(PID.TID 0000.0001) %MON dynstat_theta_mean           =   3.9092070979020E+00
(PID.TID 0000.0001) %MON dynstat_theta_sd             =   4.5716028185098E+00
(PID.TID 0000.0001) %MON dynstat_theta_del2           =   2.6455593247146E-03
(PID.TID 0000.0001) %MON dynstat_salt_max             =   4.1351566621727E+01
(PID.TID 0000.0001) %MON dynstat_salt_min             =   1.8518856763543E+01
(PID.TID 0000.0001) %MON dynstat_salt_mean            =   3.4771980402694E+01
(PID.TID 0000.0001) %MON dynstat_salt_sd              =   5.3176630031270E-01
(PID.TID 0000.0001) %MON dynstat_salt_del2            =   1.0167659830260E-03
(PID.TID 0000.0001) %MON dynstat_sst_max              =   3.0939355038376E+01
(PID.TID 0000.0001) %MON dynstat_sst_min              =  -1.8973321525906E+00
(PID.TID 0000.0001) %MON dynstat_sst_mean             =   1.8112497323865E+01
(PID.TID 0000.0001) %MON dynstat_sst_sd               =   9.8096505681711E+00
(PID.TID 0000.0001) %MON dynstat_sst_del2             =   1.5121127674569E-02
(PID.TID 0000.0001) %MON dynstat_sss_max              =   4.1351566621727E+01
(PID.TID 0000.0001) %MON dynstat_sss_min              =   1.8751825752359E+01
(PID.TID 0000.0001) %MON dynstat_sss_mean             =   3.4626379022188E+01
(PID.TID 0000.0001) %MON dynstat_sss_sd               =   1.4778031845992E+00
(PID.TID 0000.0001) %MON dynstat_sss_del2             =   1.1208606124006E-02
(PID.TID 0000.0001) %MON forcing_qnet_max             =   6.6546342390036E+03
(PID.TID 0000.0001) %MON forcing_qnet_min             =  -1.3926979401767E+03
(PID.TID 0000.0001) %MON forcing_qnet_mean            =   1.5428881746881E+01
(PID.TID 0000.0001) %MON forcing_qnet_sd              =   2.4318503178514E+02
(PID.TID 0000.0001) %MON forcing_qnet_del2            =   6.5192312843033E+00
(PID.TID 0000.0001) %MON forcing_qsw_max              =   0.0000000000000E+00
(PID.TID 0000.0001) %MON forcing_qsw_min              =  -4.3536836865858E+02
(PID.TID 0000.0001) %MON forcing_qsw_mean             =  -5.0220014145676E+01
(PID.TID 0000.0001) %MON forcing_qsw_sd               =   9.2749024818044E+01
(PID.TID 0000.0001) %MON forcing_qsw_del2             =   8.3576392647655E-01
(PID.TID 0000.0001) %MON forcing_empmr_max            =   6.8172137252986E-03
(PID.TID 0000.0001) %MON forcing_empmr_min            =  -9.7999431192875E-02
(PID.TID 0000.0001) %MON forcing_empmr_mean           =  -2.8468914654524E-04
(PID.TID 0000.0001) %MON forcing_empmr_sd             =   4.3159434939327E-03
(PID.TID 0000.0001) %MON forcing_empmr_del2           =   1.7034302251544E-04
(PID.TID 0000.0001) %MON forcing_fu_max               =   3.8464724842685E-01
(PID.TID 0000.0001) %MON forcing_fu_min               =  -3.6542758850132E-01
(PID.TID 0000.0001) %MON forcing_fu_mean              =  -2.4166267081974E-03
(PID.TID 0000.0001) %MON forcing_fu_sd                =   6.0597019881869E-02
(PID.TID 0000.0001) %MON forcing_fu_del2              =   6.0289511496491E-04
(PID.TID 0000.0001) %MON forcing_fv_max               =   3.1439942541170E-01
(PID.TID 0000.0001) %MON forcing_fv_min               =  -2.9293684253238E-01
(PID.TID 0000.0001) %MON forcing_fv_mean              =  -1.5142428648860E-02
(PID.TID 0000.0001) %MON forcing_fv_sd                =   6.2289254663812E-02
(PID.TID 0000.0001) %MON forcing_fv_del2              =   5.3505170552168E-04
(PID.TID 0000.0001) %MON trAdv_CFL_u_max              =   1.6199415724224E-03
(PID.TID 0000.0001) %MON trAdv_CFL_v_max              =   1.6171919042254E-03
(PID.TID 0000.0001) %MON trAdv_CFL_w_max              =   1.9208403098585E-03
(PID.TID 0000.0001) %MON advcfl_uvel_max              =   1.6224702251793E-03
(PID.TID 0000.0001) %MON advcfl_vvel_max              =   1.2611975489763E-03
(PID.TID 0000.0001) %MON advcfl_wvel_max              =   3.4086758675783E-03
(PID.TID 0000.0001) %MON advcfl_W_hf_max              =   2.0981575411911E-03
(PID.TID 0000.0001) %MON pe_b_mean                    =   5.0838634047008E-04
(PID.TID 0000.0001) %MON ke_max                       =   1.4861716408895E-01
(PID.TID 0000.0001) %MON ke_mean                      =   1.6102890158771E-04
(PID.TID 0000.0001) %MON ke_vol                       =   1.3398117126414E+18
(PID.TID 0000.0001) %MON vort_r_min                   =  -3.0156590402973E-06
(PID.TID 0000.0001) %MON vort_r_max                   =   2.3362087952398E-06
(PID.TID 0000.0001) %MON vort_a_mean                  =  -2.0549865324846E-05
(PID.TID 0000.0001) %MON vort_a_sd                    =   7.5259636088424E-05
(PID.TID 0000.0001) %MON vort_p_mean                  =  -2.4783301896192E-05
(PID.TID 0000.0001) %MON vort_p_sd                    =   1.2811913071228E-04
(PID.TID 0000.0001) %MON surfExpan_theta_mean         =  -6.3619342401197E-06
(PID.TID 0000.0001) %MON surfExpan_salt_mean          =   1.0897122045211E-06
(PID.TID 0000.0001) // =======================================================
(PID.TID 0000.0001) // End MONITOR dynamic field statistics
(PID.TID 0000.0001) // =======================================================
 cg2d: Sum(rhs),rhsMax =  -3.28203587165688E+01  6.80719176390196E+01
(PID.TID 0000.0001)      cg2d_init_res =   1.35673495501507E-01
(PID.TID 0000.0001)      cg2d_iters(min,last) =      -1      10
(PID.TID 0000.0001)      cg2d_last_res =   7.67372950689612E-08
(PID.TID 0000.0001) // =======================================================
(PID.TID 0000.0001) // Begin MONITOR dynamic field statistics
(PID.TID 0000.0001) // =======================================================
(PID.TID 0000.0001) %MON time_tsnumber                =                 72049
(PID.TID 0000.0001) %MON time_secondsf                =   6.4844100000000E+07
(PID.TID 0000.0001) %MON dynstat_eta_max              =   3.0643768436546E+00
(PID.TID 0000.0001) %MON dynstat_eta_min              =  -1.6017441355291E+00
(PID.TID 0000.0001) %MON dynstat_eta_mean             =   2.5960465876097E-02
(PID.TID 0000.0001) %MON dynstat_eta_sd               =   6.1695073173830E-01
(PID.TID 0000.0001) %MON dynstat_eta_del2             =   2.4687204003589E-03
(PID.TID 0000.0001) %MON dynstat_uvel_max             =   3.1355098879606E-01
(PID.TID 0000.0001) %MON dynstat_uvel_min             =  -5.6993370716042E-01
(PID.TID 0000.0001) %MON dynstat_uvel_mean            =  -5.2144889745782E-04
(PID.TID 0000.0001) %MON dynstat_uvel_sd              =   1.2685537829856E-02
(PID.TID 0000.0001) %MON dynstat_uvel_del2            =   8.9408607987389E-05
(PID.TID 0000.0001) %MON dynstat_vvel_max             =   3.7393051323577E-01
(PID.TID 0000.0001) %MON dynstat_vvel_min             =  -4.5313701660896E-01
(PID.TID 0000.0001) %MON dynstat_vvel_mean            =   2.1011476510826E-04
(PID.TID 0000.0001) %MON dynstat_vvel_sd              =   1.3692682783175E-02
(PID.TID 0000.0001) %MON dynstat_vvel_del2            =   8.5770217962319E-05
(PID.TID 0000.0001) %MON dynstat_wvel_max             =   1.5832908843968E-04
(PID.TID 0000.0001) %MON dynstat_wvel_min             =  -1.9917843589005E-04
(PID.TID 0000.0001) %MON dynstat_wvel_mean            =  -2.0491148669874E-07
(PID.TID 0000.0001) %MON dynstat_wvel_sd              =   7.8339491599690E-06
(PID.TID 0000.0001) %MON dynstat_wvel_del2            =   7.5841811049511E-08
(PID.TID 0000.0001) %MON dynstat_theta_max            =   3.0939336329494E+01
(PID.TID 0000.0001) %MON dynstat_theta_min            =  -3.0043160827558E+00
(PID.TID 0000.0001) %MON dynstat_theta_mean           =   3.9092079539937E+00
(PID.TID 0000.0001) %MON dynstat_theta_sd             =   4.5716065286464E+00
(PID.TID 0000.0001) %MON dynstat_theta_del2           =   2.6454217672173E-03
(PID.TID 0000.0001) %MON dynstat_salt_max             =   4.1351221825446E+01
(PID.TID 0000.0001) %MON dynstat_salt_min             =   1.8518867098579E+01
(PID.TID 0000.0001) %MON dynstat_salt_mean            =   3.4771977620698E+01
(PID.TID 0000.0001) %MON dynstat_salt_sd              =   5.3178308980201E-01
(PID.TID 0000.0001) %MON dynstat_salt_del2            =   1.0211337288493E-03
(PID.TID 0000.0001) %MON dynstat_sst_max              =   3.0939336329494E+01
(PID.TID 0000.0001) %MON dynstat_sst_min              =  -1.8972304607938E+00
(PID.TID 0000.0001) %MON dynstat_sst_mean             =   1.8112465700991E+01
(PID.TID 0000.0001) %MON dynstat_sst_sd               =   9.8097515956128E+00
(PID.TID 0000.0001) %MON dynstat_sst_del2             =   1.5118798223319E-02
(PID.TID 0000.0001) %MON dynstat_sss_max              =   4.1351221825446E+01
(PID.TID 0000.0001) %MON dynstat_sss_min              =   1.8751850296564E+01
(PID.TID 0000.0001) %MON dynstat_sss_mean             =   3.4626185052832E+01
(PID.TID 0000.0001) %MON dynstat_sss_sd               =   1.4782253122265E+00
(PID.TID 0000.0001) %MON dynstat_sss_del2             =   1.1271123970563E-02
(PID.TID 0000.0001) %MON forcing_qnet_max             =   1.0294348928117E+04
(PID.TID 0000.0001) %MON forcing_qnet_min             =  -1.3734858971379E+03
(PID.TID 0000.0001) %MON forcing_qnet_mean            =   1.3744896246413E+01
(PID.TID 0000.0001) %MON forcing_qnet_sd              =   2.7292044128991E+02
(PID.TID 0000.0001) %MON forcing_qnet_del2            =   9.0006570919420E+00
(PID.TID 0000.0001) %MON forcing_qsw_max              =   0.0000000000000E+00
(PID.TID 0000.0001) %MON forcing_qsw_min              =  -4.2963389837957E+02
(PID.TID 0000.0001) %MON forcing_qsw_mean             =  -5.1327321801922E+01
(PID.TID 0000.0001) %MON forcing_qsw_sd               =   9.2311294036845E+01
(PID.TID 0000.0001) %MON forcing_qsw_del2             =   8.6703402790373E-01
(PID.TID 0000.0001) %MON forcing_empmr_max            =   6.7468550987542E-03
(PID.TID 0000.0001) %MON forcing_empmr_min            =  -9.6990004181862E-02
(PID.TID 0000.0001) %MON forcing_empmr_mean           =  -2.8224322171272E-04
(PID.TID 0000.0001) %MON forcing_empmr_sd             =   4.2723996401718E-03
(PID.TID 0000.0001) %MON forcing_empmr_del2           =   1.6861233258138E-04
(PID.TID 0000.0001) %MON forcing_fu_max               =   3.8608353494505E-01
(PID.TID 0000.0001) %MON forcing_fu_min               =  -3.6318328942428E-01
(PID.TID 0000.0001) %MON forcing_fu_mean              =  -2.3839369133314E-03
(PID.TID 0000.0001) %MON forcing_fu_sd                =   6.0615754900688E-02
(PID.TID 0000.0001) %MON forcing_fu_del2              =   6.0386914376700E-04
(PID.TID 0000.0001) %MON forcing_fv_max               =   3.2332659070135E-01
(PID.TID 0000.0001) %MON forcing_fv_min               =  -2.9331164259251E-01
(PID.TID 0000.0001) %MON forcing_fv_mean              =  -1.5216277549707E-02
(PID.TID 0000.0001) %MON forcing_fv_sd                =   6.2158856862901E-02
(PID.TID 0000.0001) %MON forcing_fv_del2              =   5.3473362902093E-04
(PID.TID 0000.0001) %MON trAdv_CFL_u_max              =   1.6195723701333E-03
(PID.TID 0000.0001) %MON trAdv_CFL_v_max              =   1.4277941681104E-03
(PID.TID 0000.0001) %MON trAdv_CFL_w_max              =   1.8265322471092E-03
(PID.TID 0000.0001) %MON advcfl_uvel_max              =   1.6212893270369E-03
(PID.TID 0000.0001) %MON advcfl_vvel_max              =   1.3248395204581E-03
(PID.TID 0000.0001) %MON advcfl_wvel_max              =   3.3735653628474E-03
(PID.TID 0000.0001) %MON advcfl_W_hf_max              =   2.0356733970942E-03
(PID.TID 0000.0001) %MON pe_b_mean                    =   5.0796138084917E-04
(PID.TID 0000.0001) %MON ke_max                       =   1.5914110452199E-01
(PID.TID 0000.0001) %MON ke_mean                      =   1.6105828683850E-04
(PID.TID 0000.0001) %MON ke_vol                       =   1.3398118027237E+18
(PID.TID 0000.0001) %MON vort_r_min                   =  -3.1727206922656E-06
(PID.TID 0000.0001) %MON vort_r_max                   =   2.4192961167587E-06
(PID.TID 0000.0001) %MON vort_a_mean                  =  -2.0549865324846E-05
(PID.TID 0000.0001) %MON vort_a_sd                    =   7.5259647398061E-05
(PID.TID 0000.0001) %MON vort_p_mean                  =  -2.4783300149307E-05
(PID.TID 0000.0001) %MON vort_p_sd                    =   1.2811911426267E-04
(PID.TID 0000.0001) %MON surfExpan_theta_mean         =  -6.4567887091211E-06
(PID.TID 0000.0001) %MON surfExpan_salt_mean          =   1.1198792821702E-06
(PID.TID 0000.0001) // =======================================================
(PID.TID 0000.0001) // End MONITOR dynamic field statistics
(PID.TID 0000.0001) // =======================================================
 cg2d: Sum(rhs),rhsMax =  -3.34841511582703E+01  6.73488404241592E+01
(PID.TID 0000.0001)      cg2d_init_res =   1.35741925769920E-01
(PID.TID 0000.0001)      cg2d_iters(min,last) =      -1      10
(PID.TID 0000.0001)      cg2d_last_res =   7.68633605050498E-08
(PID.TID 0000.0001) // =======================================================
(PID.TID 0000.0001) // Begin MONITOR dynamic field statistics
(PID.TID 0000.0001) // =======================================================
(PID.TID 0000.0001) %MON time_tsnumber                =                 72050
(PID.TID 0000.0001) %MON time_secondsf                =   6.4845000000000E+07
(PID.TID 0000.0001) %MON dynstat_eta_max              =   2.9995595012379E+00
(PID.TID 0000.0001) %MON dynstat_eta_min              =  -1.5999653791204E+00
(PID.TID 0000.0001) %MON dynstat_eta_mean             =   2.6204180948363E-02
(PID.TID 0000.0001) %MON dynstat_eta_sd               =   6.1661628908640E-01
(PID.TID 0000.0001) %MON dynstat_eta_del2             =   2.4409654211466E-03
(PID.TID 0000.0001) %MON dynstat_uvel_max             =   3.0340393380058E-01
(PID.TID 0000.0001) %MON dynstat_uvel_min             =  -5.6711668232649E-01
(PID.TID 0000.0001) %MON dynstat_uvel_mean            =  -5.1603996825669E-04
(PID.TID 0000.0001) %MON dynstat_uvel_sd              =   1.2669525596623E-02
(PID.TID 0000.0001) %MON dynstat_uvel_del2            =   9.0382207378971E-05
(PID.TID 0000.0001) %MON dynstat_vvel_max             =   4.1911661214941E-01
(PID.TID 0000.0001) %MON dynstat_vvel_min             =  -4.8185754303385E-01
(PID.TID 0000.0001) %MON dynstat_vvel_mean            =   2.5464029764259E-04
(PID.TID 0000.0001) %MON dynstat_vvel_sd              =   1.3721224078164E-02
(PID.TID 0000.0001) %MON dynstat_vvel_del2            =   8.4969947630596E-05
(PID.TID 0000.0001) %MON dynstat_wvel_max             =   1.5395153519173E-04
(PID.TID 0000.0001) %MON dynstat_wvel_min             =  -1.9138893950453E-04
(PID.TID 0000.0001) %MON dynstat_wvel_mean            =  -2.2997361848743E-07
(PID.TID 0000.0001) %MON dynstat_wvel_sd              =   7.8569797706995E-06
(PID.TID 0000.0001) %MON dynstat_wvel_del2            =   7.6247467661563E-08
(PID.TID 0000.0001) %MON dynstat_theta_max            =   3.0939282666725E+01
(PID.TID 0000.0001) %MON dynstat_theta_min            =  -3.0044367395428E+00
(PID.TID 0000.0001) %MON dynstat_theta_mean           =   3.9092087677666E+00
(PID.TID 0000.0001) %MON dynstat_theta_sd             =   4.5716101348764E+00
(PID.TID 0000.0001) %MON dynstat_theta_del2           =   2.6453221337845E-03
(PID.TID 0000.0001) %MON dynstat_salt_max             =   4.1350884818707E+01
(PID.TID 0000.0001) %MON dynstat_salt_min             =   1.8518877410224E+01
(PID.TID 0000.0001) %MON dynstat_salt_mean            =   3.4771974863838E+01
(PID.TID 0000.0001) %MON dynstat_salt_sd              =   5.3179965077898E-01
(PID.TID 0000.0001) %MON dynstat_salt_del2            =   1.0254407284120E-03
(PID.TID 0000.0001) %MON dynstat_sst_max              =   3.0939282666725E+01
(PID.TID 0000.0001) %MON dynstat_sst_min              =  -1.8971283162793E+00
(PID.TID 0000.0001) %MON dynstat_sst_mean             =   1.8112428021572E+01
(PID.TID 0000.0001) %MON dynstat_sst_sd               =   9.8098545689044E+00
(PID.TID 0000.0001) %MON dynstat_sst_del2             =   1.5117312262593E-02
(PID.TID 0000.0001) %MON dynstat_sss_max              =   4.1350884818707E+01
(PID.TID 0000.0001) %MON dynstat_sss_min              =   1.8751873474109E+01
(PID.TID 0000.0001) %MON dynstat_sss_mean             =   3.4625991715207E+01
(PID.TID 0000.0001) %MON dynstat_sss_sd               =   1.4786426777300E+00
(PID.TID 0000.0001) %MON dynstat_sss_del2             =   1.1332663643460E-02
(PID.TID 0000.0001) %MON forcing_qnet_max             =   1.3284257733473E+04
(PID.TID 0000.0001) %MON forcing_qnet_min             =  -1.4834481201172E+03
(PID.TID 0000.0001) %MON forcing_qnet_mean            =   1.4354066981434E+01
(PID.TID 0000.0001) %MON forcing_qnet_sd              =   3.1418734757951E+02
(PID.TID 0000.0001) %MON forcing_qnet_del2            =   1.2073629462824E+01
(PID.TID 0000.0001) %MON forcing_qsw_max              =   0.0000000000000E+00
(PID.TID 0000.0001) %MON forcing_qsw_min              =  -4.2444954709282E+02
(PID.TID 0000.0001) %MON forcing_qsw_mean             =  -5.1786883650675E+01
(PID.TID 0000.0001) %MON forcing_qsw_sd               =   9.1878605369813E+01
(PID.TID 0000.0001) %MON forcing_qsw_del2             =   8.6802783267814E-01
(PID.TID 0000.0001) %MON forcing_empmr_max            =   6.6773816943169E-03
(PID.TID 0000.0001) %MON forcing_empmr_min            =  -9.5990650355816E-02
(PID.TID 0000.0001) %MON forcing_empmr_mean           =  -2.8027233310517E-04
(PID.TID 0000.0001) %MON forcing_empmr_sd             =   4.2296260720382E-03
(PID.TID 0000.0001) %MON forcing_empmr_del2           =   1.6690701574012E-04
(PID.TID 0000.0001) %MON forcing_fu_max               =   3.8910745446459E-01
(PID.TID 0000.0001) %MON forcing_fu_min               =  -3.6228604383483E-01
(PID.TID 0000.0001) %MON forcing_fu_mean              =  -2.2983048861116E-03
(PID.TID 0000.0001) %MON forcing_fu_sd                =   6.0740823866666E-02
(PID.TID 0000.0001) %MON forcing_fu_del2              =   6.0485915642872E-04
(PID.TID 0000.0001) %MON forcing_fv_max               =   3.1852337375158E-01
(PID.TID 0000.0001) %MON forcing_fv_min               =  -2.9327074260575E-01
(PID.TID 0000.0001) %MON forcing_fv_mean              =  -1.5316222588065E-02
(PID.TID 0000.0001) %MON forcing_fv_sd                =   6.1928512790754E-02
(PID.TID 0000.0001) %MON forcing_fv_del2              =   5.3258810885035E-04
(PID.TID 0000.0001) %MON trAdv_CFL_u_max              =   1.6124210827967E-03
(PID.TID 0000.0001) %MON trAdv_CFL_v_max              =   1.4627297950431E-03
(PID.TID 0000.0001) %MON trAdv_CFL_w_max              =   1.7223210124303E-03
(PID.TID 0000.0001) %MON advcfl_uvel_max              =   1.6132757418780E-03
(PID.TID 0000.0001) %MON advcfl_vvel_max              =   1.4088099026193E-03
(PID.TID 0000.0001) %MON advcfl_wvel_max              =   3.3388052297675E-03
(PID.TID 0000.0001) %MON advcfl_W_hf_max              =   1.9793862003238E-03
(PID.TID 0000.0001) %MON pe_b_mean                    =   5.0742868449460E-04
(PID.TID 0000.0001) %MON ke_max                       =   1.6925500674966E-01
(PID.TID 0000.0001) %MON ke_mean                      =   1.6124185793055E-04
(PID.TID 0000.0001) %MON ke_vol                       =   1.3398118920320E+18
(PID.TID 0000.0001) %MON vort_r_min                   =  -3.3276846968176E-06
(PID.TID 0000.0001) %MON vort_r_max                   =   2.4894453991585E-06
(PID.TID 0000.0001) %MON vort_a_mean                  =  -2.0549865324846E-05
(PID.TID 0000.0001) %MON vort_a_sd                    =   7.5259658260727E-05
(PID.TID 0000.0001) %MON vort_p_mean                  =  -2.4783298348358E-05
(PID.TID 0000.0001) %MON vort_p_sd                    =   1.2811909899913E-04
(PID.TID 0000.0001) %MON surfExpan_theta_mean         =  -6.5789225249647E-06
(PID.TID 0000.0001) %MON surfExpan_salt_mean          =   1.1496492077871E-06
(PID.TID 0000.0001) // =======================================================
(PID.TID 0000.0001) // End MONITOR dynamic field statistics
(PID.TID 0000.0001) // =======================================================
 cg2d: Sum(rhs),rhsMax =  -3.43490831570147E+01  6.62588414058379E+01
(PID.TID 0000.0001)      cg2d_init_res =   1.38937695227153E-01
(PID.TID 0000.0001)      cg2d_iters(min,last) =      -1      10
(PID.TID 0000.0001)      cg2d_last_res =   7.71990168558616E-08
(PID.TID 0000.0001) // =======================================================
(PID.TID 0000.0001) // Begin MONITOR dynamic field statistics
(PID.TID 0000.0001) // =======================================================
(PID.TID 0000.0001) %MON time_tsnumber                =                 72051
(PID.TID 0000.0001) %MON time_secondsf                =   6.4845900000000E+07
(PID.TID 0000.0001) %MON dynstat_eta_max              =   2.9509927716042E+00
(PID.TID 0000.0001) %MON dynstat_eta_min              =  -1.5981825064818E+00
(PID.TID 0000.0001) %MON dynstat_eta_mean             =   2.6446010146128E-02
(PID.TID 0000.0001) %MON dynstat_eta_sd               =   6.1622160033640E-01
(PID.TID 0000.0001) %MON dynstat_eta_del2             =   2.3934849775130E-03
(PID.TID 0000.0001) %MON dynstat_uvel_max             =   2.9172845748543E-01
(PID.TID 0000.0001) %MON dynstat_uvel_min             =  -5.6670860476867E-01
(PID.TID 0000.0001) %MON dynstat_uvel_mean            =  -5.0797529737059E-04
(PID.TID 0000.0001) %MON dynstat_uvel_sd              =   1.2663168385384E-02
(PID.TID 0000.0001) %MON dynstat_uvel_del2            =   9.1420161402800E-05
(PID.TID 0000.0001) %MON dynstat_vvel_max             =   4.5718522301684E-01
(PID.TID 0000.0001) %MON dynstat_vvel_min             =  -5.0908316123463E-01
(PID.TID 0000.0001) %MON dynstat_vvel_mean            =   2.9646591830942E-04
(PID.TID 0000.0001) %MON dynstat_vvel_sd              =   1.3751773922714E-02
(PID.TID 0000.0001) %MON dynstat_vvel_del2            =   8.5023123761570E-05
(PID.TID 0000.0001) %MON dynstat_wvel_max             =   1.5000756284949E-04
(PID.TID 0000.0001) %MON dynstat_wvel_min             =  -1.8199673964151E-04
(PID.TID 0000.0001) %MON dynstat_wvel_mean            =  -2.5299829947630E-07
(PID.TID 0000.0001) %MON dynstat_wvel_sd              =   7.8866562150901E-06
(PID.TID 0000.0001) %MON dynstat_wvel_del2            =   7.6633720408337E-08
(PID.TID 0000.0001) %MON dynstat_theta_max            =   3.0939193628950E+01
(PID.TID 0000.0001) %MON dynstat_theta_min            =  -3.0045907516100E+00
(PID.TID 0000.0001) %MON dynstat_theta_mean           =   3.9092097795467E+00
(PID.TID 0000.0001) %MON dynstat_theta_sd             =   4.5716141035250E+00
(PID.TID 0000.0001) %MON dynstat_theta_del2           =   2.6452042310310E-03
(PID.TID 0000.0001) %MON dynstat_salt_max             =   4.1350557415129E+01
(PID.TID 0000.0001) %MON dynstat_salt_min             =   1.8518887700741E+01
(PID.TID 0000.0001) %MON dynstat_salt_mean            =   3.4771972204115E+01
(PID.TID 0000.0001) %MON dynstat_salt_sd              =   5.3181610297580E-01
(PID.TID 0000.0001) %MON dynstat_salt_del2            =   1.0296713536047E-03
(PID.TID 0000.0001) %MON dynstat_sst_max              =   3.0939193628950E+01
(PID.TID 0000.0001) %MON dynstat_sst_min              =  -1.8970258443430E+00
(PID.TID 0000.0001) %MON dynstat_sst_mean             =   1.8112403412078E+01
(PID.TID 0000.0001) %MON dynstat_sst_sd               =   9.8099489743504E+00
(PID.TID 0000.0001) %MON dynstat_sst_del2             =   1.5115320387986E-02
(PID.TID 0000.0001) %MON dynstat_sss_max              =   4.1350557415129E+01
(PID.TID 0000.0001) %MON dynstat_sss_min              =   1.8751895404378E+01
(PID.TID 0000.0001) %MON dynstat_sss_mean             =   3.4625804426610E+01
(PID.TID 0000.0001) %MON dynstat_sss_sd               =   1.4790576317296E+00
(PID.TID 0000.0001) %MON dynstat_sss_del2             =   1.1393041149074E-02
(PID.TID 0000.0001) %MON forcing_qnet_max             =   6.2935837054240E+03
(PID.TID 0000.0001) %MON forcing_qnet_min             =  -1.4812799072266E+03
(PID.TID 0000.0001) %MON forcing_qnet_mean            =   1.0738269404225E+01
(PID.TID 0000.0001) %MON forcing_qnet_sd              =   2.3714241662405E+02
(PID.TID 0000.0001) %MON forcing_qnet_del2            =   6.1640708000796E+00
(PID.TID 0000.0001) %MON forcing_qsw_max              =   0.0000000000000E+00
(PID.TID 0000.0001) %MON forcing_qsw_min              =  -4.1750795805948E+02
(PID.TID 0000.0001) %MON forcing_qsw_mean             =  -5.2133752626306E+01
(PID.TID 0000.0001) %MON forcing_qsw_sd               =   9.1416102917462E+01
(PID.TID 0000.0001) %MON forcing_qsw_del2             =   8.6765325236077E-01
(PID.TID 0000.0001) %MON forcing_empmr_max            =   6.6084996797144E-03
(PID.TID 0000.0001) %MON forcing_empmr_min            =  -9.5002204179764E-02
(PID.TID 0000.0001) %MON forcing_empmr_mean           =  -2.7810357742984E-04
(PID.TID 0000.0001) %MON forcing_empmr_sd             =   4.1878292386853E-03
(PID.TID 0000.0001) %MON forcing_empmr_del2           =   1.6524016813196E-04
(PID.TID 0000.0001) %MON forcing_fu_max               =   3.9279299110071E-01
(PID.TID 0000.0001) %MON forcing_fu_min               =  -3.6008813229752E-01
(PID.TID 0000.0001) %MON forcing_fu_mean              =  -2.2188908184292E-03
(PID.TID 0000.0001) %MON forcing_fu_sd                =   6.0829774005596E-02
(PID.TID 0000.0001) %MON forcing_fu_del2              =   6.0615448947147E-04
(PID.TID 0000.0001) %MON forcing_fv_max               =   3.2253132939654E-01
(PID.TID 0000.0001) %MON forcing_fv_min               =  -2.9300630358865E-01
(PID.TID 0000.0001) %MON forcing_fv_mean              =  -1.5367455836240E-02
(PID.TID 0000.0001) %MON forcing_fv_sd                =   6.1784747302182E-02
(PID.TID 0000.0001) %MON forcing_fv_del2              =   5.3182016093786E-04
(PID.TID 0000.0001) %MON trAdv_CFL_u_max              =   1.6476423310265E-03
(PID.TID 0000.0001) %MON trAdv_CFL_v_max              =   1.5476575452311E-03
(PID.TID 0000.0001) %MON trAdv_CFL_w_max              =   1.6769295827015E-03
(PID.TID 0000.0001) %MON advcfl_uvel_max              =   1.6468603933213E-03
(PID.TID 0000.0001) %MON advcfl_vvel_max              =   1.4884096122860E-03
(PID.TID 0000.0001) %MON advcfl_wvel_max              =   3.3044244932092E-03
(PID.TID 0000.0001) %MON advcfl_W_hf_max              =   1.9286749897725E-03
(PID.TID 0000.0001) %MON pe_b_mean                    =   5.0679739311684E-04
(PID.TID 0000.0001) %MON ke_max                       =   1.7895672893175E-01
(PID.TID 0000.0001) %MON ke_mean                      =   1.6156422430326E-04
(PID.TID 0000.0001) %MON ke_vol                       =   1.3398119807167E+18
(PID.TID 0000.0001) %MON vort_r_min                   =  -3.4796562220215E-06
(PID.TID 0000.0001) %MON vort_r_max                   =   2.5470979817772E-06
(PID.TID 0000.0001) %MON vort_a_mean                  =  -2.0549865324846E-05
(PID.TID 0000.0001) %MON vort_a_sd                    =   7.5259668597945E-05
(PID.TID 0000.0001) %MON vort_p_mean                  =  -2.4783296490659E-05
(PID.TID 0000.0001) %MON vort_p_sd                    =   1.2811908563431E-04
(PID.TID 0000.0001) %MON surfExpan_theta_mean         =  -6.6927530798565E-06
(PID.TID 0000.0001) %MON surfExpan_salt_mean          =   1.1767679275763E-06
(PID.TID 0000.0001) // =======================================================
(PID.TID 0000.0001) // End MONITOR dynamic field statistics
(PID.TID 0000.0001) // =======================================================
 Computing Diagnostic #     81  oceTAUX      Counter:       1   Parms: UU      U1      
           Vector  Mate for  oceTAUX      Diagnostic #     82  oceTAUY  exists 
 Computing Diagnostic #     82  oceTAUY      Counter:       1   Parms: VV      U1      
           Vector  Mate for  oceTAUY      Diagnostic #     81  oceTAUX  exists 
 Computing Diagnostic #     85  oceFWflx     Counter:       1   Parms: SM      U1      
 Computing Diagnostic #     86  oceSflux     Counter:       1   Parms: SM      U1      
 Computing Diagnostic #     87  oceQnet      Counter:       1   Parms: SM      U1      
 Computing Diagnostic #     88  oceQsw       Counter:       1   Parms: SM      U1      
 Computing Diagnostic #     27  SALT         Counter:       1   Parms: SMR     MR      
 Computing Diagnostic #     26  THETA        Counter:       1   Parms: SMR     MR      
 Computing Diagnostic #     45  UVELMASS     Counter:       1   Parms: UUr     MR      
           Vector  Mate for  UVELMASS     Diagnostic #     46  VVELMASS exists 
 Computing Diagnostic #     46  VVELMASS     Counter:       1   Parms: VVr     MR      
           Vector  Mate for  VVELMASS     Diagnostic #     45  UVELMASS exists 
 cg2d: Sum(rhs),rhsMax =  -3.54356775325301E+01  6.48096404008860E+01
(PID.TID 0000.0001)      cg2d_init_res =   1.44941798374780E-01
(PID.TID 0000.0001)      cg2d_iters(min,last) =      -1      10
(PID.TID 0000.0001)      cg2d_last_res =   7.78119757407361E-08
(PID.TID 0000.0001) // =======================================================
(PID.TID 0000.0001) // Begin MONITOR dynamic field statistics
(PID.TID 0000.0001) // =======================================================
(PID.TID 0000.0001) %MON time_tsnumber                =                 72052
(PID.TID 0000.0001) %MON time_secondsf                =   6.4846800000000E+07
(PID.TID 0000.0001) %MON dynstat_eta_max              =   2.8864753280272E+00
(PID.TID 0000.0001) %MON dynstat_eta_min              =  -1.5964684042899E+00
(PID.TID 0000.0001) %MON dynstat_eta_mean             =   2.6685879823699E-02
(PID.TID 0000.0001) %MON dynstat_eta_sd               =   6.1577716026738E-01
(PID.TID 0000.0001) %MON dynstat_eta_del2             =   2.3277671573537E-03
(PID.TID 0000.0001) %MON dynstat_uvel_max             =   2.7860133939233E-01
(PID.TID 0000.0001) %MON dynstat_uvel_min             =  -5.8701387554122E-01
(PID.TID 0000.0001) %MON dynstat_uvel_mean            =  -4.9751624604315E-04
(PID.TID 0000.0001) %MON dynstat_uvel_sd              =   1.2666571034770E-02
(PID.TID 0000.0001) %MON dynstat_uvel_del2            =   9.2480772443625E-05
(PID.TID 0000.0001) %MON dynstat_vvel_max             =   4.8790134958374E-01
(PID.TID 0000.0001) %MON dynstat_vvel_min             =  -5.3454640788560E-01
(PID.TID 0000.0001) %MON dynstat_vvel_mean            =   3.3531018134941E-04
(PID.TID 0000.0001) %MON dynstat_vvel_sd              =   1.3782403021617E-02
(PID.TID 0000.0001) %MON dynstat_vvel_del2            =   8.5844400641634E-05
(PID.TID 0000.0001) %MON dynstat_wvel_max             =   1.4640809026610E-04
(PID.TID 0000.0001) %MON dynstat_wvel_min             =  -1.8029673980894E-04
(PID.TID 0000.0001) %MON dynstat_wvel_mean            =  -2.7339393072646E-07
(PID.TID 0000.0001) %MON dynstat_wvel_sd              =   7.9194180984628E-06
(PID.TID 0000.0001) %MON dynstat_wvel_del2            =   7.6962478362402E-08
(PID.TID 0000.0001) %MON dynstat_theta_max            =   3.0939069951479E+01
(PID.TID 0000.0001) %MON dynstat_theta_min            =  -3.0047736828468E+00
(PID.TID 0000.0001) %MON dynstat_theta_mean           =   3.9092108735663E+00
(PID.TID 0000.0001) %MON dynstat_theta_sd             =   4.5716180454368E+00
(PID.TID 0000.0001) %MON dynstat_theta_del2           =   2.6450562217599E-03
(PID.TID 0000.0001) %MON dynstat_salt_max             =   4.1350241726227E+01
(PID.TID 0000.0001) %MON dynstat_salt_min             =   1.8518897972742E+01
(PID.TID 0000.0001) %MON dynstat_salt_mean            =   3.4771969599307E+01
(PID.TID 0000.0001) %MON dynstat_salt_sd              =   5.3183236171130E-01
(PID.TID 0000.0001) %MON dynstat_salt_del2            =   1.0338242307774E-03
(PID.TID 0000.0001) %MON dynstat_sst_max              =   3.0939069951479E+01
(PID.TID 0000.0001) %MON dynstat_sst_min              =  -1.8969422400869E+00
(PID.TID 0000.0001) %MON dynstat_sst_mean             =   1.8112387635865E+01
(PID.TID 0000.0001) %MON dynstat_sst_sd               =   9.8100354267578E+00
(PID.TID 0000.0001) %MON dynstat_sst_del2             =   1.5112823446508E-02
(PID.TID 0000.0001) %MON dynstat_sss_max              =   4.1350241726227E+01
(PID.TID 0000.0001) %MON dynstat_sss_min              =   1.8751916318177E+01
(PID.TID 0000.0001) %MON dynstat_sss_mean             =   3.4625621653300E+01
(PID.TID 0000.0001) %MON dynstat_sss_sd               =   1.4794698541077E+00
(PID.TID 0000.0001) %MON dynstat_sss_del2             =   1.1452262185242E-02
(PID.TID 0000.0001) %MON forcing_qnet_max             =   2.1422111816406E+03
(PID.TID 0000.0001) %MON forcing_qnet_min             =  -1.9561215820312E+03
(PID.TID 0000.0001) %MON forcing_qnet_mean            =   9.0722994468056E+00
(PID.TID 0000.0001) %MON forcing_qnet_sd              =   2.1620202676776E+02
(PID.TID 0000.0001) %MON forcing_qnet_del2            =   4.0834945335898E+00
(PID.TID 0000.0001) %MON forcing_qsw_max              =   0.0000000000000E+00
(PID.TID 0000.0001) %MON forcing_qsw_min              =  -4.0883883874417E+02
(PID.TID 0000.0001) %MON forcing_qsw_mean             =  -5.2341940716392E+01
(PID.TID 0000.0001) %MON forcing_qsw_sd               =   9.0947235305488E+01
(PID.TID 0000.0001) %MON forcing_qsw_del2             =   8.6599539385566E-01
(PID.TID 0000.0001) %MON forcing_empmr_max            =   6.5404041670263E-03
(PID.TID 0000.0001) %MON forcing_empmr_min            =  -9.4022996723652E-02
(PID.TID 0000.0001) %MON forcing_empmr_mean           =  -2.7585012920694E-04
(PID.TID 0000.0001) %MON forcing_empmr_sd             =   4.1473694433423E-03
(PID.TID 0000.0001) %MON forcing_empmr_del2           =   1.6361677355885E-04
(PID.TID 0000.0001) %MON forcing_fu_max               =   3.9313801645659E-01
(PID.TID 0000.0001) %MON forcing_fu_min               =  -3.5879484305832E-01
(PID.TID 0000.0001) %MON forcing_fu_mean              =  -2.1570681271511E-03
(PID.TID 0000.0001) %MON forcing_fu_sd                =   6.0896071243242E-02
(PID.TID 0000.0001) %MON forcing_fu_del2              =   6.0686088386303E-04
(PID.TID 0000.0001) %MON forcing_fv_max               =   3.2602775084147E-01
(PID.TID 0000.0001) %MON forcing_fv_min               =  -2.9335719540689E-01
(PID.TID 0000.0001) %MON forcing_fv_mean              =  -1.5387168207333E-02
(PID.TID 0000.0001) %MON forcing_fv_sd                =   6.1667206805081E-02
(PID.TID 0000.0001) %MON forcing_fv_del2              =   5.3058895985171E-04
(PID.TID 0000.0001) %MON trAdv_CFL_u_max              =   1.7067040001540E-03
(PID.TID 0000.0001) %MON trAdv_CFL_v_max              =   1.6147346123421E-03
(PID.TID 0000.0001) %MON trAdv_CFL_w_max              =   1.7108309424245E-03
(PID.TID 0000.0001) %MON advcfl_uvel_max              =   1.7058676960684E-03
(PID.TID 0000.0001) %MON advcfl_vvel_max              =   1.5628566652654E-03
(PID.TID 0000.0001) %MON advcfl_wvel_max              =   3.2703651034314E-03
(PID.TID 0000.0001) %MON advcfl_W_hf_max              =   1.8823942606732E-03
(PID.TID 0000.0001) %MON pe_b_mean                    =   5.0608490601136E-04
(PID.TID 0000.0001) %MON ke_max                       =   1.8826642454691E-01
(PID.TID 0000.0001) %MON ke_mean                      =   1.6200170677530E-04
(PID.TID 0000.0001) %MON ke_vol                       =   1.3398120687151E+18
(PID.TID 0000.0001) %MON vort_r_min                   =  -3.6276201159302E-06
(PID.TID 0000.0001) %MON vort_r_max                   =   2.5927892834388E-06
(PID.TID 0000.0001) %MON vort_a_mean                  =  -2.0549865324846E-05
(PID.TID 0000.0001) %MON vort_a_sd                    =   7.5259678348458E-05
(PID.TID 0000.0001) %MON vort_p_mean                  =  -2.4783294580871E-05
(PID.TID 0000.0001) %MON vort_p_sd                    =   1.2811907474879E-04
(PID.TID 0000.0001) %MON surfExpan_theta_mean         =  -6.8036902338411E-06
(PID.TID 0000.0001) %MON surfExpan_salt_mean          =   1.2028985270972E-06
(PID.TID 0000.0001) // =======================================================
(PID.TID 0000.0001) // End MONITOR dynamic field statistics
(PID.TID 0000.0001) // =======================================================
 cg2d: Sum(rhs),rhsMax =  -3.67723589238860E+01  6.30130369573964E+01
(PID.TID 0000.0001)      cg2d_init_res =   1.53368851323336E-01
(PID.TID 0000.0001)      cg2d_iters(min,last) =      -1      10
(PID.TID 0000.0001)      cg2d_last_res =   7.86161213145944E-08
(PID.TID 0000.0001) // =======================================================
(PID.TID 0000.0001) // Begin MONITOR dynamic field statistics
(PID.TID 0000.0001) // =======================================================
(PID.TID 0000.0001) %MON time_tsnumber                =                 72053
(PID.TID 0000.0001) %MON time_secondsf                =   6.4847700000000E+07
(PID.TID 0000.0001) %MON dynstat_eta_max              =   2.8065285302070E+00
(PID.TID 0000.0001) %MON dynstat_eta_min              =  -1.5948741507482E+00
(PID.TID 0000.0001) %MON dynstat_eta_mean             =   2.6924836513505E-02
(PID.TID 0000.0001) %MON dynstat_eta_sd               =   6.1529663993565E-01
(PID.TID 0000.0001) %MON dynstat_eta_del2             =   2.2459553217150E-03
(PID.TID 0000.0001) %MON dynstat_uvel_max             =   3.4278816331153E-01
(PID.TID 0000.0001) %MON dynstat_uvel_min             =  -6.0774272723182E-01
(PID.TID 0000.0001) %MON dynstat_uvel_mean            =  -4.8497931620912E-04
(PID.TID 0000.0001) %MON dynstat_uvel_sd              =   1.2679375160147E-02
(PID.TID 0000.0001) %MON dynstat_uvel_del2            =   9.3522642410162E-05
(PID.TID 0000.0001) %MON dynstat_vvel_max             =   5.3346057643585E-01
(PID.TID 0000.0001) %MON dynstat_vvel_min             =  -5.5799613937552E-01
(PID.TID 0000.0001) %MON dynstat_vvel_mean            =   3.7095476376758E-04
(PID.TID 0000.0001) %MON dynstat_vvel_sd              =   1.3811298907492E-02
(PID.TID 0000.0001) %MON dynstat_vvel_del2            =   8.7290825724963E-05
(PID.TID 0000.0001) %MON dynstat_wvel_max             =   1.4303576321906E-04
(PID.TID 0000.0001) %MON dynstat_wvel_min             =  -1.8006725460917E-04
(PID.TID 0000.0001) %MON dynstat_wvel_mean            =  -2.9137573066458E-07
(PID.TID 0000.0001) %MON dynstat_wvel_sd              =   7.9513769188881E-06
(PID.TID 0000.0001) %MON dynstat_wvel_del2            =   7.7205054685525E-08
(PID.TID 0000.0001) %MON dynstat_theta_max            =   3.0938908215065E+01
(PID.TID 0000.0001) %MON dynstat_theta_min            =  -3.0049800756965E+00
(PID.TID 0000.0001) %MON dynstat_theta_mean           =   3.9092121179408E+00
(PID.TID 0000.0001) %MON dynstat_theta_sd             =   4.5716223474379E+00
(PID.TID 0000.0001) %MON dynstat_theta_del2           =   2.6449193412429E-03
(PID.TID 0000.0001) %MON dynstat_salt_max             =   4.1349939321227E+01
(PID.TID 0000.0001) %MON dynstat_salt_min             =   1.8518908228961E+01
(PID.TID 0000.0001) %MON dynstat_salt_mean            =   3.4771967022535E+01
(PID.TID 0000.0001) %MON dynstat_salt_sd              =   5.3184839798593E-01
(PID.TID 0000.0001) %MON dynstat_salt_del2            =   1.0379095647036E-03
(PID.TID 0000.0001) %MON dynstat_sst_max              =   3.0938908215065E+01
(PID.TID 0000.0001) %MON dynstat_sst_min              =  -1.8970026353443E+00
(PID.TID 0000.0001) %MON dynstat_sst_mean             =   1.8112377762797E+01
(PID.TID 0000.0001) %MON dynstat_sst_sd               =   9.8101181052297E+00
(PID.TID 0000.0001) %MON dynstat_sst_del2             =   1.5110409636470E-02
(PID.TID 0000.0001) %MON dynstat_sss_max              =   4.1349939321227E+01
(PID.TID 0000.0001) %MON dynstat_sss_min              =   1.8751936345967E+01
(PID.TID 0000.0001) %MON dynstat_sss_mean             =   3.4625438803518E+01
(PID.TID 0000.0001) %MON dynstat_sss_sd               =   1.4798746664533E+00
(PID.TID 0000.0001) %MON dynstat_sss_del2             =   1.1510449823539E-02
(PID.TID 0000.0001) %MON forcing_qnet_max             =   2.1168747558594E+03
(PID.TID 0000.0001) %MON forcing_qnet_min             =  -1.4271564941406E+03
(PID.TID 0000.0001) %MON forcing_qnet_mean            =   6.3588610111305E+00
(PID.TID 0000.0001) %MON forcing_qnet_sd              =   2.1538090209644E+02
(PID.TID 0000.0001) %MON forcing_qnet_del2            =   4.0642140155087E+00
(PID.TID 0000.0001) %MON forcing_qsw_max              =   0.0000000000000E+00
(PID.TID 0000.0001) %MON forcing_qsw_min              =  -3.9136797389104E+02
(PID.TID 0000.0001) %MON forcing_qsw_mean             =  -5.3664401590233E+01
(PID.TID 0000.0001) %MON forcing_qsw_sd               =   9.1332328756515E+01
(PID.TID 0000.0001) %MON forcing_qsw_del2             =   8.6312418724682E-01
(PID.TID 0000.0001) %MON forcing_empmr_max            =   6.4729973673820E-03
(PID.TID 0000.0001) %MON forcing_empmr_min            =  -9.3054689466953E-02
(PID.TID 0000.0001) %MON forcing_empmr_mean           =  -2.7480019327766E-04
(PID.TID 0000.0001) %MON forcing_empmr_sd             =   4.1093600224051E-03
(PID.TID 0000.0001) %MON forcing_empmr_del2           =   1.6207968168326E-04
(PID.TID 0000.0001) %MON forcing_fu_max               =   3.9452416642697E-01
(PID.TID 0000.0001) %MON forcing_fu_min               =  -3.5604788153671E-01
(PID.TID 0000.0001) %MON forcing_fu_mean              =  -2.1688320866343E-03
(PID.TID 0000.0001) %MON forcing_fu_sd                =   6.1132270275665E-02
(PID.TID 0000.0001) %MON forcing_fu_del2              =   6.1067561720559E-04
(PID.TID 0000.0001) %MON forcing_fv_max               =   3.2497877816768E-01
(PID.TID 0000.0001) %MON forcing_fv_min               =  -2.9304311697931E-01
(PID.TID 0000.0001) %MON forcing_fv_mean              =  -1.5398014234531E-02
(PID.TID 0000.0001) %MON forcing_fv_sd                =   6.1516181979352E-02
(PID.TID 0000.0001) %MON forcing_fv_del2              =   5.2952425265857E-04
(PID.TID 0000.0001) %MON trAdv_CFL_u_max              =   1.7670570592772E-03
(PID.TID 0000.0001) %MON trAdv_CFL_v_max              =   1.7582281326899E-03
(PID.TID 0000.0001) %MON trAdv_CFL_w_max              =   1.7367851056908E-03
(PID.TID 0000.0001) %MON advcfl_uvel_max              =   1.7661059288410E-03
(PID.TID 0000.0001) %MON advcfl_vvel_max              =   1.7408764514552E-03
(PID.TID 0000.0001) %MON advcfl_wvel_max              =   3.2366848510245E-03
(PID.TID 0000.0001) %MON advcfl_W_hf_max              =   1.8390350033460E-03
(PID.TID 0000.0001) %MON pe_b_mean                    =   5.0531388287106E-04
(PID.TID 0000.0001) %MON ke_max                       =   1.9721535895605E-01
(PID.TID 0000.0001) %MON ke_mean                      =   1.6252680895632E-04
(PID.TID 0000.0001) %MON ke_vol                       =   1.3398121560005E+18
(PID.TID 0000.0001) %MON vort_r_min                   =  -3.7704661178538E-06
(PID.TID 0000.0001) %MON vort_r_max                   =   2.6271359908554E-06
(PID.TID 0000.0001) %MON vort_a_mean                  =  -2.0549865324846E-05
(PID.TID 0000.0001) %MON vort_a_sd                    =   7.5259687468351E-05
(PID.TID 0000.0001) %MON vort_p_mean                  =  -2.4783292625427E-05
(PID.TID 0000.0001) %MON vort_p_sd                    =   1.2811906685707E-04
(PID.TID 0000.0001) %MON surfExpan_theta_mean         =  -6.9260639557960E-06
(PID.TID 0000.0001) %MON surfExpan_salt_mean          =   1.2263155340088E-06
(PID.TID 0000.0001) // =======================================================
(PID.TID 0000.0001) // End MONITOR dynamic field statistics
(PID.TID 0000.0001) // =======================================================
 cg2d: Sum(rhs),rhsMax =  -3.83935765177340E+01  6.08847308738500E+01
(PID.TID 0000.0001)      cg2d_init_res =   1.63861828725334E-01
(PID.TID 0000.0001)      cg2d_iters(min,last) =      -1      10
(PID.TID 0000.0001)      cg2d_last_res =   7.93722524131864E-08
(PID.TID 0000.0001) // =======================================================
(PID.TID 0000.0001) // Begin MONITOR dynamic field statistics
(PID.TID 0000.0001) // =======================================================
(PID.TID 0000.0001) %MON time_tsnumber                =                 72054
(PID.TID 0000.0001) %MON time_secondsf                =   6.4848600000000E+07
(PID.TID 0000.0001) %MON dynstat_eta_max              =   2.7118468290776E+00
(PID.TID 0000.0001) %MON dynstat_eta_min              =  -1.5934256569270E+00
(PID.TID 0000.0001) %MON dynstat_eta_mean             =   2.7162399609940E-02
(PID.TID 0000.0001) %MON dynstat_eta_sd               =   6.1479472211450E-01
(PID.TID 0000.0001) %MON dynstat_eta_del2             =   2.1507883667367E-03
(PID.TID 0000.0001) %MON dynstat_uvel_max             =   4.2481876856856E-01
(PID.TID 0000.0001) %MON dynstat_uvel_min             =  -6.2875955419610E-01
(PID.TID 0000.0001) %MON dynstat_uvel_mean            =  -4.7066770996036E-04
(PID.TID 0000.0001) %MON dynstat_uvel_sd              =   1.2700666365326E-02
(PID.TID 0000.0001) %MON dynstat_uvel_del2            =   9.4503717636476E-05
(PID.TID 0000.0001) %MON dynstat_vvel_max             =   5.9050829703994E-01
(PID.TID 0000.0001) %MON dynstat_vvel_min             =  -5.7919769181595E-01
(PID.TID 0000.0001) %MON dynstat_vvel_mean            =   4.0325562438447E-04
(PID.TID 0000.0001) %MON dynstat_vvel_sd              =   1.3836824103392E-02
(PID.TID 0000.0001) %MON dynstat_vvel_del2            =   8.9182670733459E-05
(PID.TID 0000.0001) %MON dynstat_wvel_max             =   1.3975740477234E-04
(PID.TID 0000.0001) %MON dynstat_wvel_min             =  -1.7989464832091E-04
(PID.TID 0000.0001) %MON dynstat_wvel_mean            =  -3.0539464187769E-07
(PID.TID 0000.0001) %MON dynstat_wvel_sd              =   7.9798437262270E-06
(PID.TID 0000.0001) %MON dynstat_wvel_del2            =   7.7339513758334E-08
(PID.TID 0000.0001) %MON dynstat_theta_max            =   3.0938736998075E+01
(PID.TID 0000.0001) %MON dynstat_theta_min            =  -3.0052040407390E+00
(PID.TID 0000.0001) %MON dynstat_theta_mean           =   3.9092134278093E+00
(PID.TID 0000.0001) %MON dynstat_theta_sd             =   4.5716267874359E+00
(PID.TID 0000.0001) %MON dynstat_theta_del2           =   2.6447825008353E-03
(PID.TID 0000.0001) %MON dynstat_salt_max             =   4.1349651785871E+01
(PID.TID 0000.0001) %MON dynstat_salt_min             =   1.8518918471938E+01
(PID.TID 0000.0001) %MON dynstat_salt_mean            =   3.4771964499140E+01
(PID.TID 0000.0001) %MON dynstat_salt_sd              =   5.3186424773151E-01
(PID.TID 0000.0001) %MON dynstat_salt_del2            =   1.0419234611991E-03
(PID.TID 0000.0001) %MON dynstat_sst_max              =   3.0938736998075E+01
(PID.TID 0000.0001) %MON dynstat_sst_min              =  -1.8970789967368E+00
(PID.TID 0000.0001) %MON dynstat_sst_mean             =   1.8112372464396E+01
(PID.TID 0000.0001) %MON dynstat_sst_sd               =   9.8101982866630E+00
(PID.TID 0000.0001) %MON dynstat_sst_del2             =   1.5107988869808E-02
(PID.TID 0000.0001) %MON dynstat_sss_max              =   4.1349651785871E+01
(PID.TID 0000.0001) %MON dynstat_sss_min              =   1.8751955519919E+01
(PID.TID 0000.0001) %MON dynstat_sss_mean             =   3.4625259010865E+01
(PID.TID 0000.0001) %MON dynstat_sss_sd               =   1.4802751058073E+00
(PID.TID 0000.0001) %MON dynstat_sss_del2             =   1.1567564801770E-02
(PID.TID 0000.0001) %MON forcing_qnet_max             =   2.0929675292969E+03
(PID.TID 0000.0001) %MON forcing_qnet_min             =  -2.0017932128906E+03
(PID.TID 0000.0001) %MON forcing_qnet_mean            =   4.8787506463172E+00
(PID.TID 0000.0001) %MON forcing_qnet_sd              =   2.1688232535198E+02
(PID.TID 0000.0001) %MON forcing_qnet_del2            =   4.2151832331564E+00
(PID.TID 0000.0001) %MON forcing_qsw_max              =   0.0000000000000E+00
(PID.TID 0000.0001) %MON forcing_qsw_min              =  -3.8808264700320E+02
(PID.TID 0000.0001) %MON forcing_qsw_mean             =  -5.4261782228103E+01
(PID.TID 0000.0001) %MON forcing_qsw_sd               =   9.1738709430421E+01
(PID.TID 0000.0001) %MON forcing_qsw_del2             =   8.6580594502424E-01
(PID.TID 0000.0001) %MON forcing_empmr_max            =   6.4062797464430E-03
(PID.TID 0000.0001) %MON forcing_empmr_min            =  -9.2095613479614E-02
(PID.TID 0000.0001) %MON forcing_empmr_mean           =  -2.7319756089915E-04
(PID.TID 0000.0001) %MON forcing_empmr_sd             =   4.0775806401897E-03
(PID.TID 0000.0001) %MON forcing_empmr_del2           =   1.6074899191820E-04
(PID.TID 0000.0001) %MON forcing_fu_max               =   3.9502567635674E-01
(PID.TID 0000.0001) %MON forcing_fu_min               =  -3.5258353074932E-01
(PID.TID 0000.0001) %MON forcing_fu_mean              =  -2.1425791478226E-03
(PID.TID 0000.0001) %MON forcing_fu_sd                =   6.1367267321269E-02
(PID.TID 0000.0001) %MON forcing_fu_del2              =   6.1261640984313E-04
(PID.TID 0000.0001) %MON forcing_fv_max               =   3.2430276737376E-01
(PID.TID 0000.0001) %MON forcing_fv_min               =  -2.9140254363377E-01
(PID.TID 0000.0001) %MON forcing_fv_mean              =  -1.5404161284267E-02
(PID.TID 0000.0001) %MON forcing_fv_sd                =   6.1461832209366E-02
(PID.TID 0000.0001) %MON forcing_fv_del2              =   5.2948505489897E-04
(PID.TID 0000.0001) %MON trAdv_CFL_u_max              =   1.8283337266667E-03
(PID.TID 0000.0001) %MON trAdv_CFL_v_max              =   1.9486295918788E-03
(PID.TID 0000.0001) %MON trAdv_CFL_w_max              =   1.7548247554459E-03
(PID.TID 0000.0001) %MON advcfl_uvel_max              =   1.8271810203952E-03
(PID.TID 0000.0001) %MON advcfl_vvel_max              =   1.9270439730973E-03
(PID.TID 0000.0001) %MON advcfl_wvel_max              =   3.2033256862475E-03
(PID.TID 0000.0001) %MON advcfl_W_hf_max              =   1.7968847780690E-03
(PID.TID 0000.0001) %MON pe_b_mean                    =   5.0450847612728E-04
(PID.TID 0000.0001) %MON ke_max                       =   2.0583331710785E-01
(PID.TID 0000.0001) %MON ke_mean                      =   1.6310785583102E-04
(PID.TID 0000.0001) %MON ke_vol                       =   1.3398122429537E+18
(PID.TID 0000.0001) %MON vort_r_min                   =  -3.9069977555164E-06
(PID.TID 0000.0001) %MON vort_r_max                   =   2.6508242255449E-06
(PID.TID 0000.0001) %MON vort_a_mean                  =  -2.0549865324846E-05
(PID.TID 0000.0001) %MON vort_a_sd                    =   7.5259695922486E-05
(PID.TID 0000.0001) %MON vort_p_mean                  =  -2.4783290625247E-05
(PID.TID 0000.0001) %MON vort_p_sd                    =   1.2811906227208E-04
(PID.TID 0000.0001) %MON surfExpan_theta_mean         =  -7.0144272351528E-06
(PID.TID 0000.0001) %MON surfExpan_salt_mean          =   1.2465199415766E-06
(PID.TID 0000.0001) // =======================================================
(PID.TID 0000.0001) // End MONITOR dynamic field statistics
(PID.TID 0000.0001) // =======================================================
 cg2d: Sum(rhs),rhsMax =  -4.03494808253743E+01  5.84440883319498E+01
(PID.TID 0000.0001)      cg2d_init_res =   1.76214748249887E-01
(PID.TID 0000.0001)      cg2d_iters(min,last) =      -1      10
(PID.TID 0000.0001)      cg2d_last_res =   7.98520518632256E-08
(PID.TID 0000.0001) // =======================================================
(PID.TID 0000.0001) // Begin MONITOR dynamic field statistics
(PID.TID 0000.0001) // =======================================================
(PID.TID 0000.0001) %MON time_tsnumber                =                 72055
(PID.TID 0000.0001) %MON time_secondsf                =   6.4849500000000E+07
(PID.TID 0000.0001) %MON dynstat_eta_max              =   2.6032875060013E+00
(PID.TID 0000.0001) %MON dynstat_eta_min              =  -1.5921167882133E+00
(PID.TID 0000.0001) %MON dynstat_eta_mean             =   2.7401839155241E-02
(PID.TID 0000.0001) %MON dynstat_eta_sd               =   6.1428686935422E-01
(PID.TID 0000.0001) %MON dynstat_eta_del2             =   2.0455730896101E-03
(PID.TID 0000.0001) %MON dynstat_uvel_max             =   4.9779130585239E-01
(PID.TID 0000.0001) %MON dynstat_uvel_min             =  -6.4988943514988E-01
(PID.TID 0000.0001) %MON dynstat_uvel_mean            =  -4.5493892832865E-04
(PID.TID 0000.0001) %MON dynstat_uvel_sd              =   1.2729057547840E-02
(PID.TID 0000.0001) %MON dynstat_uvel_del2            =   9.5386321526216E-05
(PID.TID 0000.0001) %MON dynstat_vvel_max             =   6.3543019414791E-01
(PID.TID 0000.0001) %MON dynstat_vvel_min             =  -5.9793584988905E-01
(PID.TID 0000.0001) %MON dynstat_vvel_mean            =   4.3213566389128E-04
(PID.TID 0000.0001) %MON dynstat_vvel_sd              =   1.3857712331531E-02
(PID.TID 0000.0001) %MON dynstat_vvel_del2            =   9.1326065361296E-05
(PID.TID 0000.0001) %MON dynstat_wvel_max             =   1.3643519137478E-04
(PID.TID 0000.0001) %MON dynstat_wvel_min             =  -1.7976610736771E-04
(PID.TID 0000.0001) %MON dynstat_wvel_mean            =  -3.1708481154178E-07
(PID.TID 0000.0001) %MON dynstat_wvel_sd              =   8.0022971142090E-06
(PID.TID 0000.0001) %MON dynstat_wvel_del2            =   7.7377601249523E-08
(PID.TID 0000.0001) %MON dynstat_theta_max            =   3.0938560699211E+01
(PID.TID 0000.0001) %MON dynstat_theta_min            =  -3.0054413917824E+00
(PID.TID 0000.0001) %MON dynstat_theta_mean           =   3.9092148070629E+00
(PID.TID 0000.0001) %MON dynstat_theta_sd             =   4.5716313486328E+00
(PID.TID 0000.0001) %MON dynstat_theta_del2           =   2.6446414693993E-03
(PID.TID 0000.0001) %MON dynstat_salt_max             =   4.1349380263115E+01
(PID.TID 0000.0001) %MON dynstat_salt_min             =   1.8518928704030E+01
(PID.TID 0000.0001) %MON dynstat_salt_mean            =   3.4771962016146E+01
(PID.TID 0000.0001) %MON dynstat_salt_sd              =   5.3187989762043E-01
(PID.TID 0000.0001) %MON dynstat_salt_del2            =   1.0458659408214E-03
(PID.TID 0000.0001) %MON dynstat_sst_max              =   3.0938560699211E+01
(PID.TID 0000.0001) %MON dynstat_sst_min              =  -1.8971702612504E+00
(PID.TID 0000.0001) %MON dynstat_sst_mean             =   1.8112370404403E+01
(PID.TID 0000.0001) %MON dynstat_sst_sd               =   9.8102757608759E+00
(PID.TID 0000.0001) %MON dynstat_sst_del2             =   1.5105450474359E-02
(PID.TID 0000.0001) %MON dynstat_sss_max              =   4.1349380263115E+01
(PID.TID 0000.0001) %MON dynstat_sss_min              =   1.8751974090120E+01
(PID.TID 0000.0001) %MON dynstat_sss_mean             =   3.4625081216713E+01
(PID.TID 0000.0001) %MON dynstat_sss_sd               =   1.4806706926758E+00
(PID.TID 0000.0001) %MON dynstat_sss_del2             =   1.1623606334645E-02
(PID.TID 0000.0001) %MON forcing_qnet_max             =   2.7234130934697E+03
(PID.TID 0000.0001) %MON forcing_qnet_min             =  -2.4352333984375E+03
(PID.TID 0000.0001) %MON forcing_qnet_mean            =   3.7018784397737E+00
(PID.TID 0000.0001) %MON forcing_qnet_sd              =   2.2192810610860E+02
(PID.TID 0000.0001) %MON forcing_qnet_del2            =   4.5920695784835E+00
(PID.TID 0000.0001) %MON forcing_qsw_max              =   0.0000000000000E+00
(PID.TID 0000.0001) %MON forcing_qsw_min              =  -3.8813101467853E+02
(PID.TID 0000.0001) %MON forcing_qsw_mean             =  -5.4707161243210E+01
(PID.TID 0000.0001) %MON forcing_qsw_sd               =   9.2183423075937E+01
(PID.TID 0000.0001) %MON forcing_qsw_del2             =   8.6776142090070E-01
(PID.TID 0000.0001) %MON forcing_empmr_max            =   6.3402503728867E-03
(PID.TID 0000.0001) %MON forcing_empmr_min            =  -9.1147445142269E-02
(PID.TID 0000.0001) %MON forcing_empmr_mean           =  -2.7535547709650E-04
(PID.TID 0000.0001) %MON forcing_empmr_sd             =   4.0755475765713E-03
(PID.TID 0000.0001) %MON forcing_empmr_del2           =   1.6042318363746E-04
(PID.TID 0000.0001) %MON forcing_fu_max               =   3.9214471479807E-01
(PID.TID 0000.0001) %MON forcing_fu_min               =  -3.4824716114473E-01
(PID.TID 0000.0001) %MON forcing_fu_mean              =  -2.1572390656204E-03
(PID.TID 0000.0001) %MON forcing_fu_sd                =   6.1498119648148E-02
(PID.TID 0000.0001) %MON forcing_fu_del2              =   6.1423847488326E-04
(PID.TID 0000.0001) %MON forcing_fv_max               =   3.2289609409282E-01
(PID.TID 0000.0001) %MON forcing_fv_min               =  -2.8961161022862E-01
(PID.TID 0000.0001) %MON forcing_fv_mean              =  -1.5473480753857E-02
(PID.TID 0000.0001) %MON forcing_fv_sd                =   6.1376780773225E-02
(PID.TID 0000.0001) %MON forcing_fv_del2              =   5.2942998455878E-04
(PID.TID 0000.0001) %MON trAdv_CFL_u_max              =   1.8900527441854E-03
(PID.TID 0000.0001) %MON trAdv_CFL_v_max              =   2.0998608617638E-03
(PID.TID 0000.0001) %MON trAdv_CFL_w_max              =   1.7650629035587E-03
(PID.TID 0000.0001) %MON advcfl_uvel_max              =   1.8885846478777E-03
(PID.TID 0000.0001) %MON advcfl_vvel_max              =   2.0736405095320E-03
(PID.TID 0000.0001) %MON advcfl_wvel_max              =   3.1703459179920E-03
(PID.TID 0000.0001) %MON advcfl_W_hf_max              =   1.7650629035587E-03
(PID.TID 0000.0001) %MON pe_b_mean                    =   5.0369431462833E-04
(PID.TID 0000.0001) %MON ke_max                       =   2.1413696825705E-01
(PID.TID 0000.0001) %MON ke_mean                      =   1.6371248439751E-04
(PID.TID 0000.0001) %MON ke_vol                       =   1.3398123293997E+18
(PID.TID 0000.0001) %MON vort_r_min                   =  -4.0359537300056E-06
(PID.TID 0000.0001) %MON vort_r_max                   =   2.6645941398682E-06
(PID.TID 0000.0001) %MON vort_a_mean                  =  -2.0549865324846E-05
(PID.TID 0000.0001) %MON vort_a_sd                    =   7.5259703686736E-05
(PID.TID 0000.0001) %MON vort_p_mean                  =  -2.4783288594405E-05
(PID.TID 0000.0001) %MON vort_p_sd                    =   1.2811906108952E-04
(PID.TID 0000.0001) %MON surfExpan_theta_mean         =  -7.1345972402102E-06
(PID.TID 0000.0001) %MON surfExpan_salt_mean          =   1.2616594263484E-06
(PID.TID 0000.0001) // =======================================================
(PID.TID 0000.0001) // End MONITOR dynamic field statistics
(PID.TID 0000.0001) // =======================================================
 Computing Diagnostic #     81  oceTAUX      Counter:       1   Parms: UU      U1      
           Vector  Mate for  oceTAUX      Diagnostic #     82  oceTAUY  exists 
 Computing Diagnostic #     82  oceTAUY      Counter:       1   Parms: VV      U1      
           Vector  Mate for  oceTAUY      Diagnostic #     81  oceTAUX  exists 
 Computing Diagnostic #     85  oceFWflx     Counter:       1   Parms: SM      U1      
 Computing Diagnostic #     86  oceSflux     Counter:       1   Parms: SM      U1      
 Computing Diagnostic #     87  oceQnet      Counter:       1   Parms: SM      U1      
 Computing Diagnostic #     88  oceQsw       Counter:       1   Parms: SM      U1      
 Computing Diagnostic #     27  SALT         Counter:       1   Parms: SMR     MR      
 Computing Diagnostic #     26  THETA        Counter:       1   Parms: SMR     MR      
 Computing Diagnostic #     45  UVELMASS     Counter:       1   Parms: UUr     MR      
           Vector  Mate for  UVELMASS     Diagnostic #     46  VVELMASS exists 
 Computing Diagnostic #     46  VVELMASS     Counter:       1   Parms: VVr     MR      
           Vector  Mate for  VVELMASS     Diagnostic #     45  UVELMASS exists 
 cg2d: Sum(rhs),rhsMax =  -4.28973507993936E+01  5.57138709029220E+01
(PID.TID 0000.0001)      cg2d_init_res =   2.80967034743968E-01
(PID.TID 0000.0001)      cg2d_iters(min,last) =      -1      11
(PID.TID 0000.0001)      cg2d_last_res =   2.63503562963566E-08
(PID.TID 0000.0001) // =======================================================
(PID.TID 0000.0001) // Begin MONITOR dynamic field statistics
(PID.TID 0000.0001) // =======================================================
(PID.TID 0000.0001) %MON time_tsnumber                =                 72056
(PID.TID 0000.0001) %MON time_secondsf                =   6.4850400000000E+07
(PID.TID 0000.0001) %MON dynstat_eta_max              =   2.4818587713678E+00
(PID.TID 0000.0001) %MON dynstat_eta_min              =  -1.5909213975047E+00
(PID.TID 0000.0001) %MON dynstat_eta_mean             =   2.7771221296729E-02
(PID.TID 0000.0001) %MON dynstat_eta_sd               =   6.1373000927252E-01
(PID.TID 0000.0001) %MON dynstat_eta_del2             =   1.9501803342324E-03
(PID.TID 0000.0001) %MON dynstat_uvel_max             =   5.6066949731815E-01
(PID.TID 0000.0001) %MON dynstat_uvel_min             =  -6.7092240676113E-01
(PID.TID 0000.0001) %MON dynstat_uvel_mean            =  -4.3688070313610E-04
(PID.TID 0000.0001) %MON dynstat_uvel_sd              =   1.2761640019330E-02
(PID.TID 0000.0001) %MON dynstat_uvel_del2            =   9.6161659283426E-05
(PID.TID 0000.0001) %MON dynstat_vvel_max             =   6.6799804114939E-01
(PID.TID 0000.0001) %MON dynstat_vvel_min             =  -6.1401495757763E-01
(PID.TID 0000.0001) %MON dynstat_vvel_mean            =   4.5909858927553E-04
(PID.TID 0000.0001) %MON dynstat_vvel_sd              =   1.3875880719333E-02
(PID.TID 0000.0001) %MON dynstat_vvel_del2            =   9.3549699773505E-05
(PID.TID 0000.0001) %MON dynstat_wvel_max             =   1.3293801227123E-04
(PID.TID 0000.0001) %MON dynstat_wvel_min             =  -6.7170127002513E-04
(PID.TID 0000.0001) %MON dynstat_wvel_mean            =  -3.5580801317828E-07
(PID.TID 0000.0001) %MON dynstat_wvel_sd              =   8.6934284752024E-06
(PID.TID 0000.0001) %MON dynstat_wvel_del2            =   9.3442335490115E-08
(PID.TID 0000.0001) %MON dynstat_theta_max            =   3.0938380532034E+01
(PID.TID 0000.0001) %MON dynstat_theta_min            =  -3.0056728810660E+00
(PID.TID 0000.0001) %MON dynstat_theta_mean           =   3.9092163006494E+00
(PID.TID 0000.0001) %MON dynstat_theta_sd             =   4.5716354049131E+00
(PID.TID 0000.0001) %MON dynstat_theta_del2           =   2.6444769314505E-03
(PID.TID 0000.0001) %MON dynstat_salt_max             =   4.1349125824654E+01
(PID.TID 0000.0001) %MON dynstat_salt_min             =   1.8518938927168E+01
(PID.TID 0000.0001) %MON dynstat_salt_mean            =   3.4771959457719E+01
(PID.TID 0000.0001) %MON dynstat_salt_sd              =   5.3189490554427E-01
(PID.TID 0000.0001) %MON dynstat_salt_del2            =   1.0497444948027E-03
(PID.TID 0000.0001) %MON dynstat_sst_max              =   3.0938380532034E+01
(PID.TID 0000.0001) %MON dynstat_sst_min              =  -1.8972762292058E+00
(PID.TID 0000.0001) %MON dynstat_sst_mean             =   1.8112333009305E+01
(PID.TID 0000.0001) %MON dynstat_sst_sd               =   9.8103439015017E+00
(PID.TID 0000.0001) %MON dynstat_sst_del2             =   1.5102628053322E-02
(PID.TID 0000.0001) %MON dynstat_sss_max              =   4.1349125824654E+01
(PID.TID 0000.0001) %MON dynstat_sss_min              =   1.8751991993265E+01
(PID.TID 0000.0001) %MON dynstat_sss_mean             =   3.4624893188352E+01
(PID.TID 0000.0001) %MON dynstat_sss_sd               =   1.4810456866618E+00
(PID.TID 0000.0001) %MON dynstat_sss_del2             =   1.1678687552993E-02
(PID.TID 0000.0001) %MON forcing_qnet_max             =   4.0114412339295E+04
(PID.TID 0000.0001) %MON forcing_qnet_min             =  -2.8621877441406E+03
(PID.TID 0000.0001) %MON forcing_qnet_mean            =   1.1445317840657E+01
(PID.TID 0000.0001) %MON forcing_qnet_sd              =   6.5218251111966E+02
(PID.TID 0000.0001) %MON forcing_qnet_del2            =   2.2677890434856E+01
(PID.TID 0000.0001) %MON forcing_qsw_max              =   0.0000000000000E+00
(PID.TID 0000.0001) %MON forcing_qsw_min              =  -3.9205185940127E+02
(PID.TID 0000.0001) %MON forcing_qsw_mean             =  -5.5001855818611E+01
(PID.TID 0000.0001) %MON forcing_qsw_sd               =   9.2654663069088E+01
(PID.TID 0000.0001) %MON forcing_qsw_del2             =   8.6895381300224E-01
(PID.TID 0000.0001) %MON forcing_empmr_max            =   6.2749106436968E-03
(PID.TID 0000.0001) %MON forcing_empmr_min            =  -6.9521081447601E-01
(PID.TID 0000.0001) %MON forcing_empmr_mean           =  -4.2478946271121E-04
(PID.TID 0000.0001) %MON forcing_empmr_sd             =   1.1350061557957E-02
(PID.TID 0000.0001) %MON forcing_empmr_del2           =   4.1589060882131E-04
(PID.TID 0000.0001) %MON forcing_fu_max               =   3.8963667939726E-01
(PID.TID 0000.0001) %MON forcing_fu_min               =  -3.5558225797624E-01
(PID.TID 0000.0001) %MON forcing_fu_mean              =  -2.1965504599408E-03
(PID.TID 0000.0001) %MON forcing_fu_sd                =   6.1539018325318E-02
(PID.TID 0000.0001) %MON forcing_fu_del2              =   6.1497487157592E-04
(PID.TID 0000.0001) %MON forcing_fv_max               =   3.1772724646511E-01
(PID.TID 0000.0001) %MON forcing_fv_min               =  -2.8744861807105E-01
(PID.TID 0000.0001) %MON forcing_fv_mean              =  -1.5512686304851E-02
(PID.TID 0000.0001) %MON forcing_fv_sd                =   6.1211472026048E-02
(PID.TID 0000.0001) %MON forcing_fv_del2              =   5.2864029353039E-04
(PID.TID 0000.0001) %MON trAdv_CFL_u_max              =   1.9516307373187E-03
(PID.TID 0000.0001) %MON trAdv_CFL_v_max              =   2.2110160273344E-03
(PID.TID 0000.0001) %MON trAdv_CFL_w_max              =   1.1310084315650E-02
(PID.TID 0000.0001) %MON advcfl_uvel_max              =   1.9497066559237E-03
(PID.TID 0000.0001) %MON advcfl_vvel_max              =   2.1799212740794E-03
(PID.TID 0000.0001) %MON advcfl_wvel_max              =   2.4181245720905E-02
(PID.TID 0000.0001) %MON advcfl_W_hf_max              =   1.1310084315650E-02
(PID.TID 0000.0001) %MON pe_b_mean                    =   5.0281044560354E-04
(PID.TID 0000.0001) %MON ke_max                       =   2.2211895520806E-01
(PID.TID 0000.0001) %MON ke_mean                      =   1.6433161324499E-04
(PID.TID 0000.0001) %MON ke_vol                       =   1.3398124165286E+18
(PID.TID 0000.0001) %MON vort_r_min                   =  -4.1560221354562E-06
(PID.TID 0000.0001) %MON vort_r_max                   =   2.6692284401285E-06
(PID.TID 0000.0001) %MON vort_a_mean                  =  -2.0549865324846E-05
(PID.TID 0000.0001) %MON vort_a_sd                    =   7.5259711069311E-05
(PID.TID 0000.0001) %MON vort_p_mean                  =  -2.4783286523242E-05
(PID.TID 0000.0001) %MON vort_p_sd                    =   1.2811905704217E-04
(PID.TID 0000.0001) %MON surfExpan_theta_mean         =  -8.6837035594168E-06
(PID.TID 0000.0001) %MON surfExpan_salt_mean          =   1.1559108167662E-06
(PID.TID 0000.0001) // =======================================================
(PID.TID 0000.0001) // End MONITOR dynamic field statistics
(PID.TID 0000.0001) // =======================================================
 cg2d: Sum(rhs),rhsMax =  -4.57177382429318E+01  5.27199120827548E+01
(PID.TID 0000.0001)      cg2d_init_res =   2.21746798706010E-01
(PID.TID 0000.0001)      cg2d_iters(min,last) =      -1      10
(PID.TID 0000.0001)      cg2d_last_res =   8.73541595765338E-08
(PID.TID 0000.0001) // =======================================================
(PID.TID 0000.0001) // Begin MONITOR dynamic field statistics
(PID.TID 0000.0001) // =======================================================
(PID.TID 0000.0001) %MON time_tsnumber                =                 72057
(PID.TID 0000.0001) %MON time_secondsf                =   6.4851300000000E+07
(PID.TID 0000.0001) %MON dynstat_eta_max              =   2.3487055132420E+00
(PID.TID 0000.0001) %MON dynstat_eta_min              =  -1.5897888233406E+00
(PID.TID 0000.0001) %MON dynstat_eta_mean             =   2.8006612809470E-02
(PID.TID 0000.0001) %MON dynstat_eta_sd               =   6.1326013920004E-01
(PID.TID 0000.0001) %MON dynstat_eta_del2             =   1.8266325400459E-03
(PID.TID 0000.0001) %MON dynstat_uvel_max             =   6.1265033404875E-01
(PID.TID 0000.0001) %MON dynstat_uvel_min             =  -6.9161866877802E-01
(PID.TID 0000.0001) %MON dynstat_uvel_mean            =  -4.1804121701413E-04
(PID.TID 0000.0001) %MON dynstat_uvel_sd              =   1.2798942975582E-02
(PID.TID 0000.0001) %MON dynstat_uvel_del2            =   9.6776324774481E-05
(PID.TID 0000.0001) %MON dynstat_vvel_max             =   6.8821579051592E-01
(PID.TID 0000.0001) %MON dynstat_vvel_min             =  -6.2726146799456E-01
(PID.TID 0000.0001) %MON dynstat_vvel_mean            =   4.8264573508818E-04
(PID.TID 0000.0001) %MON dynstat_vvel_sd              =   1.3887029766864E-02
(PID.TID 0000.0001) %MON dynstat_vvel_del2            =   9.5662065212319E-05
(PID.TID 0000.0001) %MON dynstat_wvel_max             =   1.2914998253493E-04
(PID.TID 0000.0001) %MON dynstat_wvel_min             =  -1.7963583400691E-04
(PID.TID 0000.0001) %MON dynstat_wvel_mean            =  -3.4042604011692E-07
(PID.TID 0000.0001) %MON dynstat_wvel_sd              =   8.0398240786675E-06
(PID.TID 0000.0001) %MON dynstat_wvel_del2            =   7.7033811210025E-08
(PID.TID 0000.0001) %MON dynstat_theta_max            =   3.0938196519752E+01
(PID.TID 0000.0001) %MON dynstat_theta_min            =  -3.0059049438912E+00
(PID.TID 0000.0001) %MON dynstat_theta_mean           =   3.9092178894924E+00
(PID.TID 0000.0001) %MON dynstat_theta_sd             =   4.5716399538482E+00
(PID.TID 0000.0001) %MON dynstat_theta_del2           =   2.6443324674902E-03
(PID.TID 0000.0001) %MON dynstat_salt_max             =   4.1348889062968E+01
(PID.TID 0000.0001) %MON dynstat_salt_min             =   1.8518949142683E+01
(PID.TID 0000.0001) %MON dynstat_salt_mean            =   3.4771957080290E+01
(PID.TID 0000.0001) %MON dynstat_salt_sd              =   5.3191011911627E-01
(PID.TID 0000.0001) %MON dynstat_salt_del2            =   1.0535557048831E-03
(PID.TID 0000.0001) %MON dynstat_sst_max              =   3.0938196519752E+01
(PID.TID 0000.0001) %MON dynstat_sst_min              =  -1.8973942161178E+00
(PID.TID 0000.0001) %MON dynstat_sst_mean             =   1.8112345992369E+01
(PID.TID 0000.0001) %MON dynstat_sst_sd               =   9.8104107333168E+00
(PID.TID 0000.0001) %MON dynstat_sst_del2             =   1.5099866088525E-02
(PID.TID 0000.0001) %MON dynstat_sss_max              =   4.1348889062968E+01
(PID.TID 0000.0001) %MON dynstat_sss_min              =   1.8752009453706E+01
(PID.TID 0000.0001) %MON dynstat_sss_mean             =   3.4624720740968E+01
(PID.TID 0000.0001) %MON dynstat_sss_sd               =   1.4814319024567E+00
(PID.TID 0000.0001) %MON dynstat_sss_del2             =   1.1732762778586E-02
(PID.TID 0000.0001) %MON forcing_qnet_max             =   2.0196677246094E+03
(PID.TID 0000.0001) %MON forcing_qnet_min             =  -3.3008339843750E+03
(PID.TID 0000.0001) %MON forcing_qnet_mean            =  -5.6797076557933E-01
(PID.TID 0000.0001) %MON forcing_qnet_sd              =   2.2155499784881E+02
(PID.TID 0000.0001) %MON forcing_qnet_del2            =   4.4940851878403E+00
(PID.TID 0000.0001) %MON forcing_qsw_max              =   0.0000000000000E+00
(PID.TID 0000.0001) %MON forcing_qsw_min              =  -3.9584579896020E+02
(PID.TID 0000.0001) %MON forcing_qsw_mean             =  -5.5914308937274E+01
(PID.TID 0000.0001) %MON forcing_qsw_sd               =   9.4441678643599E+01
(PID.TID 0000.0001) %MON forcing_qsw_del2             =   8.8040771081328E-01
(PID.TID 0000.0001) %MON forcing_empmr_max            =   6.2102596275508E-03
(PID.TID 0000.0001) %MON forcing_empmr_min            =  -8.9278802275658E-02
(PID.TID 0000.0001) %MON forcing_empmr_mean           =  -2.7070023965261E-04
(PID.TID 0000.0001) %MON forcing_empmr_sd             =   3.9992162118503E-03
(PID.TID 0000.0001) %MON forcing_empmr_del2           =   1.5741411790499E-04
(PID.TID 0000.0001) %MON forcing_fu_max               =   3.8876484785356E-01
(PID.TID 0000.0001) %MON forcing_fu_min               =  -3.6397111823487E-01
(PID.TID 0000.0001) %MON forcing_fu_mean              =  -2.1902119644976E-03
(PID.TID 0000.0001) %MON forcing_fu_sd                =   6.1578631174033E-02
(PID.TID 0000.0001) %MON forcing_fu_del2              =   6.1515780958246E-04
(PID.TID 0000.0001) %MON forcing_fv_max               =   3.0326477349893E-01
(PID.TID 0000.0001) %MON forcing_fv_min               =  -2.8518630796786E-01
(PID.TID 0000.0001) %MON forcing_fv_mean              =  -1.5595114480744E-02
(PID.TID 0000.0001) %MON forcing_fv_sd                =   6.1134353538970E-02
(PID.TID 0000.0001) %MON forcing_fv_del2              =   5.2974494396659E-04
(PID.TID 0000.0001) %MON trAdv_CFL_u_max              =   2.0123960750473E-03
(PID.TID 0000.0001) %MON trAdv_CFL_v_max              =   2.2818913739202E-03
(PID.TID 0000.0001) %MON trAdv_CFL_w_max              =   1.7630422775244E-03
(PID.TID 0000.0001) %MON advcfl_uvel_max              =   2.0430458916644E-03
(PID.TID 0000.0001) %MON advcfl_vvel_max              =   2.2458991650957E-03
(PID.TID 0000.0001) %MON advcfl_wvel_max              =   3.1053496443707E-03
(PID.TID 0000.0001) %MON advcfl_W_hf_max              =   1.7630422775244E-03
(PID.TID 0000.0001) %MON pe_b_mean                    =   5.0205985280806E-04
(PID.TID 0000.0001) %MON ke_max                       =   2.2974014173090E-01
(PID.TID 0000.0001) %MON ke_mean                      =   1.6491618202597E-04
(PID.TID 0000.0001) %MON ke_vol                       =   1.3398125509419E+18
(PID.TID 0000.0001) %MON vort_r_min                   =  -4.2658655645055E-06
(PID.TID 0000.0001) %MON vort_r_max                   =   2.6655365586767E-06
(PID.TID 0000.0001) %MON vort_a_mean                  =  -2.0549865324846E-05
(PID.TID 0000.0001) %MON vort_a_sd                    =   7.5259717736972E-05
(PID.TID 0000.0001) %MON vort_p_mean                  =  -2.4783283700960E-05
(PID.TID 0000.0001) %MON vort_p_sd                    =   1.2811903919751E-04
(PID.TID 0000.0001) %MON surfExpan_theta_mean         =  -7.3048297802625E-06
(PID.TID 0000.0001) %MON surfExpan_salt_mean          =   1.2822647088611E-06
(PID.TID 0000.0001) // =======================================================
(PID.TID 0000.0001) // End MONITOR dynamic field statistics
(PID.TID 0000.0001) // =======================================================
 cg2d: Sum(rhs),rhsMax =  -4.90890993750448E+01  4.94907691624985E+01
(PID.TID 0000.0001)      cg2d_init_res =   2.46751899093229E-01
(PID.TID 0000.0001)      cg2d_iters(min,last) =      -1      10
(PID.TID 0000.0001)      cg2d_last_res =   8.49766004594908E-08
(PID.TID 0000.0001) // =======================================================
(PID.TID 0000.0001) // Begin MONITOR dynamic field statistics
(PID.TID 0000.0001) // =======================================================
(PID.TID 0000.0001) %MON time_tsnumber                =                 72058
(PID.TID 0000.0001) %MON time_secondsf                =   6.4852200000000E+07
(PID.TID 0000.0001) %MON dynstat_eta_max              =   2.2050939468637E+00
(PID.TID 0000.0001) %MON dynstat_eta_min              =  -1.5886566297678E+00
(PID.TID 0000.0001) %MON dynstat_eta_mean             =   2.8229971583469E-02
(PID.TID 0000.0001) %MON dynstat_eta_sd               =   6.1285225198508E-01
(PID.TID 0000.0001) %MON dynstat_eta_del2             =   1.7105976993023E-03
(PID.TID 0000.0001) %MON dynstat_uvel_max             =   6.5317462823157E-01
(PID.TID 0000.0001) %MON dynstat_uvel_min             =  -7.1171428607017E-01
(PID.TID 0000.0001) %MON dynstat_uvel_mean            =  -3.9906835927343E-04
(PID.TID 0000.0001) %MON dynstat_uvel_sd              =   1.2838404597490E-02
(PID.TID 0000.0001) %MON dynstat_uvel_del2            =   9.7190671879228E-05
(PID.TID 0000.0001) %MON dynstat_vvel_max             =   6.9630637651008E-01
(PID.TID 0000.0001) %MON dynstat_vvel_min             =  -6.3752437581951E-01
(PID.TID 0000.0001) %MON dynstat_vvel_mean            =   5.0259952423079E-04
(PID.TID 0000.0001) %MON dynstat_vvel_sd              =   1.3889723356032E-02
(PID.TID 0000.0001) %MON dynstat_vvel_del2            =   9.7504658855237E-05
(PID.TID 0000.0001) %MON dynstat_wvel_max             =   1.2497694996713E-04
(PID.TID 0000.0001) %MON dynstat_wvel_min             =  -1.7962007897266E-04
(PID.TID 0000.0001) %MON dynstat_wvel_mean            =  -3.4051617205036E-07
(PID.TID 0000.0001) %MON dynstat_wvel_sd              =   8.0335494929835E-06
(PID.TID 0000.0001) %MON dynstat_wvel_del2            =   7.6545759204874E-08
(PID.TID 0000.0001) %MON dynstat_theta_max            =   3.0938007484649E+01
(PID.TID 0000.0001) %MON dynstat_theta_min            =  -3.0061309700391E+00
(PID.TID 0000.0001) %MON dynstat_theta_mean           =   3.9092195715305E+00
(PID.TID 0000.0001) %MON dynstat_theta_sd             =   4.5716449891521E+00
(PID.TID 0000.0001) %MON dynstat_theta_del2           =   2.6441437482092E-03
(PID.TID 0000.0001) %MON dynstat_salt_max             =   4.1348670577197E+01
(PID.TID 0000.0001) %MON dynstat_salt_min             =   1.8518959351392E+01
(PID.TID 0000.0001) %MON dynstat_salt_mean            =   3.4771954740166E+01
(PID.TID 0000.0001) %MON dynstat_salt_sd              =   5.3192512807503E-01
(PID.TID 0000.0001) %MON dynstat_salt_del2            =   1.0572961257851E-03
(PID.TID 0000.0001) %MON dynstat_sst_max              =   3.0938007484649E+01
(PID.TID 0000.0001) %MON dynstat_sst_min              =  -1.8975224472646E+00
(PID.TID 0000.0001) %MON dynstat_sst_mean             =   1.8112369170601E+01
(PID.TID 0000.0001) %MON dynstat_sst_sd               =   9.8104704065756E+00
(PID.TID 0000.0001) %MON dynstat_sst_del2             =   1.5095990566175E-02
(PID.TID 0000.0001) %MON dynstat_sss_max              =   4.1348670577197E+01
(PID.TID 0000.0001) %MON dynstat_sss_min              =   1.8752026394101E+01
(PID.TID 0000.0001) %MON dynstat_sss_mean             =   3.4624551414872E+01
(PID.TID 0000.0001) %MON dynstat_sss_sd               =   1.4818131692628E+00
(PID.TID 0000.0001) %MON dynstat_sss_del2             =   1.1785787381186E-02
(PID.TID 0000.0001) %MON forcing_qnet_max             =   1.9969100341797E+03
(PID.TID 0000.0001) %MON forcing_qnet_min             =  -7.4091650390625E+03
(PID.TID 0000.0001) %MON forcing_qnet_mean            =  -3.2889349476289E+00
(PID.TID 0000.0001) %MON forcing_qnet_sd              =   2.4237928316600E+02
(PID.TID 0000.0001) %MON forcing_qnet_del2            =   6.6536940288915E+00
(PID.TID 0000.0001) %MON forcing_qsw_max              =   0.0000000000000E+00
(PID.TID 0000.0001) %MON forcing_qsw_min              =  -3.9646936528946E+02
(PID.TID 0000.0001) %MON forcing_qsw_mean             =  -5.6417382740057E+01
(PID.TID 0000.0001) %MON forcing_qsw_sd               =   9.5662920546976E+01
(PID.TID 0000.0001) %MON forcing_qsw_del2             =   8.8693063522418E-01
(PID.TID 0000.0001) %MON forcing_empmr_max            =   7.8951288014650E-03
(PID.TID 0000.0001) %MON forcing_empmr_min            =  -8.8359162211418E-02
(PID.TID 0000.0001) %MON forcing_empmr_mean           =  -2.5686259009883E-04
(PID.TID 0000.0001) %MON forcing_empmr_sd             =   3.8904966976794E-03
(PID.TID 0000.0001) %MON forcing_empmr_del2           =   1.5351546672450E-04
(PID.TID 0000.0001) %MON forcing_fu_max               =   3.8911712118201E-01
(PID.TID 0000.0001) %MON forcing_fu_min               =  -3.7106144873577E-01
(PID.TID 0000.0001) %MON forcing_fu_mean              =  -2.1711382152050E-03
(PID.TID 0000.0001) %MON forcing_fu_sd                =   6.1687812211320E-02
(PID.TID 0000.0001) %MON forcing_fu_del2              =   6.1623055728599E-04
(PID.TID 0000.0001) %MON forcing_fv_max               =   2.9659088489762E-01
(PID.TID 0000.0001) %MON forcing_fv_min               =  -2.8276291664599E-01
(PID.TID 0000.0001) %MON forcing_fv_mean              =  -1.5665757536289E-02
(PID.TID 0000.0001) %MON forcing_fv_sd                =   6.1134892832280E-02
(PID.TID 0000.0001) %MON forcing_fv_del2              =   5.3123001350570E-04
(PID.TID 0000.0001) %MON trAdv_CFL_u_max              =   2.1245222822957E-03
(PID.TID 0000.0001) %MON trAdv_CFL_v_max              =   2.3129621670451E-03
(PID.TID 0000.0001) %MON trAdv_CFL_w_max              =   1.7570187836020E-03
(PID.TID 0000.0001) %MON advcfl_uvel_max              =   2.1781849557300E-03
(PID.TID 0000.0001) %MON advcfl_vvel_max              =   2.2723016983997E-03
(PID.TID 0000.0001) %MON advcfl_wvel_max              =   3.0733621638754E-03
(PID.TID 0000.0001) %MON advcfl_W_hf_max              =   1.7570187836020E-03
(PID.TID 0000.0001) %MON pe_b_mean                    =   5.0141031278068E-04
(PID.TID 0000.0001) %MON ke_max                       =   2.3692450038765E-01
(PID.TID 0000.0001) %MON ke_mean                      =   1.6541769787942E-04
(PID.TID 0000.0001) %MON ke_vol                       =   1.3398126365977E+18
(PID.TID 0000.0001) %MON vort_r_min                   =  -4.3641409988138E-06
(PID.TID 0000.0001) %MON vort_r_max                   =   2.7295030115868E-06
(PID.TID 0000.0001) %MON vort_a_mean                  =  -2.0549865324846E-05
(PID.TID 0000.0001) %MON vort_a_sd                    =   7.5259723635021E-05
(PID.TID 0000.0001) %MON vort_p_mean                  =  -2.4783281586287E-05
(PID.TID 0000.0001) %MON vort_p_sd                    =   1.2811904720408E-04
(PID.TID 0000.0001) %MON surfExpan_theta_mean         =  -7.2107380368676E-06
(PID.TID 0000.0001) %MON surfExpan_salt_mean          =   1.2993379605749E-06
(PID.TID 0000.0001) // =======================================================
(PID.TID 0000.0001) // End MONITOR dynamic field statistics
(PID.TID 0000.0001) // =======================================================
 cg2d: Sum(rhs),rhsMax =  -5.31623424156892E+01  4.60573462893182E+01
(PID.TID 0000.0001)      cg2d_init_res =   2.59987980230742E-01
(PID.TID 0000.0001)      cg2d_iters(min,last) =      -1      10
(PID.TID 0000.0001)      cg2d_last_res =   8.12464715075502E-08
(PID.TID 0000.0001) // =======================================================
(PID.TID 0000.0001) // Begin MONITOR dynamic field statistics
(PID.TID 0000.0001) // =======================================================
(PID.TID 0000.0001) %MON time_tsnumber                =                 72059
(PID.TID 0000.0001) %MON time_secondsf                =   6.4853100000000E+07
(PID.TID 0000.0001) %MON dynstat_eta_max              =   2.0523949574906E+00
(PID.TID 0000.0001) %MON dynstat_eta_min              =  -1.5874632495233E+00
(PID.TID 0000.0001) %MON dynstat_eta_mean             =   2.8451436131415E-02
(PID.TID 0000.0001) %MON dynstat_eta_sd               =   6.1251339969957E-01
(PID.TID 0000.0001) %MON dynstat_eta_del2             =   1.6095411866395E-03
(PID.TID 0000.0001) %MON dynstat_uvel_max             =   6.8193113423466E-01
(PID.TID 0000.0001) %MON dynstat_uvel_min             =  -7.3092736291219E-01
(PID.TID 0000.0001) %MON dynstat_uvel_mean            =  -3.8055076076777E-04
(PID.TID 0000.0001) %MON dynstat_uvel_sd              =   1.2878493754394E-02
(PID.TID 0000.0001) %MON dynstat_uvel_del2            =   9.7400906791726E-05
(PID.TID 0000.0001) %MON dynstat_vvel_max             =   6.9269396238901E-01
(PID.TID 0000.0001) %MON dynstat_vvel_min             =  -6.4467639835109E-01
(PID.TID 0000.0001) %MON dynstat_vvel_mean            =   5.1884097219528E-04
(PID.TID 0000.0001) %MON dynstat_vvel_sd              =   1.3884070981322E-02
(PID.TID 0000.0001) %MON dynstat_vvel_del2            =   9.8968501830414E-05
(PID.TID 0000.0001) %MON dynstat_wvel_max             =   1.2035077562838E-04
(PID.TID 0000.0001) %MON dynstat_wvel_min             =  -1.7964887812669E-04
(PID.TID 0000.0001) %MON dynstat_wvel_mean            =  -3.3621990761295E-07
(PID.TID 0000.0001) %MON dynstat_wvel_sd              =   8.0112253768547E-06
(PID.TID 0000.0001) %MON dynstat_wvel_del2            =   7.5923502252839E-08
(PID.TID 0000.0001) %MON dynstat_theta_max            =   3.0937814582019E+01
(PID.TID 0000.0001) %MON dynstat_theta_min            =  -3.0063476981562E+00
(PID.TID 0000.0001) %MON dynstat_theta_mean           =   3.9092212773281E+00
(PID.TID 0000.0001) %MON dynstat_theta_sd             =   4.5716501184629E+00
(PID.TID 0000.0001) %MON dynstat_theta_del2           =   2.6439789285909E-03
(PID.TID 0000.0001) %MON dynstat_salt_max             =   4.1348470187565E+01
(PID.TID 0000.0001) %MON dynstat_salt_min             =   1.8518969553383E+01
(PID.TID 0000.0001) %MON dynstat_salt_mean            =   3.4771952431020E+01
(PID.TID 0000.0001) %MON dynstat_salt_sd              =   5.3193992959944E-01
(PID.TID 0000.0001) %MON dynstat_salt_del2            =   1.0609735515706E-03
(PID.TID 0000.0001) %MON dynstat_sst_max              =   3.0937814582019E+01
(PID.TID 0000.0001) %MON dynstat_sst_min              =  -1.8976589646086E+00
(PID.TID 0000.0001) %MON dynstat_sst_mean             =   1.8112392757852E+01
(PID.TID 0000.0001) %MON dynstat_sst_sd               =   9.8105287116686E+00
(PID.TID 0000.0001) %MON dynstat_sst_del2             =   1.5092619898614E-02
(PID.TID 0000.0001) %MON dynstat_sss_max              =   4.1348470187565E+01
(PID.TID 0000.0001) %MON dynstat_sss_min              =   1.8752043003299E+01
(PID.TID 0000.0001) %MON dynstat_sss_mean             =   3.4624383027012E+01
(PID.TID 0000.0001) %MON dynstat_sss_sd               =   1.4821892993002E+00
(PID.TID 0000.0001) %MON dynstat_sss_del2             =   1.1837850397759E-02
(PID.TID 0000.0001) %MON forcing_qnet_max             =   1.9733500976562E+03
(PID.TID 0000.0001) %MON forcing_qnet_min             =  -6.8809077148438E+03
(PID.TID 0000.0001) %MON forcing_qnet_mean            =  -4.2070894383193E+00
(PID.TID 0000.0001) %MON forcing_qnet_sd              =   2.4075385697281E+02
(PID.TID 0000.0001) %MON forcing_qnet_del2            =   6.3413027131098E+00
(PID.TID 0000.0001) %MON forcing_qsw_max              =   0.0000000000000E+00
(PID.TID 0000.0001) %MON forcing_qsw_min              =  -3.9573828081092E+02
(PID.TID 0000.0001) %MON forcing_qsw_mean             =  -5.6753640301833E+01
(PID.TID 0000.0001) %MON forcing_qsw_sd               =   9.6845920854880E+01
(PID.TID 0000.0001) %MON forcing_qsw_del2             =   8.9286061431222E-01
(PID.TID 0000.0001) %MON forcing_empmr_max            =   6.0829250141978E-03
(PID.TID 0000.0001) %MON forcing_empmr_min            =  -8.7448745965958E-02
(PID.TID 0000.0001) %MON forcing_empmr_mean           =  -2.5468423013716E-04
(PID.TID 0000.0001) %MON forcing_empmr_sd             =   3.8496591374555E-03
(PID.TID 0000.0001) %MON forcing_empmr_del2           =   1.5191734686629E-04
(PID.TID 0000.0001) %MON forcing_fu_max               =   3.8688250746271E-01
(PID.TID 0000.0001) %MON forcing_fu_min               =  -3.7523691353155E-01
(PID.TID 0000.0001) %MON forcing_fu_mean              =  -2.1566720880836E-03
(PID.TID 0000.0001) %MON forcing_fu_sd                =   6.1681281127536E-02
(PID.TID 0000.0001) %MON forcing_fu_del2              =   6.1557947582634E-04
(PID.TID 0000.0001) %MON forcing_fv_max               =   2.9422376595065E-01
(PID.TID 0000.0001) %MON forcing_fv_min               =  -2.8014395941978E-01
(PID.TID 0000.0001) %MON forcing_fv_mean              =  -1.5666398972787E-02
(PID.TID 0000.0001) %MON forcing_fv_sd                =   6.1047324384818E-02
(PID.TID 0000.0001) %MON forcing_fv_del2              =   5.3106393999614E-04
(PID.TID 0000.0001) %MON trAdv_CFL_u_max              =   2.2224293363430E-03
(PID.TID 0000.0001) %MON trAdv_CFL_v_max              =   2.3053460938547E-03
(PID.TID 0000.0001) %MON trAdv_CFL_w_max              =   1.7812169616436E-03
(PID.TID 0000.0001) %MON advcfl_uvel_max              =   2.2740811924299E-03
(PID.TID 0000.0001) %MON advcfl_vvel_max              =   2.2605130734215E-03
(PID.TID 0000.0001) %MON advcfl_wvel_max              =   3.0416955118594E-03
(PID.TID 0000.0001) %MON advcfl_W_hf_max              =   1.7812169616436E-03
(PID.TID 0000.0001) %MON pe_b_mean                    =   5.0087386224638E-04
(PID.TID 0000.0001) %MON ke_max                       =   2.4355789114195E-01
(PID.TID 0000.0001) %MON ke_mean                      =   1.6581957993273E-04
(PID.TID 0000.0001) %MON ke_vol                       =   1.3398127178750E+18
(PID.TID 0000.0001) %MON vort_r_min                   =  -4.4495236451032E-06
(PID.TID 0000.0001) %MON vort_r_max                   =   2.8496504309941E-06
(PID.TID 0000.0001) %MON vort_a_mean                  =  -2.0549865324846E-05
(PID.TID 0000.0001) %MON vort_a_sd                    =   7.5259728718011E-05
(PID.TID 0000.0001) %MON vort_p_mean                  =  -2.4783279532857E-05
(PID.TID 0000.0001) %MON vort_p_sd                    =   1.2811906341445E-04
(PID.TID 0000.0001) %MON surfExpan_theta_mean         =  -7.1823088137453E-06
(PID.TID 0000.0001) %MON surfExpan_salt_mean          =   1.3065308622358E-06
(PID.TID 0000.0001) // =======================================================
(PID.TID 0000.0001) // End MONITOR dynamic field statistics
(PID.TID 0000.0001) // =======================================================
 Computing Diagnostic #     81  oceTAUX      Counter:       1   Parms: UU      U1      
           Vector  Mate for  oceTAUX      Diagnostic #     82  oceTAUY  exists 
 Computing Diagnostic #     82  oceTAUY      Counter:       1   Parms: VV      U1      
           Vector  Mate for  oceTAUY      Diagnostic #     81  oceTAUX  exists 
 Computing Diagnostic #     85  oceFWflx     Counter:       1   Parms: SM      U1      
 Computing Diagnostic #     86  oceSflux     Counter:       1   Parms: SM      U1      
 Computing Diagnostic #     87  oceQnet      Counter:       1   Parms: SM      U1      
 Computing Diagnostic #     88  oceQsw       Counter:       1   Parms: SM      U1      
 Computing Diagnostic #     27  SALT         Counter:       1   Parms: SMR     MR      
 Computing Diagnostic #     26  THETA        Counter:       1   Parms: SMR     MR      
 Computing Diagnostic #     45  UVELMASS     Counter:       1   Parms: UUr     MR      
           Vector  Mate for  UVELMASS     Diagnostic #     46  VVELMASS exists 
 Computing Diagnostic #     46  VVELMASS     Counter:       1   Parms: VVr     MR      
           Vector  Mate for  VVELMASS     Diagnostic #     45  UVELMASS exists 
 cg2d: Sum(rhs),rhsMax =  -5.81215354415802E+01  4.24524879908989E+01
(PID.TID 0000.0001)      cg2d_init_res =   2.73365140558402E-01
(PID.TID 0000.0001)      cg2d_iters(min,last) =      -1      10
(PID.TID 0000.0001)      cg2d_last_res =   7.85590630767555E-08
(PID.TID 0000.0001) // =======================================================
(PID.TID 0000.0001) // Begin MONITOR dynamic field statistics
(PID.TID 0000.0001) // =======================================================
(PID.TID 0000.0001) %MON time_tsnumber                =                 72060
(PID.TID 0000.0001) %MON time_secondsf                =   6.4854000000000E+07
(PID.TID 0000.0001) %MON dynstat_eta_max              =   1.8920661222381E+00
(PID.TID 0000.0001) %MON dynstat_eta_min              =  -1.5861551692873E+00
(PID.TID 0000.0001) %MON dynstat_eta_mean             =   2.8670904880331E-02
(PID.TID 0000.0001) %MON dynstat_eta_sd               =   6.1223879041469E-01
(PID.TID 0000.0001) %MON dynstat_eta_del2             =   1.5242112576184E-03
(PID.TID 0000.0001) %MON dynstat_uvel_max             =   6.9885407751889E-01
(PID.TID 0000.0001) %MON dynstat_uvel_min             =  -7.4896457934171E-01
(PID.TID 0000.0001) %MON dynstat_uvel_mean            =  -3.6301174644094E-04
(PID.TID 0000.0001) %MON dynstat_uvel_sd              =   1.2918026070369E-02
(PID.TID 0000.0001) %MON dynstat_uvel_del2            =   9.7419620444644E-05
(PID.TID 0000.0001) %MON dynstat_vvel_max             =   6.7798365801759E-01
(PID.TID 0000.0001) %MON dynstat_vvel_min             =  -6.4861473558319E-01
(PID.TID 0000.0001) %MON dynstat_vvel_mean            =   5.3127044181689E-04
(PID.TID 0000.0001) %MON dynstat_vvel_sd              =   1.3870994086200E-02
(PID.TID 0000.0001) %MON dynstat_vvel_del2            =   9.9979731940451E-05
(PID.TID 0000.0001) %MON dynstat_wvel_max             =   1.1528112898262E-04
(PID.TID 0000.0001) %MON dynstat_wvel_min             =  -1.7969471266426E-04
(PID.TID 0000.0001) %MON dynstat_wvel_mean            =  -3.2602222119981E-07
(PID.TID 0000.0001) %MON dynstat_wvel_sd              =   7.9788074575046E-06
(PID.TID 0000.0001) %MON dynstat_wvel_del2            =   7.5201275996475E-08
(PID.TID 0000.0001) %MON dynstat_theta_max            =   3.0937616608603E+01
(PID.TID 0000.0001) %MON dynstat_theta_min            =  -3.0065535357977E+00
(PID.TID 0000.0001) %MON dynstat_theta_mean           =   3.9092229252073E+00
(PID.TID 0000.0001) %MON dynstat_theta_sd             =   4.5716552502619E+00
(PID.TID 0000.0001) %MON dynstat_theta_del2           =   2.6438696270620E-03
(PID.TID 0000.0001) %MON dynstat_salt_max             =   4.1348287829609E+01
(PID.TID 0000.0001) %MON dynstat_salt_min             =   1.8518979748210E+01
(PID.TID 0000.0001) %MON dynstat_salt_mean            =   3.4771950148130E+01
(PID.TID 0000.0001) %MON dynstat_salt_sd              =   5.3195456657114E-01
(PID.TID 0000.0001) %MON dynstat_salt_del2            =   1.0645852296396E-03
(PID.TID 0000.0001) %MON dynstat_sst_max              =   3.0937616608603E+01
(PID.TID 0000.0001) %MON dynstat_sst_min              =  -1.8978016597126E+00
(PID.TID 0000.0001) %MON dynstat_sst_mean             =   1.8112414183719E+01
(PID.TID 0000.0001) %MON dynstat_sst_sd               =   9.8105927748223E+00
(PID.TID 0000.0001) %MON dynstat_sst_del2             =   1.5090931390682E-02
(PID.TID 0000.0001) %MON dynstat_sss_max              =   4.1348287829609E+01
(PID.TID 0000.0001) %MON dynstat_sss_min              =   1.8752059119384E+01
(PID.TID 0000.0001) %MON dynstat_sss_mean             =   3.4624216464456E+01
(PID.TID 0000.0001) %MON dynstat_sss_sd               =   1.4825619715666E+00
(PID.TID 0000.0001) %MON dynstat_sss_del2             =   1.1888961561197E-02
(PID.TID 0000.0001) %MON forcing_qnet_max             =   1.9500770263672E+03
(PID.TID 0000.0001) %MON forcing_qnet_min             =  -1.1760665283203E+03
(PID.TID 0000.0001) %MON forcing_qnet_mean            =  -3.7237449249553E+00
(PID.TID 0000.0001) %MON forcing_qnet_sd              =   2.2134321635376E+02
(PID.TID 0000.0001) %MON forcing_qnet_del2            =   3.8289159934218E+00
(PID.TID 0000.0001) %MON forcing_qsw_max              =   0.0000000000000E+00
(PID.TID 0000.0001) %MON forcing_qsw_min              =  -3.9324973015078E+02
(PID.TID 0000.0001) %MON forcing_qsw_mean             =  -5.6944630194380E+01
(PID.TID 0000.0001) %MON forcing_qsw_sd               =   9.7962007181836E+01
(PID.TID 0000.0001) %MON forcing_qsw_del2             =   8.9818246934630E-01
(PID.TID 0000.0001) %MON forcing_empmr_max            =   6.0202418826520E-03
(PID.TID 0000.0001) %MON forcing_empmr_min            =  -8.6548410356045E-02
(PID.TID 0000.0001) %MON forcing_empmr_mean           =  -2.5238906125374E-04
(PID.TID 0000.0001) %MON forcing_empmr_sd             =   3.8101765762682E-03
(PID.TID 0000.0001) %MON forcing_empmr_del2           =   1.5034269435138E-04
(PID.TID 0000.0001) %MON forcing_fu_max               =   3.8217323063146E-01
(PID.TID 0000.0001) %MON forcing_fu_min               =  -3.7650821535092E-01
(PID.TID 0000.0001) %MON forcing_fu_mean              =  -2.1594661024924E-03
(PID.TID 0000.0001) %MON forcing_fu_sd                =   6.1596322288563E-02
(PID.TID 0000.0001) %MON forcing_fu_del2              =   6.1433998504534E-04
(PID.TID 0000.0001) %MON forcing_fv_max               =   2.9454424281283E-01
(PID.TID 0000.0001) %MON forcing_fv_min               =  -2.7741529514750E-01
(PID.TID 0000.0001) %MON forcing_fv_mean              =  -1.5664617677663E-02
(PID.TID 0000.0001) %MON forcing_fv_sd                =   6.0953659312780E-02
(PID.TID 0000.0001) %MON forcing_fv_del2              =   5.3160455724414E-04
(PID.TID 0000.0001) %MON trAdv_CFL_u_max              =   2.2821831444184E-03
(PID.TID 0000.0001) %MON trAdv_CFL_v_max              =   2.2607582525061E-03
(PID.TID 0000.0001) %MON trAdv_CFL_w_max              =   1.8007289940033E-03
(PID.TID 0000.0001) %MON advcfl_uvel_max              =   2.3305152590258E-03
(PID.TID 0000.0001) %MON advcfl_vvel_max              =   2.2125079843762E-03
(PID.TID 0000.0001) %MON advcfl_wvel_max              =   3.0103794906450E-03
(PID.TID 0000.0001) %MON advcfl_W_hf_max              =   1.8007289940033E-03
(PID.TID 0000.0001) %MON pe_b_mean                    =   5.0044248500037E-04
(PID.TID 0000.0001) %MON ke_max                       =   2.4949063458661E-01
(PID.TID 0000.0001) %MON ke_mean                      =   1.6611976661252E-04
(PID.TID 0000.0001) %MON ke_vol                       =   1.3398127984630E+18
(PID.TID 0000.0001) %MON vort_r_min                   =  -4.5207305883972E-06
(PID.TID 0000.0001) %MON vort_r_max                   =   2.9308143131676E-06
(PID.TID 0000.0001) %MON vort_a_mean                  =  -2.0549865324846E-05
(PID.TID 0000.0001) %MON vort_a_sd                    =   7.5259732955083E-05
(PID.TID 0000.0001) %MON vort_p_mean                  =  -2.4783277505515E-05
(PID.TID 0000.0001) %MON vort_p_sd                    =   1.2811908577396E-04
(PID.TID 0000.0001) %MON surfExpan_theta_mean         =  -7.1127528865971E-06
(PID.TID 0000.0001) %MON surfExpan_salt_mean          =   1.3122142438193E-06
(PID.TID 0000.0001) // =======================================================
(PID.TID 0000.0001) // End MONITOR dynamic field statistics
(PID.TID 0000.0001) // =======================================================
 cg2d: Sum(rhs),rhsMax =  -6.42207738168119E+01  3.87105648449232E+01
(PID.TID 0000.0001)      cg2d_init_res =   2.91509136199757E-01
(PID.TID 0000.0001)      cg2d_iters(min,last) =      -1      10
(PID.TID 0000.0001)      cg2d_last_res =   7.86180442720337E-08
(PID.TID 0000.0001) // =======================================================
(PID.TID 0000.0001) // Begin MONITOR dynamic field statistics
(PID.TID 0000.0001) // =======================================================
(PID.TID 0000.0001) %MON time_tsnumber                =                 72061
(PID.TID 0000.0001) %MON time_secondsf                =   6.4854900000000E+07
(PID.TID 0000.0001) %MON dynstat_eta_max              =   1.7256333550624E+00
(PID.TID 0000.0001) %MON dynstat_eta_min              =  -1.5846930956282E+00
(PID.TID 0000.0001) %MON dynstat_eta_mean             =   2.8887251053937E-02
(PID.TID 0000.0001) %MON dynstat_eta_sd               =   6.1202052414024E-01
(PID.TID 0000.0001) %MON dynstat_eta_del2             =   1.4555202465589E-03
(PID.TID 0000.0001) %MON dynstat_uvel_max             =   7.0411426054466E-01
(PID.TID 0000.0001) %MON dynstat_uvel_min             =  -7.6552782055588E-01
(PID.TID 0000.0001) %MON dynstat_uvel_mean            =  -3.4688637848528E-04
(PID.TID 0000.0001) %MON dynstat_uvel_sd              =   1.2955963290405E-02
(PID.TID 0000.0001) %MON dynstat_uvel_del2            =   9.7260485672355E-05
(PID.TID 0000.0001) %MON dynstat_vvel_max             =   6.5293777180484E-01
(PID.TID 0000.0001) %MON dynstat_vvel_min             =  -6.4926181224707E-01
(PID.TID 0000.0001) %MON dynstat_vvel_mean            =   5.3987493097793E-04
(PID.TID 0000.0001) %MON dynstat_vvel_sd              =   1.3851850257419E-02
(PID.TID 0000.0001) %MON dynstat_vvel_del2            =   1.0049252065831E-04
(PID.TID 0000.0001) %MON dynstat_wvel_max             =   1.1414086457178E-04
(PID.TID 0000.0001) %MON dynstat_wvel_min             =  -1.7976776245587E-04
(PID.TID 0000.0001) %MON dynstat_wvel_mean            =  -3.1080938139765E-07
(PID.TID 0000.0001) %MON dynstat_wvel_sd              =   7.9433487275092E-06
(PID.TID 0000.0001) %MON dynstat_wvel_del2            =   7.4438056452468E-08
(PID.TID 0000.0001) %MON dynstat_theta_max            =   3.0937414684177E+01
(PID.TID 0000.0001) %MON dynstat_theta_min            =  -3.0067484454362E+00
(PID.TID 0000.0001) %MON dynstat_theta_mean           =   3.9092247601129E+00
(PID.TID 0000.0001) %MON dynstat_theta_sd             =   4.5716609525578E+00
(PID.TID 0000.0001) %MON dynstat_theta_del2           =   2.6437718953919E-03
(PID.TID 0000.0001) %MON dynstat_salt_max             =   4.1348123175948E+01
(PID.TID 0000.0001) %MON dynstat_salt_min             =   1.8518989934652E+01
(PID.TID 0000.0001) %MON dynstat_salt_mean            =   3.4771947931534E+01
(PID.TID 0000.0001) %MON dynstat_salt_sd              =   5.3196904390941E-01
(PID.TID 0000.0001) %MON dynstat_salt_del2            =   1.0681362810892E-03
(PID.TID 0000.0001) %MON dynstat_sst_max              =   3.0937414684177E+01
(PID.TID 0000.0001) %MON dynstat_sst_min              =  -1.8979483089717E+00
(PID.TID 0000.0001) %MON dynstat_sst_mean             =   1.8112450213548E+01
(PID.TID 0000.0001) %MON dynstat_sst_sd               =   9.8106556818536E+00
(PID.TID 0000.0001) %MON dynstat_sst_del2             =   1.5089591083324E-02
(PID.TID 0000.0001) %MON dynstat_sss_max              =   4.1348123175948E+01
(PID.TID 0000.0001) %MON dynstat_sss_min              =   1.8752074836671E+01
(PID.TID 0000.0001) %MON dynstat_sss_mean             =   3.4624054205482E+01
(PID.TID 0000.0001) %MON dynstat_sss_sd               =   1.4829313638754E+00
(PID.TID 0000.0001) %MON dynstat_sss_del2             =   1.1939178449964E-02
(PID.TID 0000.0001) %MON forcing_qnet_max             =   1.9270870361328E+03
(PID.TID 0000.0001) %MON forcing_qnet_min             =  -6.5734682617188E+03
(PID.TID 0000.0001) %MON forcing_qnet_mean            =  -7.4605827580124E+00
(PID.TID 0000.0001) %MON forcing_qnet_sd              =   2.4934708321656E+02
(PID.TID 0000.0001) %MON forcing_qnet_del2            =   6.4952081382889E+00
(PID.TID 0000.0001) %MON forcing_qsw_max              =   0.0000000000000E+00
(PID.TID 0000.0001) %MON forcing_qsw_min              =  -4.0016817060978E+02
(PID.TID 0000.0001) %MON forcing_qsw_mean             =  -5.7890713917432E+01
(PID.TID 0000.0001) %MON forcing_qsw_sd               =   1.0153198243157E+02
(PID.TID 0000.0001) %MON forcing_qsw_del2             =   9.0698782124859E-01
(PID.TID 0000.0001) %MON forcing_empmr_max            =   5.9582474641502E-03
(PID.TID 0000.0001) %MON forcing_empmr_min            =  -8.5656464099884E-02
(PID.TID 0000.0001) %MON forcing_empmr_mean           =  -2.4879809964701E-04
(PID.TID 0000.0001) %MON forcing_empmr_sd             =   3.7713637855614E-03
(PID.TID 0000.0001) %MON forcing_empmr_del2           =   1.4880426510264E-04
(PID.TID 0000.0001) %MON forcing_fu_max               =   3.7794270209595E-01
(PID.TID 0000.0001) %MON forcing_fu_min               =  -3.7632444892977E-01
(PID.TID 0000.0001) %MON forcing_fu_mean              =  -2.1574545634969E-03
(PID.TID 0000.0001) %MON forcing_fu_sd                =   6.1456299424317E-02
(PID.TID 0000.0001) %MON forcing_fu_del2              =   6.1276297025317E-04
(PID.TID 0000.0001) %MON forcing_fv_max               =   2.9412113527353E-01
(PID.TID 0000.0001) %MON forcing_fv_min               =  -2.7431561337175E-01
(PID.TID 0000.0001) %MON forcing_fv_mean              =  -1.5666886990627E-02
(PID.TID 0000.0001) %MON forcing_fv_sd                =   6.0850495456071E-02
(PID.TID 0000.0001) %MON forcing_fv_del2              =   5.3175626260979E-04
(PID.TID 0000.0001) %MON trAdv_CFL_u_max              =   2.3040307075504E-03
(PID.TID 0000.0001) %MON trAdv_CFL_v_max              =   2.1814529890078E-03
(PID.TID 0000.0001) %MON trAdv_CFL_w_max              =   1.8153735733144E-03
(PID.TID 0000.0001) %MON advcfl_uvel_max              =   2.3480567418635E-03
(PID.TID 0000.0001) %MON advcfl_vvel_max              =   2.1307741216700E-03
(PID.TID 0000.0001) %MON advcfl_wvel_max              =   2.9793552730394E-03
(PID.TID 0000.0001) %MON advcfl_W_hf_max              =   1.8153735733144E-03
(PID.TID 0000.0001) %MON pe_b_mean                    =   5.0010306770680E-04
(PID.TID 0000.0001) %MON ke_max                       =   2.5454379248298E-01
(PID.TID 0000.0001) %MON ke_mean                      =   1.6632351179297E-04
(PID.TID 0000.0001) %MON ke_vol                       =   1.3398128783248E+18
(PID.TID 0000.0001) %MON vort_r_min                   =  -4.5765446889136E-06
(PID.TID 0000.0001) %MON vort_r_max                   =   2.9734590611304E-06
(PID.TID 0000.0001) %MON vort_a_mean                  =  -2.0549865324846E-05
(PID.TID 0000.0001) %MON vort_a_sd                    =   7.5259736331758E-05
(PID.TID 0000.0001) %MON vort_p_mean                  =  -2.4783275523266E-05
(PID.TID 0000.0001) %MON vort_p_sd                    =   1.2811911296767E-04
(PID.TID 0000.0001) %MON surfExpan_theta_mean         =  -6.9925108418950E-06
(PID.TID 0000.0001) %MON surfExpan_salt_mean          =   1.3158607231582E-06
(PID.TID 0000.0001) // =======================================================
(PID.TID 0000.0001) // End MONITOR dynamic field statistics
(PID.TID 0000.0001) // =======================================================
 cg2d: Sum(rhs),rhsMax =  -6.83064846235040E+01  3.66671750822164E+01
(PID.TID 0000.0001)      cg2d_init_res =   3.00947865856056E-01
(PID.TID 0000.0001)      cg2d_iters(min,last) =      -1      10
(PID.TID 0000.0001)      cg2d_last_res =   8.10324225777269E-08
(PID.TID 0000.0001) // =======================================================
(PID.TID 0000.0001) // Begin MONITOR dynamic field statistics
(PID.TID 0000.0001) // =======================================================
(PID.TID 0000.0001) %MON time_tsnumber                =                 72062
(PID.TID 0000.0001) %MON time_secondsf                =   6.4855800000000E+07
(PID.TID 0000.0001) %MON dynstat_eta_max              =   1.5546719310986E+00
(PID.TID 0000.0001) %MON dynstat_eta_min              =  -1.5830587769301E+00
(PID.TID 0000.0001) %MON dynstat_eta_mean             =   2.9103187718238E-02
(PID.TID 0000.0001) %MON dynstat_eta_sd               =   6.1185454057591E-01
(PID.TID 0000.0001) %MON dynstat_eta_del2             =   1.4058920841465E-03
(PID.TID 0000.0001) %MON dynstat_uvel_max             =   6.9810425072713E-01
(PID.TID 0000.0001) %MON dynstat_uvel_min             =  -7.8032127829607E-01
(PID.TID 0000.0001) %MON dynstat_uvel_mean            =  -3.3250374641352E-04
(PID.TID 0000.0001) %MON dynstat_uvel_sd              =   1.2991270656143E-02
(PID.TID 0000.0001) %MON dynstat_uvel_del2            =   9.6933803946898E-05
(PID.TID 0000.0001) %MON dynstat_vvel_max             =   6.1845073015639E-01
(PID.TID 0000.0001) %MON dynstat_vvel_min             =  -6.4656566440363E-01
(PID.TID 0000.0001) %MON dynstat_vvel_mean            =   5.4472767618343E-04
(PID.TID 0000.0001) %MON dynstat_vvel_sd              =   1.3828122806302E-02
(PID.TID 0000.0001) %MON dynstat_vvel_del2            =   1.0048787113295E-04
(PID.TID 0000.0001) %MON dynstat_wvel_max             =   1.1284282602303E-04
(PID.TID 0000.0001) %MON dynstat_wvel_min             =  -1.7984903772244E-04
(PID.TID 0000.0001) %MON dynstat_wvel_mean            =  -2.9430664123999E-07
(PID.TID 0000.0001) %MON dynstat_wvel_sd              =   7.9087619916653E-06
(PID.TID 0000.0001) %MON dynstat_wvel_del2            =   7.3654260387015E-08
(PID.TID 0000.0001) %MON dynstat_theta_max            =   3.0937208724323E+01
(PID.TID 0000.0001) %MON dynstat_theta_min            =  -3.0069338874461E+00
(PID.TID 0000.0001) %MON dynstat_theta_mean           =   3.9092266082726E+00
(PID.TID 0000.0001) %MON dynstat_theta_sd             =   4.5716666462427E+00
(PID.TID 0000.0001) %MON dynstat_theta_del2           =   2.6436629053753E-03
(PID.TID 0000.0001) %MON dynstat_salt_max             =   4.1347975461208E+01
(PID.TID 0000.0001) %MON dynstat_salt_min             =   1.8519000111592E+01
(PID.TID 0000.0001) %MON dynstat_salt_mean            =   3.4771945720364E+01
(PID.TID 0000.0001) %MON dynstat_salt_sd              =   5.3198327283112E-01
(PID.TID 0000.0001) %MON dynstat_salt_del2            =   1.0716147872156E-03
(PID.TID 0000.0001) %MON dynstat_sst_max              =   3.0937208724323E+01
(PID.TID 0000.0001) %MON dynstat_sst_min              =  -1.8980966115610E+00
(PID.TID 0000.0001) %MON dynstat_sst_mean             =   1.8112486010800E+01
(PID.TID 0000.0001) %MON dynstat_sst_sd               =   9.8107174279724E+00
(PID.TID 0000.0001) %MON dynstat_sst_del2             =   1.5087935049072E-02
(PID.TID 0000.0001) %MON dynstat_sss_max              =   4.1347975461208E+01
(PID.TID 0000.0001) %MON dynstat_sss_min              =   1.8752090225633E+01
(PID.TID 0000.0001) %MON dynstat_sss_mean             =   3.4623891671552E+01
(PID.TID 0000.0001) %MON dynstat_sss_sd               =   1.4832945753908E+00
(PID.TID 0000.0001) %MON dynstat_sss_del2             =   1.1988331299961E-02
(PID.TID 0000.0001) %MON forcing_qnet_max             =   1.9043768310547E+03
(PID.TID 0000.0001) %MON forcing_qnet_min             =  -1.3835122070312E+03
(PID.TID 0000.0001) %MON forcing_qnet_mean            =  -7.7122452299481E+00
(PID.TID 0000.0001) %MON forcing_qnet_sd              =   2.2940569093133E+02
(PID.TID 0000.0001) %MON forcing_qnet_del2            =   3.9213423013722E+00
(PID.TID 0000.0001) %MON forcing_qsw_max              =   0.0000000000000E+00
(PID.TID 0000.0001) %MON forcing_qsw_min              =  -4.0862328749698E+02
(PID.TID 0000.0001) %MON forcing_qsw_mean             =  -5.8389981221270E+01
(PID.TID 0000.0001) %MON forcing_qsw_sd               =   1.0297692382729E+02
(PID.TID 0000.0001) %MON forcing_qsw_del2             =   9.1832953077766E-01
(PID.TID 0000.0001) %MON forcing_empmr_max            =   5.8968435041606E-03
(PID.TID 0000.0001) %MON forcing_empmr_min            =  -8.4774591028690E-02
(PID.TID 0000.0001) %MON forcing_empmr_mean           =  -2.4832716394645E-04
(PID.TID 0000.0001) %MON forcing_empmr_sd             =   3.7325324907279E-03
(PID.TID 0000.0001) %MON forcing_empmr_del2           =   1.4727081894241E-04
(PID.TID 0000.0001) %MON forcing_fu_max               =   3.7685284434609E-01
(PID.TID 0000.0001) %MON forcing_fu_min               =  -3.7548194433342E-01
(PID.TID 0000.0001) %MON forcing_fu_mean              =  -2.1424054454930E-03
(PID.TID 0000.0001) %MON forcing_fu_sd                =   6.1414688206071E-02
(PID.TID 0000.0001) %MON forcing_fu_del2              =   6.1147407273595E-04
(PID.TID 0000.0001) %MON forcing_fv_max               =   2.9350662328966E-01
(PID.TID 0000.0001) %MON forcing_fv_min               =  -2.7115420493836E-01
(PID.TID 0000.0001) %MON forcing_fv_mean              =  -1.5689725755348E-02
(PID.TID 0000.0001) %MON forcing_fv_sd                =   6.0733806480773E-02
(PID.TID 0000.0001) %MON forcing_fv_del2              =   5.3149481285094E-04
(PID.TID 0000.0001) %MON trAdv_CFL_u_max              =   2.2889422850149E-03
(PID.TID 0000.0001) %MON trAdv_CFL_v_max              =   2.0934258158585E-03
(PID.TID 0000.0001) %MON trAdv_CFL_w_max              =   1.8250149551228E-03
(PID.TID 0000.0001) %MON advcfl_uvel_max              =   2.3280147616602E-03
(PID.TID 0000.0001) %MON advcfl_vvel_max              =   2.0182303249244E-03
(PID.TID 0000.0001) %MON advcfl_wvel_max              =   2.9486814270849E-03
(PID.TID 0000.0001) %MON advcfl_W_hf_max              =   1.8250149551228E-03
(PID.TID 0000.0001) %MON pe_b_mean                    =   4.9984909807082E-04
(PID.TID 0000.0001) %MON ke_max                       =   2.5851888541695E-01
(PID.TID 0000.0001) %MON ke_mean                      =   1.6643763731422E-04
(PID.TID 0000.0001) %MON ke_vol                       =   1.3398129570503E+18
(PID.TID 0000.0001) %MON vort_r_min                   =  -4.6158388639635E-06
(PID.TID 0000.0001) %MON vort_r_max                   =   2.9785232139245E-06
(PID.TID 0000.0001) %MON vort_a_mean                  =  -2.0549865324846E-05
(PID.TID 0000.0001) %MON vort_a_sd                    =   7.5259738847465E-05
(PID.TID 0000.0001) %MON vort_p_mean                  =  -2.4783273607376E-05
(PID.TID 0000.0001) %MON vort_p_sd                    =   1.2811914329238E-04
(PID.TID 0000.0001) %MON surfExpan_theta_mean         =  -6.9208164618903E-06
(PID.TID 0000.0001) %MON surfExpan_salt_mean          =   1.3173953089657E-06
(PID.TID 0000.0001) // =======================================================
(PID.TID 0000.0001) // End MONITOR dynamic field statistics
(PID.TID 0000.0001) // =======================================================
 cg2d: Sum(rhs),rhsMax =  -6.88901165558233E+01  3.66238761860964E+01
(PID.TID 0000.0001)      cg2d_init_res =   2.95084657990847E-01
(PID.TID 0000.0001)      cg2d_iters(min,last) =      -1      10
(PID.TID 0000.0001)      cg2d_last_res =   8.31766721786607E-08
(PID.TID 0000.0001) // =======================================================
(PID.TID 0000.0001) // Begin MONITOR dynamic field statistics
(PID.TID 0000.0001) // =======================================================
(PID.TID 0000.0001) %MON time_tsnumber                =                 72063
(PID.TID 0000.0001) %MON time_secondsf                =   6.4856700000000E+07
(PID.TID 0000.0001) %MON dynstat_eta_max              =   1.3807874812041E+00
(PID.TID 0000.0001) %MON dynstat_eta_min              =  -1.5812481242367E+00
(PID.TID 0000.0001) %MON dynstat_eta_mean             =   2.9317193933661E-02
(PID.TID 0000.0001) %MON dynstat_eta_sd               =   6.1173594671125E-01
(PID.TID 0000.0001) %MON dynstat_eta_del2             =   1.3779935135088E-03
(PID.TID 0000.0001) %MON dynstat_uvel_max             =   6.8141838547338E-01
(PID.TID 0000.0001) %MON dynstat_uvel_min             =  -7.9305764189791E-01
(PID.TID 0000.0001) %MON dynstat_uvel_mean            =  -3.2008563445107E-04
(PID.TID 0000.0001) %MON dynstat_uvel_sd              =   1.3022813315108E-02
(PID.TID 0000.0001) %MON dynstat_uvel_del2            =   9.6449343728964E-05
(PID.TID 0000.0001) %MON dynstat_vvel_max             =   5.7552294856571E-01
(PID.TID 0000.0001) %MON dynstat_vvel_min             =  -6.4050045563018E-01
(PID.TID 0000.0001) %MON dynstat_vvel_mean            =   5.4600668196004E-04
(PID.TID 0000.0001) %MON dynstat_vvel_sd              =   1.3801225366560E-02
(PID.TID 0000.0001) %MON dynstat_vvel_del2            =   9.9973535987518E-05
(PID.TID 0000.0001) %MON dynstat_wvel_max             =   1.1138426641578E-04
(PID.TID 0000.0001) %MON dynstat_wvel_min             =  -1.7994989140013E-04
(PID.TID 0000.0001) %MON dynstat_wvel_mean            =  -2.7569354904114E-07
(PID.TID 0000.0001) %MON dynstat_wvel_sd              =   7.8764883301485E-06
(PID.TID 0000.0001) %MON dynstat_wvel_del2            =   7.2876231124377E-08
(PID.TID 0000.0001) %MON dynstat_theta_max            =   3.0936997451277E+01
(PID.TID 0000.0001) %MON dynstat_theta_min            =  -3.0071126610462E+00
(PID.TID 0000.0001) %MON dynstat_theta_mean           =   3.9092285370126E+00
(PID.TID 0000.0001) %MON dynstat_theta_sd             =   4.5716725527276E+00
(PID.TID 0000.0001) %MON dynstat_theta_del2           =   2.6435561921123E-03
(PID.TID 0000.0001) %MON dynstat_salt_max             =   4.1347843704748E+01
(PID.TID 0000.0001) %MON dynstat_salt_min             =   1.8519010277090E+01
(PID.TID 0000.0001) %MON dynstat_salt_mean            =   3.4771943556128E+01
(PID.TID 0000.0001) %MON dynstat_salt_sd              =   5.3199734997660E-01
(PID.TID 0000.0001) %MON dynstat_salt_del2            =   1.0750285128022E-03
(PID.TID 0000.0001) %MON dynstat_sst_max              =   3.0936997451277E+01
(PID.TID 0000.0001) %MON dynstat_sst_min              =  -1.8982442273708E+00
(PID.TID 0000.0001) %MON dynstat_sst_mean             =   1.8112527285798E+01
(PID.TID 0000.0001) %MON dynstat_sst_sd               =   9.8107781562684E+00
(PID.TID 0000.0001) %MON dynstat_sst_del2             =   1.5086333204739E-02
(PID.TID 0000.0001) %MON dynstat_sss_max              =   4.1347843704748E+01
(PID.TID 0000.0001) %MON dynstat_sss_min              =   1.8752105298861E+01
(PID.TID 0000.0001) %MON dynstat_sss_mean             =   3.4623731920750E+01
(PID.TID 0000.0001) %MON dynstat_sss_sd               =   1.4836544261059E+00
(PID.TID 0000.0001) %MON dynstat_sss_del2             =   1.2036531905747E-02
(PID.TID 0000.0001) %MON forcing_qnet_max             =   1.8819426269531E+03
(PID.TID 0000.0001) %MON forcing_qnet_min             =  -2.0237041015625E+03
(PID.TID 0000.0001) %MON forcing_qnet_mean            =  -9.3466562561416E+00
(PID.TID 0000.0001) %MON forcing_qnet_sd              =   2.3141904648525E+02
(PID.TID 0000.0001) %MON forcing_qnet_del2            =   3.9546245498756E+00
(PID.TID 0000.0001) %MON forcing_qsw_max              =   0.0000000000000E+00
(PID.TID 0000.0001) %MON forcing_qsw_min              =  -4.1543583309794E+02
(PID.TID 0000.0001) %MON forcing_qsw_mean             =  -5.8772806915250E+01
(PID.TID 0000.0001) %MON forcing_qsw_sd               =   1.0423975491480E+02
(PID.TID 0000.0001) %MON forcing_qsw_del2             =   9.2869196717940E-01
(PID.TID 0000.0001) %MON forcing_empmr_max            =   5.8360304683447E-03
(PID.TID 0000.0001) %MON forcing_empmr_min            =  -8.3901099860668E-02
(PID.TID 0000.0001) %MON forcing_empmr_mean           =  -2.4610714773627E-04
(PID.TID 0000.0001) %MON forcing_empmr_sd             =   3.6927462051161E-03
(PID.TID 0000.0001) %MON forcing_empmr_del2           =   1.4573377056833E-04
(PID.TID 0000.0001) %MON forcing_fu_max               =   3.6880756247995E-01
(PID.TID 0000.0001) %MON forcing_fu_min               =  -3.6118434426965E-01
(PID.TID 0000.0001) %MON forcing_fu_mean              =  -2.1029879086314E-03
(PID.TID 0000.0001) %MON forcing_fu_sd                =   6.1237282523006E-02
(PID.TID 0000.0001) %MON forcing_fu_del2              =   6.0864541444230E-04
(PID.TID 0000.0001) %MON forcing_fv_max               =   2.9278901967909E-01
(PID.TID 0000.0001) %MON forcing_fv_min               =  -2.6825495566527E-01
(PID.TID 0000.0001) %MON forcing_fv_mean              =  -1.5697806250947E-02
(PID.TID 0000.0001) %MON forcing_fv_sd                =   6.0623049188304E-02
(PID.TID 0000.0001) %MON forcing_fv_del2              =   5.3117359875309E-04
(PID.TID 0000.0001) %MON trAdv_CFL_u_max              =   2.3152475045898E-03
(PID.TID 0000.0001) %MON trAdv_CFL_v_max              =   2.0675846545113E-03
(PID.TID 0000.0001) %MON trAdv_CFL_w_max              =   1.8295585873804E-03
(PID.TID 0000.0001) %MON advcfl_uvel_max              =   2.3046327673031E-03
(PID.TID 0000.0001) %MON advcfl_vvel_max              =   1.8781413148167E-03
(PID.TID 0000.0001) %MON advcfl_wvel_max              =   2.9182991255885E-03
(PID.TID 0000.0001) %MON advcfl_W_hf_max              =   1.8295585873804E-03
(PID.TID 0000.0001) %MON pe_b_mean                    =   4.9967241179108E-04
(PID.TID 0000.0001) %MON ke_max                       =   2.6120995261811E-01
(PID.TID 0000.0001) %MON ke_mean                      =   1.6646675013223E-04
(PID.TID 0000.0001) %MON ke_vol                       =   1.3398130356268E+18
(PID.TID 0000.0001) %MON vort_r_min                   =  -4.6375978347414E-06
(PID.TID 0000.0001) %MON vort_r_max                   =   2.9474072346194E-06
(PID.TID 0000.0001) %MON vort_a_mean                  =  -2.0549865324846E-05
(PID.TID 0000.0001) %MON vort_a_sd                    =   7.5259740518422E-05
(PID.TID 0000.0001) %MON vort_p_mean                  =  -2.4783271746896E-05
(PID.TID 0000.0001) %MON vort_p_sd                    =   1.2811917468636E-04
(PID.TID 0000.0001) %MON surfExpan_theta_mean         =  -6.8197967254133E-06
(PID.TID 0000.0001) %MON surfExpan_salt_mean          =   1.3156592117233E-06
(PID.TID 0000.0001) // =======================================================
(PID.TID 0000.0001) // End MONITOR dynamic field statistics
(PID.TID 0000.0001) // =======================================================
 Computing Diagnostic #     81  oceTAUX      Counter:       1   Parms: UU      U1      
           Vector  Mate for  oceTAUX      Diagnostic #     82  oceTAUY  exists 
 Computing Diagnostic #     82  oceTAUY      Counter:       1   Parms: VV      U1      
           Vector  Mate for  oceTAUY      Diagnostic #     81  oceTAUX  exists 
 Computing Diagnostic #     85  oceFWflx     Counter:       1   Parms: SM      U1      
 Computing Diagnostic #     86  oceSflux     Counter:       1   Parms: SM      U1      
 Computing Diagnostic #     87  oceQnet      Counter:       1   Parms: SM      U1      
 Computing Diagnostic #     88  oceQsw       Counter:       1   Parms: SM      U1      
 Computing Diagnostic #     27  SALT         Counter:       1   Parms: SMR     MR      
 Computing Diagnostic #     26  THETA        Counter:       1   Parms: SMR     MR      
 Computing Diagnostic #     45  UVELMASS     Counter:       1   Parms: UUr     MR      
           Vector  Mate for  UVELMASS     Diagnostic #     46  VVELMASS exists 
 Computing Diagnostic #     46  VVELMASS     Counter:       1   Parms: VVr     MR      
           Vector  Mate for  VVELMASS     Diagnostic #     45  UVELMASS exists 
 cg2d: Sum(rhs),rhsMax =  -6.94715264840214E+01  3.65768637253897E+01
(PID.TID 0000.0001)      cg2d_init_res =   2.88463043528093E-01
(PID.TID 0000.0001)      cg2d_iters(min,last) =      -1      10
(PID.TID 0000.0001)      cg2d_last_res =   8.50979480380893E-08
(PID.TID 0000.0001) // =======================================================
(PID.TID 0000.0001) // Begin MONITOR dynamic field statistics
(PID.TID 0000.0001) // =======================================================
(PID.TID 0000.0001) %MON time_tsnumber                =                 72064
(PID.TID 0000.0001) %MON time_secondsf                =   6.4857600000000E+07
(PID.TID 0000.0001) %MON dynstat_eta_max              =   1.2055967016429E+00
(PID.TID 0000.0001) %MON dynstat_eta_min              =  -1.5792865408195E+00
(PID.TID 0000.0001) %MON dynstat_eta_mean             =   2.9526670603555E-02
(PID.TID 0000.0001) %MON dynstat_eta_sd               =   6.1165896149342E-01
(PID.TID 0000.0001) %MON dynstat_eta_del2             =   1.3727815513304E-03
(PID.TID 0000.0001) %MON dynstat_uvel_max             =   6.5482857660796E-01
(PID.TID 0000.0001) %MON dynstat_uvel_min             =  -8.0346477162812E-01
(PID.TID 0000.0001) %MON dynstat_uvel_mean            =  -3.0976653768836E-04
(PID.TID 0000.0001) %MON dynstat_uvel_sd              =   1.3049849018492E-02
(PID.TID 0000.0001) %MON dynstat_uvel_del2            =   9.5821050529867E-05
(PID.TID 0000.0001) %MON dynstat_vvel_max             =   5.2523572856143E-01
(PID.TID 0000.0001) %MON dynstat_vvel_min             =  -6.3106663407222E-01
(PID.TID 0000.0001) %MON dynstat_vvel_mean            =   5.4395387015926E-04
(PID.TID 0000.0001) %MON dynstat_vvel_sd              =   1.3772534452531E-02
(PID.TID 0000.0001) %MON dynstat_vvel_del2            =   9.8983749060719E-05
(PID.TID 0000.0001) %MON dynstat_wvel_max             =   1.0976210732258E-04
(PID.TID 0000.0001) %MON dynstat_wvel_min             =  -1.8006351243566E-04
(PID.TID 0000.0001) %MON dynstat_wvel_mean            =  -2.5579859079671E-07
(PID.TID 0000.0001) %MON dynstat_wvel_sd              =   7.8464084003757E-06
(PID.TID 0000.0001) %MON dynstat_wvel_del2            =   7.2116812381260E-08
(PID.TID 0000.0001) %MON dynstat_theta_max            =   3.0936781925211E+01
(PID.TID 0000.0001) %MON dynstat_theta_min            =  -3.0072885941514E+00
(PID.TID 0000.0001) %MON dynstat_theta_mean           =   3.9092304528817E+00
(PID.TID 0000.0001) %MON dynstat_theta_sd             =   4.5716783686248E+00
(PID.TID 0000.0001) %MON dynstat_theta_del2           =   2.6434474806685E-03
(PID.TID 0000.0001) %MON dynstat_salt_max             =   4.1347727036450E+01
(PID.TID 0000.0001) %MON dynstat_salt_min             =   1.8519020429039E+01
(PID.TID 0000.0001) %MON dynstat_salt_mean            =   3.4771941433457E+01
(PID.TID 0000.0001) %MON dynstat_salt_sd              =   5.3201125194578E-01
(PID.TID 0000.0001) %MON dynstat_salt_del2            =   1.0783770873530E-03
(PID.TID 0000.0001) %MON dynstat_sst_max              =   3.0936781925211E+01
(PID.TID 0000.0001) %MON dynstat_sst_min              =  -1.8983899433000E+00
(PID.TID 0000.0001) %MON dynstat_sst_mean             =   1.8112568247461E+01
(PID.TID 0000.0001) %MON dynstat_sst_sd               =   9.8108372471760E+00
(PID.TID 0000.0001) %MON dynstat_sst_del2             =   1.5084662030411E-02
(PID.TID 0000.0001) %MON dynstat_sss_max              =   4.1347727036450E+01
(PID.TID 0000.0001) %MON dynstat_sss_min              =   1.8752120009576E+01
(PID.TID 0000.0001) %MON dynstat_sss_mean             =   3.4623574596653E+01
(PID.TID 0000.0001) %MON dynstat_sss_sd               =   1.4840102133793E+00
(PID.TID 0000.0001) %MON dynstat_sss_del2             =   1.2083777060673E-02
(PID.TID 0000.0001) %MON forcing_qnet_max             =   1.8608101806641E+03
(PID.TID 0000.0001) %MON forcing_qnet_min             =  -1.1123135986328E+03
(PID.TID 0000.0001) %MON forcing_qnet_mean            =  -9.6635627591666E+00
(PID.TID 0000.0001) %MON forcing_qnet_sd              =   2.3024461764917E+02
(PID.TID 0000.0001) %MON forcing_qnet_del2            =   3.6962185609119E+00
(PID.TID 0000.0001) %MON forcing_qsw_max              =   0.0000000000000E+00
(PID.TID 0000.0001) %MON forcing_qsw_min              =  -4.2057654830341E+02
(PID.TID 0000.0001) %MON forcing_qsw_mean             =  -5.9024088164342E+01
(PID.TID 0000.0001) %MON forcing_qsw_sd               =   1.0531451858136E+02
(PID.TID 0000.0001) %MON forcing_qsw_del2             =   9.3794063552088E-01
(PID.TID 0000.0001) %MON forcing_empmr_max            =   5.7759052142501E-03
(PID.TID 0000.0001) %MON forcing_empmr_min            =  -8.3036839962006E-02
(PID.TID 0000.0001) %MON forcing_empmr_mean           =  -2.4089817037780E-04
(PID.TID 0000.0001) %MON forcing_empmr_sd             =   3.6533054960018E-03
(PID.TID 0000.0001) %MON forcing_empmr_del2           =   1.4421058588727E-04
(PID.TID 0000.0001) %MON forcing_fu_max               =   3.6620017095871E-01
(PID.TID 0000.0001) %MON forcing_fu_min               =  -3.7050071843658E-01
(PID.TID 0000.0001) %MON forcing_fu_mean              =  -2.0708229046895E-03
(PID.TID 0000.0001) %MON forcing_fu_sd                =   6.1301786821373E-02
(PID.TID 0000.0001) %MON forcing_fu_del2              =   6.0918840254403E-04
(PID.TID 0000.0001) %MON forcing_fv_max               =   2.9353050808817E-01
(PID.TID 0000.0001) %MON forcing_fv_min               =  -2.6572234767919E-01
(PID.TID 0000.0001) %MON forcing_fv_mean              =  -1.5685822312120E-02
(PID.TID 0000.0001) %MON forcing_fv_sd                =   6.0517648656823E-02
(PID.TID 0000.0001) %MON forcing_fv_del2              =   5.3077649193776E-04
(PID.TID 0000.0001) %MON trAdv_CFL_u_max              =   2.3475513335772E-03
(PID.TID 0000.0001) %MON trAdv_CFL_v_max              =   2.0021675730202E-03
(PID.TID 0000.0001) %MON trAdv_CFL_w_max              =   1.8289301543533E-03
(PID.TID 0000.0001) %MON advcfl_uvel_max              =   2.3348759815698E-03
(PID.TID 0000.0001) %MON advcfl_vvel_max              =   1.8450534523046E-03
(PID.TID 0000.0001) %MON advcfl_wvel_max              =   2.8882379117219E-03
(PID.TID 0000.0001) %MON advcfl_W_hf_max              =   1.8289301543533E-03
(PID.TID 0000.0001) %MON pe_b_mean                    =   4.9956333509031E-04
(PID.TID 0000.0001) %MON ke_max                       =   2.6241759577159E-01
(PID.TID 0000.0001) %MON ke_mean                      =   1.6641953232666E-04
(PID.TID 0000.0001) %MON ke_vol                       =   1.3398131135008E+18
(PID.TID 0000.0001) %MON vort_r_min                   =  -4.6409402796475E-06
(PID.TID 0000.0001) %MON vort_r_max                   =   2.8819408338930E-06
(PID.TID 0000.0001) %MON vort_a_mean                  =  -2.0549865324846E-05
(PID.TID 0000.0001) %MON vort_a_sd                    =   7.5259741380139E-05
(PID.TID 0000.0001) %MON vort_p_mean                  =  -2.4783269951347E-05
(PID.TID 0000.0001) %MON vort_p_sd                    =   1.2811920523021E-04
(PID.TID 0000.0001) %MON surfExpan_theta_mean         =  -6.6708080081040E-06
(PID.TID 0000.0001) %MON surfExpan_salt_mean          =   1.3117963117514E-06
(PID.TID 0000.0001) // =======================================================
(PID.TID 0000.0001) // End MONITOR dynamic field statistics
(PID.TID 0000.0001) // =======================================================
 cg2d: Sum(rhs),rhsMax =  -7.00548566106816E+01  3.65269056520568E+01
(PID.TID 0000.0001)      cg2d_init_res =   2.80302759642006E-01
(PID.TID 0000.0001)      cg2d_iters(min,last) =      -1      10
(PID.TID 0000.0001)      cg2d_last_res =   8.38802138051910E-08
(PID.TID 0000.0001) // =======================================================
(PID.TID 0000.0001) // Begin MONITOR dynamic field statistics
(PID.TID 0000.0001) // =======================================================
(PID.TID 0000.0001) %MON time_tsnumber                =                 72065
(PID.TID 0000.0001) %MON time_secondsf                =   6.4858500000000E+07
(PID.TID 0000.0001) %MON dynstat_eta_max              =   1.0470573711857E+00
(PID.TID 0000.0001) %MON dynstat_eta_min              =  -1.5772034991440E+00
(PID.TID 0000.0001) %MON dynstat_eta_mean             =   2.9733929308841E-02
(PID.TID 0000.0001) %MON dynstat_eta_sd               =   6.1162186613746E-01
(PID.TID 0000.0001) %MON dynstat_eta_del2             =   1.3884971840379E-03
(PID.TID 0000.0001) %MON dynstat_uvel_max             =   6.1925704567851E-01
(PID.TID 0000.0001) %MON dynstat_uvel_min             =  -8.1129168937810E-01
(PID.TID 0000.0001) %MON dynstat_uvel_mean            =  -3.0159792920351E-04
(PID.TID 0000.0001) %MON dynstat_uvel_sd              =   1.3071803728593E-02
(PID.TID 0000.0001) %MON dynstat_uvel_del2            =   9.5066444869047E-05
(PID.TID 0000.0001) %MON dynstat_vvel_max             =   4.6872720983568E-01
(PID.TID 0000.0001) %MON dynstat_vvel_min             =  -6.1829101223694E-01
(PID.TID 0000.0001) %MON dynstat_vvel_mean            =   5.3884882723078E-04
(PID.TID 0000.0001) %MON dynstat_vvel_sd              =   1.3743303742778E-02
(PID.TID 0000.0001) %MON dynstat_vvel_del2            =   9.7578319676063E-05
(PID.TID 0000.0001) %MON dynstat_wvel_max             =   1.0797467336011E-04
(PID.TID 0000.0001) %MON dynstat_wvel_min             =  -1.8017362941709E-04
(PID.TID 0000.0001) %MON dynstat_wvel_mean            =  -2.3748898250318E-07
(PID.TID 0000.0001) %MON dynstat_wvel_sd              =   7.8175510072175E-06
(PID.TID 0000.0001) %MON dynstat_wvel_del2            =   7.1392067511110E-08
(PID.TID 0000.0001) %MON dynstat_theta_max            =   3.0936562004518E+01
(PID.TID 0000.0001) %MON dynstat_theta_min            =  -3.0074662352216E+00
(PID.TID 0000.0001) %MON dynstat_theta_mean           =   3.9092325127925E+00
(PID.TID 0000.0001) %MON dynstat_theta_sd             =   4.5716846530351E+00
(PID.TID 0000.0001) %MON dynstat_theta_del2           =   2.6433401520458E-03
(PID.TID 0000.0001) %MON dynstat_salt_max             =   4.1347624239469E+01
(PID.TID 0000.0001) %MON dynstat_salt_min             =   1.8519030565284E+01
(PID.TID 0000.0001) %MON dynstat_salt_mean            =   3.4771939342308E+01
(PID.TID 0000.0001) %MON dynstat_salt_sd              =   5.3202495023186E-01
(PID.TID 0000.0001) %MON dynstat_salt_del2            =   1.0816612132029E-03
(PID.TID 0000.0001) %MON dynstat_sst_max              =   3.0936562004518E+01
(PID.TID 0000.0001) %MON dynstat_sst_min              =  -1.8985303328444E+00
(PID.TID 0000.0001) %MON dynstat_sst_mean             =   1.8112619249030E+01
(PID.TID 0000.0001) %MON dynstat_sst_sd               =   9.8108976297653E+00
(PID.TID 0000.0001) %MON dynstat_sst_del2             =   1.5083012566985E-02
(PID.TID 0000.0001) %MON dynstat_sss_max              =   4.1347624239469E+01
(PID.TID 0000.0001) %MON dynstat_sss_min              =   1.8752134382337E+01
(PID.TID 0000.0001) %MON dynstat_sss_mean             =   3.4623419011730E+01
(PID.TID 0000.0001) %MON dynstat_sss_sd               =   1.4843610729900E+00
(PID.TID 0000.0001) %MON dynstat_sss_del2             =   1.2130075991589E-02
(PID.TID 0000.0001) %MON forcing_qnet_max             =   1.8389096679688E+03
(PID.TID 0000.0001) %MON forcing_qnet_min             =  -1.0974343261719E+03
(PID.TID 0000.0001) %MON forcing_qnet_mean            =  -1.2339630519593E+01
(PID.TID 0000.0001) %MON forcing_qnet_sd              =   2.3268802944880E+02
(PID.TID 0000.0001) %MON forcing_qnet_del2            =   3.5720009724670E+00
(PID.TID 0000.0001) %MON forcing_qsw_max              =   0.0000000000000E+00
(PID.TID 0000.0001) %MON forcing_qsw_min              =  -4.2690602036483E+02
(PID.TID 0000.0001) %MON forcing_qsw_mean             =  -6.0211053114169E+01
(PID.TID 0000.0001) %MON forcing_qsw_sd               =   1.0783850690385E+02
(PID.TID 0000.0001) %MON forcing_qsw_del2             =   9.5355048155306E-01
(PID.TID 0000.0001) %MON forcing_empmr_max            =   5.7164696045220E-03
(PID.TID 0000.0001) %MON forcing_empmr_min            =  -8.2181803882122E-02
(PID.TID 0000.0001) %MON forcing_empmr_mean           =  -2.3834751107911E-04
(PID.TID 0000.0001) %MON forcing_empmr_sd             =   3.6158267813165E-03
(PID.TID 0000.0001) %MON forcing_empmr_del2           =   1.4272634419184E-04
(PID.TID 0000.0001) %MON forcing_fu_max               =   3.6392272172215E-01
(PID.TID 0000.0001) %MON forcing_fu_min               =  -3.7261114422150E-01
(PID.TID 0000.0001) %MON forcing_fu_mean              =  -2.0546063835279E-03
(PID.TID 0000.0001) %MON forcing_fu_sd                =   6.1328715278933E-02
(PID.TID 0000.0001) %MON forcing_fu_del2              =   6.0882938886549E-04
(PID.TID 0000.0001) %MON forcing_fv_max               =   2.9416143798545E-01
(PID.TID 0000.0001) %MON forcing_fv_min               =  -2.6381584768608E-01
(PID.TID 0000.0001) %MON forcing_fv_mean              =  -1.5650831227168E-02
(PID.TID 0000.0001) %MON forcing_fv_sd                =   6.0454650421675E-02
(PID.TID 0000.0001) %MON forcing_fv_del2              =   5.3051383401925E-04
(PID.TID 0000.0001) %MON trAdv_CFL_u_max              =   2.3725052640057E-03
(PID.TID 0000.0001) %MON trAdv_CFL_v_max              =   1.8995954187175E-03
(PID.TID 0000.0001) %MON trAdv_CFL_w_max              =   1.8231197548932E-03
(PID.TID 0000.0001) %MON advcfl_uvel_max              =   2.3576210762018E-03
(PID.TID 0000.0001) %MON advcfl_vvel_max              =   1.8077012870975E-03
(PID.TID 0000.0001) %MON advcfl_wvel_max              =   2.8584975263347E-03
(PID.TID 0000.0001) %MON advcfl_W_hf_max              =   1.8231197548932E-03
(PID.TID 0000.0001) %MON pe_b_mean                    =   4.9951921735064E-04
(PID.TID 0000.0001) %MON ke_max                       =   2.6196360938831E-01
(PID.TID 0000.0001) %MON ke_mean                      =   1.6630499730778E-04
(PID.TID 0000.0001) %MON ke_vol                       =   1.3398131897266E+18
(PID.TID 0000.0001) %MON vort_r_min                   =  -4.6251385241578E-06
(PID.TID 0000.0001) %MON vort_r_max                   =   2.7843494522931E-06
(PID.TID 0000.0001) %MON vort_a_mean                  =  -2.0549865324846E-05
(PID.TID 0000.0001) %MON vort_a_sd                    =   7.5259741473099E-05
(PID.TID 0000.0001) %MON vort_p_mean                  =  -2.4783268232542E-05
(PID.TID 0000.0001) %MON vort_p_sd                    =   1.2811923332586E-04
(PID.TID 0000.0001) %MON surfExpan_theta_mean         =  -6.5609840337264E-06
(PID.TID 0000.0001) %MON surfExpan_salt_mean          =   1.3058332181844E-06
(PID.TID 0000.0001) // =======================================================
(PID.TID 0000.0001) // End MONITOR dynamic field statistics
(PID.TID 0000.0001) // =======================================================
 cg2d: Sum(rhs),rhsMax =  -7.06386199558434E+01  3.64752806594200E+01
(PID.TID 0000.0001)      cg2d_init_res =   2.70576599893662E-01
(PID.TID 0000.0001)      cg2d_iters(min,last) =      -1      10
(PID.TID 0000.0001)      cg2d_last_res =   7.55188602293290E-08
(PID.TID 0000.0001) // =======================================================
(PID.TID 0000.0001) // Begin MONITOR dynamic field statistics
(PID.TID 0000.0001) // =======================================================
(PID.TID 0000.0001) %MON time_tsnumber                =                 72066
(PID.TID 0000.0001) %MON time_secondsf                =   6.4859400000000E+07
(PID.TID 0000.0001) %MON dynstat_eta_max              =   1.0466882203711E+00
(PID.TID 0000.0001) %MON dynstat_eta_min              =  -1.5750474201609E+00
(PID.TID 0000.0001) %MON dynstat_eta_mean             =   2.9939326157086E-02
(PID.TID 0000.0001) %MON dynstat_eta_sd               =   6.1162010439311E-01
(PID.TID 0000.0001) %MON dynstat_eta_del2             =   1.4209438621654E-03
(PID.TID 0000.0001) %MON dynstat_uvel_max             =   5.7574713741901E-01
(PID.TID 0000.0001) %MON dynstat_uvel_min             =  -8.1631415101049E-01
(PID.TID 0000.0001) %MON dynstat_uvel_mean            =  -2.9554268876701E-04
(PID.TID 0000.0001) %MON dynstat_uvel_sd              =   1.3088373903940E-02
(PID.TID 0000.0001) %MON dynstat_uvel_del2            =   9.4206368743682E-05
(PID.TID 0000.0001) %MON dynstat_vvel_max             =   4.0716831674075E-01
(PID.TID 0000.0001) %MON dynstat_vvel_min             =  -6.0222682729834E-01
(PID.TID 0000.0001) %MON dynstat_vvel_mean            =   5.3099060906829E-04
(PID.TID 0000.0001) %MON dynstat_vvel_sd              =   1.3714767053813E-02
(PID.TID 0000.0001) %MON dynstat_vvel_del2            =   9.5840442603967E-05
(PID.TID 0000.0001) %MON dynstat_wvel_max             =   1.0602088876823E-04
(PID.TID 0000.0001) %MON dynstat_wvel_min             =  -1.8028620020248E-04
(PID.TID 0000.0001) %MON dynstat_wvel_mean            =  -2.2102233288047E-07
(PID.TID 0000.0001) %MON dynstat_wvel_sd              =   7.7897168450984E-06
(PID.TID 0000.0001) %MON dynstat_wvel_del2            =   7.0720668682223E-08
(PID.TID 0000.0001) %MON dynstat_theta_max            =   3.0936337528151E+01
(PID.TID 0000.0001) %MON dynstat_theta_min            =  -3.0076504994605E+00
(PID.TID 0000.0001) %MON dynstat_theta_mean           =   3.9092346256068E+00
(PID.TID 0000.0001) %MON dynstat_theta_sd             =   4.5716911183643E+00
(PID.TID 0000.0001) %MON dynstat_theta_del2           =   2.6432386419294E-03
(PID.TID 0000.0001) %MON dynstat_salt_max             =   4.1347533883732E+01
(PID.TID 0000.0001) %MON dynstat_salt_min             =   1.8519040684212E+01
(PID.TID 0000.0001) %MON dynstat_salt_mean            =   3.4771937276863E+01
(PID.TID 0000.0001) %MON dynstat_salt_sd              =   5.3203843594735E-01
(PID.TID 0000.0001) %MON dynstat_salt_del2            =   1.0848835564265E-03
(PID.TID 0000.0001) %MON dynstat_sst_max              =   3.0936337528151E+01
(PID.TID 0000.0001) %MON dynstat_sst_min              =  -1.8986631724607E+00
(PID.TID 0000.0001) %MON dynstat_sst_mean             =   1.8112671565484E+01
(PID.TID 0000.0001) %MON dynstat_sst_sd               =   9.8109589839937E+00
(PID.TID 0000.0001) %MON dynstat_sst_del2             =   1.5081500379946E-02
(PID.TID 0000.0001) %MON dynstat_sss_max              =   4.1347533883732E+01
(PID.TID 0000.0001) %MON dynstat_sss_min              =   1.8752148543671E+01
(PID.TID 0000.0001) %MON dynstat_sss_mean             =   3.4623264119234E+01
(PID.TID 0000.0001) %MON dynstat_sss_sd               =   1.4847063797707E+00
(PID.TID 0000.0001) %MON dynstat_sss_del2             =   1.2175467924579E-02
(PID.TID 0000.0001) %MON forcing_qnet_max             =   1.8172755126953E+03
(PID.TID 0000.0001) %MON forcing_qnet_min             =  -1.0816564941406E+03
(PID.TID 0000.0001) %MON forcing_qnet_mean            =  -1.3332396363890E+01
(PID.TID 0000.0001) %MON forcing_qnet_sd              =   2.3341155379149E+02
(PID.TID 0000.0001) %MON forcing_qnet_del2            =   3.4895838022812E+00
(PID.TID 0000.0001) %MON forcing_qsw_max              =   0.0000000000000E+00
(PID.TID 0000.0001) %MON forcing_qsw_min              =  -4.3023991580918E+02
(PID.TID 0000.0001) %MON forcing_qsw_mean             =  -6.0813476027020E+01
(PID.TID 0000.0001) %MON forcing_qsw_sd               =   1.0885124982615E+02
(PID.TID 0000.0001) %MON forcing_qsw_del2             =   9.6505834550008E-01
(PID.TID 0000.0001) %MON forcing_empmr_max            =   5.6575257331133E-03
(PID.TID 0000.0001) %MON forcing_empmr_min            =  -8.1335172057152E-02
(PID.TID 0000.0001) %MON forcing_empmr_mean           =  -2.3620637548116E-04
(PID.TID 0000.0001) %MON forcing_empmr_sd             =   3.5786450972687E-03
(PID.TID 0000.0001) %MON forcing_empmr_del2           =   1.4125129374965E-04
(PID.TID 0000.0001) %MON forcing_fu_max               =   3.6207937945496E-01
(PID.TID 0000.0001) %MON forcing_fu_min               =  -3.5981578301355E-01
(PID.TID 0000.0001) %MON forcing_fu_mean              =  -2.0273709866636E-03
(PID.TID 0000.0001) %MON forcing_fu_sd                =   6.1176367040005E-02
(PID.TID 0000.0001) %MON forcing_fu_del2              =   6.0678470262154E-04
(PID.TID 0000.0001) %MON forcing_fv_max               =   2.9607541332472E-01
(PID.TID 0000.0001) %MON forcing_fv_min               =  -2.6198507440200E-01
(PID.TID 0000.0001) %MON forcing_fv_mean              =  -1.5599977923206E-02
(PID.TID 0000.0001) %MON forcing_fv_sd                =   6.0414740236291E-02
(PID.TID 0000.0001) %MON forcing_fv_del2              =   5.3065158856347E-04
(PID.TID 0000.0001) %MON trAdv_CFL_u_max              =   2.3894150123933E-03
(PID.TID 0000.0001) %MON trAdv_CFL_v_max              =   1.7686768939628E-03
(PID.TID 0000.0001) %MON trAdv_CFL_w_max              =   1.8121392210464E-03
(PID.TID 0000.0001) %MON advcfl_uvel_max              =   2.3722163956830E-03
(PID.TID 0000.0001) %MON advcfl_vvel_max              =   1.7607343294434E-03
(PID.TID 0000.0001) %MON advcfl_wvel_max              =   2.8290494628575E-03
(PID.TID 0000.0001) %MON advcfl_W_hf_max              =   1.8121392210464E-03
(PID.TID 0000.0001) %MON pe_b_mean                    =   4.9953264640028E-04
(PID.TID 0000.0001) %MON ke_max                       =   2.5970529916438E-01
(PID.TID 0000.0001) %MON ke_mean                      =   1.6613506436394E-04
(PID.TID 0000.0001) %MON ke_vol                       =   1.3398132651453E+18
(PID.TID 0000.0001) %MON vort_r_min                   =  -4.5896368108284E-06
(PID.TID 0000.0001) %MON vort_r_max                   =   2.6572154487185E-06
(PID.TID 0000.0001) %MON vort_a_mean                  =  -2.0549865324846E-05
(PID.TID 0000.0001) %MON vort_a_sd                    =   7.5259740841623E-05
(PID.TID 0000.0001) %MON vort_p_mean                  =  -2.4783266570021E-05
(PID.TID 0000.0001) %MON vort_p_sd                    =   1.2811925770494E-04
(PID.TID 0000.0001) %MON surfExpan_theta_mean         =  -6.4783732960807E-06
(PID.TID 0000.0001) %MON surfExpan_salt_mean          =   1.2971257582374E-06
(PID.TID 0000.0001) // =======================================================
(PID.TID 0000.0001) // End MONITOR dynamic field statistics
(PID.TID 0000.0001) // =======================================================
 cg2d: Sum(rhs),rhsMax =  -7.12212186256813E+01  3.64230084367387E+01
(PID.TID 0000.0001)      cg2d_init_res =   2.59667221041062E-01
(PID.TID 0000.0001)      cg2d_iters(min,last) =      -1      10
(PID.TID 0000.0001)      cg2d_last_res =   5.52280888915034E-08
(PID.TID 0000.0001) // =======================================================
(PID.TID 0000.0001) // Begin MONITOR dynamic field statistics
(PID.TID 0000.0001) // =======================================================
(PID.TID 0000.0001) %MON time_tsnumber                =                 72067
(PID.TID 0000.0001) %MON time_secondsf                =   6.4860300000000E+07
(PID.TID 0000.0001) %MON dynstat_eta_max              =   1.0448593651416E+00
(PID.TID 0000.0001) %MON dynstat_eta_min              =  -1.5728605514925E+00
(PID.TID 0000.0001) %MON dynstat_eta_mean             =   3.0142994064314E-02
(PID.TID 0000.0001) %MON dynstat_eta_sd               =   6.1164688286417E-01
(PID.TID 0000.0001) %MON dynstat_eta_del2             =   1.4646862673024E-03
(PID.TID 0000.0001) %MON dynstat_uvel_max             =   5.6034103288756E-01
(PID.TID 0000.0001) %MON dynstat_uvel_min             =  -8.1833958488292E-01
(PID.TID 0000.0001) %MON dynstat_uvel_mean            =  -2.9155441137662E-04
(PID.TID 0000.0001) %MON dynstat_uvel_sd              =   1.3099704447368E-02
(PID.TID 0000.0001) %MON dynstat_uvel_del2            =   9.3266704057454E-05
(PID.TID 0000.0001) %MON dynstat_vvel_max             =   3.5622758042754E-01
(PID.TID 0000.0001) %MON dynstat_vvel_min             =  -5.8295349453502E-01
(PID.TID 0000.0001) %MON dynstat_vvel_mean            =   5.2066248605411E-04
(PID.TID 0000.0001) %MON dynstat_vvel_sd              =   1.3687988253415E-02
(PID.TID 0000.0001) %MON dynstat_vvel_del2            =   9.3871776288459E-05
(PID.TID 0000.0001) %MON dynstat_wvel_max             =   1.0432438246136E-04
(PID.TID 0000.0001) %MON dynstat_wvel_min             =  -1.8039615292253E-04
(PID.TID 0000.0001) %MON dynstat_wvel_mean            =  -2.0662123287677E-07
(PID.TID 0000.0001) %MON dynstat_wvel_sd              =   7.7638496886856E-06
(PID.TID 0000.0001) %MON dynstat_wvel_del2            =   7.0116911988702E-08
(PID.TID 0000.0001) %MON dynstat_theta_max            =   3.0936108308585E+01
(PID.TID 0000.0001) %MON dynstat_theta_min            =  -3.0078463423313E+00
(PID.TID 0000.0001) %MON dynstat_theta_mean           =   3.9092368010041E+00
(PID.TID 0000.0001) %MON dynstat_theta_sd             =   4.5716978008082E+00
(PID.TID 0000.0001) %MON dynstat_theta_del2           =   2.6431360048075E-03
(PID.TID 0000.0001) %MON dynstat_salt_max             =   4.1347454623838E+01
(PID.TID 0000.0001) %MON dynstat_salt_min             =   1.8519050783999E+01
(PID.TID 0000.0001) %MON dynstat_salt_mean            =   3.4771935242314E+01
(PID.TID 0000.0001) %MON dynstat_salt_sd              =   5.3205173753024E-01
(PID.TID 0000.0001) %MON dynstat_salt_del2            =   1.0880411230087E-03
(PID.TID 0000.0001) %MON dynstat_sst_max              =   3.0936108308585E+01
(PID.TID 0000.0001) %MON dynstat_sst_min              =  -1.8987863528965E+00
(PID.TID 0000.0001) %MON dynstat_sst_mean             =   1.8112729055308E+01
(PID.TID 0000.0001) %MON dynstat_sst_sd               =   9.8110224999973E+00
(PID.TID 0000.0001) %MON dynstat_sst_del2             =   1.5079924496310E-02
(PID.TID 0000.0001) %MON dynstat_sss_max              =   4.1347454623838E+01
(PID.TID 0000.0001) %MON dynstat_sss_min              =   1.8752162496420E+01
(PID.TID 0000.0001) %MON dynstat_sss_mean             =   3.4623111531263E+01
(PID.TID 0000.0001) %MON dynstat_sss_sd               =   1.4850474163632E+00
(PID.TID 0000.0001) %MON dynstat_sss_del2             =   1.2219918110082E-02
(PID.TID 0000.0001) %MON forcing_qnet_max             =   1.7959044189453E+03
(PID.TID 0000.0001) %MON forcing_qnet_min             =  -1.1784581298828E+03
(PID.TID 0000.0001) %MON forcing_qnet_mean            =  -1.4489450645118E+01
(PID.TID 0000.0001) %MON forcing_qnet_sd              =   2.3462868550581E+02
(PID.TID 0000.0001) %MON forcing_qnet_del2            =   3.5502445329879E+00
(PID.TID 0000.0001) %MON forcing_qsw_max              =   0.0000000000000E+00
(PID.TID 0000.0001) %MON forcing_qsw_min              =  -4.3390090285702E+02
(PID.TID 0000.0001) %MON forcing_qsw_mean             =  -6.1307053743953E+01
(PID.TID 0000.0001) %MON forcing_qsw_sd               =   1.0960901551373E+02
(PID.TID 0000.0001) %MON forcing_qsw_del2             =   9.7485394951006E-01
(PID.TID 0000.0001) %MON forcing_empmr_max            =   5.5992705747485E-03
(PID.TID 0000.0001) %MON forcing_empmr_min            =  -8.0497764050961E-02
(PID.TID 0000.0001) %MON forcing_empmr_mean           =  -2.3421809331202E-04
(PID.TID 0000.0001) %MON forcing_empmr_sd             =   3.5419356354467E-03
(PID.TID 0000.0001) %MON forcing_empmr_del2           =   1.3977993143615E-04
(PID.TID 0000.0001) %MON forcing_fu_max               =   3.5877563857637E-01
(PID.TID 0000.0001) %MON forcing_fu_min               =  -3.6183544487425E-01
(PID.TID 0000.0001) %MON forcing_fu_mean              =  -2.0409794772018E-03
(PID.TID 0000.0001) %MON forcing_fu_sd                =   6.1071535991215E-02
(PID.TID 0000.0001) %MON forcing_fu_del2              =   6.0583509864345E-04
(PID.TID 0000.0001) %MON forcing_fv_max               =   2.9539196653559E-01
(PID.TID 0000.0001) %MON forcing_fv_min               =  -2.6022388808068E-01
(PID.TID 0000.0001) %MON forcing_fv_mean              =  -1.5565685022072E-02
(PID.TID 0000.0001) %MON forcing_fv_sd                =   6.0310727582802E-02
(PID.TID 0000.0001) %MON forcing_fv_del2              =   5.2957027532553E-04
(PID.TID 0000.0001) %MON trAdv_CFL_u_max              =   2.3976700362216E-03
(PID.TID 0000.0001) %MON trAdv_CFL_v_max              =   1.7143335621711E-03
(PID.TID 0000.0001) %MON trAdv_CFL_w_max              =   1.7960535970107E-03
(PID.TID 0000.0001) %MON advcfl_uvel_max              =   2.3781023250579E-03
(PID.TID 0000.0001) %MON advcfl_vvel_max              =   1.7043847662872E-03
(PID.TID 0000.0001) %MON advcfl_wvel_max              =   2.7999222278595E-03
(PID.TID 0000.0001) %MON advcfl_W_hf_max              =   1.7960535970107E-03
(PID.TID 0000.0001) %MON pe_b_mean                    =   4.9959255844928E-04
(PID.TID 0000.0001) %MON ke_max                       =   2.5554827449905E-01
(PID.TID 0000.0001) %MON ke_mean                      =   1.6592483742033E-04
(PID.TID 0000.0001) %MON ke_vol                       =   1.3398133398865E+18
(PID.TID 0000.0001) %MON vort_r_min                   =  -4.5340665239153E-06
(PID.TID 0000.0001) %MON vort_r_max                   =   2.5034350303571E-06
(PID.TID 0000.0001) %MON vort_a_mean                  =  -2.0549865324846E-05
(PID.TID 0000.0001) %MON vort_a_sd                    =   7.5259739534267E-05
(PID.TID 0000.0001) %MON vort_p_mean                  =  -2.4783264950605E-05
(PID.TID 0000.0001) %MON vort_p_sd                    =   1.2811927769145E-04
(PID.TID 0000.0001) %MON surfExpan_theta_mean         =  -6.4133746472465E-06
(PID.TID 0000.0001) %MON surfExpan_salt_mean          =   1.2872367884627E-06
(PID.TID 0000.0001) // =======================================================
(PID.TID 0000.0001) // End MONITOR dynamic field statistics
(PID.TID 0000.0001) // =======================================================
 Computing Diagnostic #     81  oceTAUX      Counter:       1   Parms: UU      U1      
           Vector  Mate for  oceTAUX      Diagnostic #     82  oceTAUY  exists 
 Computing Diagnostic #     82  oceTAUY      Counter:       1   Parms: VV      U1      
           Vector  Mate for  oceTAUY      Diagnostic #     81  oceTAUX  exists 
 Computing Diagnostic #     85  oceFWflx     Counter:       1   Parms: SM      U1      
 Computing Diagnostic #     86  oceSflux     Counter:       1   Parms: SM      U1      
 Computing Diagnostic #     87  oceQnet      Counter:       1   Parms: SM      U1      
 Computing Diagnostic #     88  oceQsw       Counter:       1   Parms: SM      U1      
 Computing Diagnostic #     27  SALT         Counter:       1   Parms: SMR     MR      
 Computing Diagnostic #     26  THETA        Counter:       1   Parms: SMR     MR      
 Computing Diagnostic #     45  UVELMASS     Counter:       1   Parms: UUr     MR      
           Vector  Mate for  UVELMASS     Diagnostic #     46  VVELMASS exists 
 Computing Diagnostic #     46  VVELMASS     Counter:       1   Parms: VVr     MR      
           Vector  Mate for  VVELMASS     Diagnostic #     45  UVELMASS exists 
 cg2d: Sum(rhs),rhsMax =  -7.17987975274838E+01  3.63715621452819E+01
(PID.TID 0000.0001)      cg2d_init_res =   2.48141888993392E-01
(PID.TID 0000.0001)      cg2d_iters(min,last) =      -1      10
(PID.TID 0000.0001)      cg2d_last_res =   4.43454000004669E-08
(PID.TID 0000.0001) // =======================================================
(PID.TID 0000.0001) // Begin MONITOR dynamic field statistics
(PID.TID 0000.0001) // =======================================================
(PID.TID 0000.0001) %MON time_tsnumber                =                 72068
(PID.TID 0000.0001) %MON time_secondsf                =   6.4861200000000E+07
(PID.TID 0000.0001) %MON dynstat_eta_max              =   1.0655314732099E+00
(PID.TID 0000.0001) %MON dynstat_eta_min              =  -1.7229320615174E+00
(PID.TID 0000.0001) %MON dynstat_eta_mean             =   3.0344521833130E-02
(PID.TID 0000.0001) %MON dynstat_eta_sd               =   6.1169412910013E-01
(PID.TID 0000.0001) %MON dynstat_eta_del2             =   1.5142004432424E-03
(PID.TID 0000.0001) %MON dynstat_uvel_max             =   5.5163570579356E-01
(PID.TID 0000.0001) %MON dynstat_uvel_min             =  -8.1721134042673E-01
(PID.TID 0000.0001) %MON dynstat_uvel_mean            =  -2.8956682282653E-04
(PID.TID 0000.0001) %MON dynstat_uvel_sd              =   1.3106099972043E-02
(PID.TID 0000.0001) %MON dynstat_uvel_del2            =   9.2273643201526E-05
(PID.TID 0000.0001) %MON dynstat_vvel_max             =   3.4149654630794E-01
(PID.TID 0000.0001) %MON dynstat_vvel_min             =  -5.6057630533417E-01
(PID.TID 0000.0001) %MON dynstat_vvel_mean            =   5.0815116416601E-04
(PID.TID 0000.0001) %MON dynstat_vvel_sd              =   1.3663942703454E-02
(PID.TID 0000.0001) %MON dynstat_vvel_del2            =   9.1788542063749E-05
(PID.TID 0000.0001) %MON dynstat_wvel_max             =   1.0400235707269E-04
(PID.TID 0000.0001) %MON dynstat_wvel_min             =  -1.8050160784120E-04
(PID.TID 0000.0001) %MON dynstat_wvel_mean            =  -1.9383217701995E-07
(PID.TID 0000.0001) %MON dynstat_wvel_sd              =   7.7409700543069E-06
(PID.TID 0000.0001) %MON dynstat_wvel_del2            =   6.9591185185484E-08
(PID.TID 0000.0001) %MON dynstat_theta_max            =   3.0935874167795E+01
(PID.TID 0000.0001) %MON dynstat_theta_min            =  -3.0080584311762E+00
(PID.TID 0000.0001) %MON dynstat_theta_mean           =   3.9092390230861E+00
(PID.TID 0000.0001) %MON dynstat_theta_sd             =   4.5717046438825E+00
(PID.TID 0000.0001) %MON dynstat_theta_del2           =   2.6430380555815E-03
(PID.TID 0000.0001) %MON dynstat_salt_max             =   4.1347384850068E+01
(PID.TID 0000.0001) %MON dynstat_salt_min             =   1.8519060863204E+01
(PID.TID 0000.0001) %MON dynstat_salt_mean            =   3.4771933239604E+01
(PID.TID 0000.0001) %MON dynstat_salt_sd              =   5.3206484944929E-01
(PID.TID 0000.0001) %MON dynstat_salt_del2            =   1.0911369508497E-03
(PID.TID 0000.0001) %MON dynstat_sst_max              =   3.0935874167795E+01
(PID.TID 0000.0001) %MON dynstat_sst_min              =  -1.8988990420857E+00
(PID.TID 0000.0001) %MON dynstat_sst_mean             =   1.8112792037863E+01
(PID.TID 0000.0001) %MON dynstat_sst_sd               =   9.8110876249730E+00
(PID.TID 0000.0001) %MON dynstat_sst_del2             =   1.5078422772347E-02
(PID.TID 0000.0001) %MON dynstat_sss_max              =   4.1347384850068E+01
(PID.TID 0000.0001) %MON dynstat_sss_min              =   1.8752176288279E+01
(PID.TID 0000.0001) %MON dynstat_sss_mean             =   3.4622961704851E+01
(PID.TID 0000.0001) %MON dynstat_sss_sd               =   1.4853839383701E+00
(PID.TID 0000.0001) %MON dynstat_sss_del2             =   1.2263461293208E-02
(PID.TID 0000.0001) %MON forcing_qnet_max             =   1.7757873535156E+03
(PID.TID 0000.0001) %MON forcing_qnet_min             =  -1.7269180908203E+03
(PID.TID 0000.0001) %MON forcing_qnet_mean            =  -1.5450520104161E+01
(PID.TID 0000.0001) %MON forcing_qnet_sd              =   2.3555540868248E+02
(PID.TID 0000.0001) %MON forcing_qnet_del2            =   3.6013467398740E+00
(PID.TID 0000.0001) %MON forcing_qsw_max              =   0.0000000000000E+00
(PID.TID 0000.0001) %MON forcing_qsw_min              =  -4.3580985937343E+02
(PID.TID 0000.0001) %MON forcing_qsw_mean             =  -6.1697641180400E+01
(PID.TID 0000.0001) %MON forcing_qsw_sd               =   1.1010033766543E+02
(PID.TID 0000.0001) %MON forcing_qsw_del2             =   9.8280001436080E-01
(PID.TID 0000.0001) %MON forcing_empmr_max            =   5.5416058748960E-03
(PID.TID 0000.0001) %MON forcing_empmr_min            =  -7.9668745398521E-02
(PID.TID 0000.0001) %MON forcing_empmr_mean           =  -2.3175693413892E-04
(PID.TID 0000.0001) %MON forcing_empmr_sd             =   3.5056524630392E-03
(PID.TID 0000.0001) %MON forcing_empmr_del2           =   1.3833537553925E-04
(PID.TID 0000.0001) %MON forcing_fu_max               =   3.5621236918323E-01
(PID.TID 0000.0001) %MON forcing_fu_min               =  -3.7082893322792E-01
(PID.TID 0000.0001) %MON forcing_fu_mean              =  -2.0903604272600E-03
(PID.TID 0000.0001) %MON forcing_fu_sd                =   6.0993886141802E-02
(PID.TID 0000.0001) %MON forcing_fu_del2              =   6.0493731435749E-04
(PID.TID 0000.0001) %MON forcing_fv_max               =   2.9545018795452E-01
(PID.TID 0000.0001) %MON forcing_fv_min               =  -2.5859074774980E-01
(PID.TID 0000.0001) %MON forcing_fv_mean              =  -1.5527176469200E-02
(PID.TID 0000.0001) %MON forcing_fv_sd                =   6.0219709860445E-02
(PID.TID 0000.0001) %MON forcing_fv_del2              =   5.2893489761837E-04
(PID.TID 0000.0001) %MON trAdv_CFL_u_max              =   2.3967574821111E-03
(PID.TID 0000.0001) %MON trAdv_CFL_v_max              =   1.6505637287435E-03
(PID.TID 0000.0001) %MON trAdv_CFL_w_max              =   1.7749585603804E-03
(PID.TID 0000.0001) %MON advcfl_uvel_max              =   2.3748236363399E-03
(PID.TID 0000.0001) %MON advcfl_vvel_max              =   1.6389604387143E-03
(PID.TID 0000.0001) %MON advcfl_wvel_max              =   2.7710867964703E-03
(PID.TID 0000.0001) %MON advcfl_W_hf_max              =   1.7749585603804E-03
(PID.TID 0000.0001) %MON pe_b_mean                    =   4.9968576722985E-04
(PID.TID 0000.0001) %MON ke_max                       =   2.4945683837801E-01
(PID.TID 0000.0001) %MON ke_mean                      =   1.6569022129853E-04
(PID.TID 0000.0001) %MON ke_vol                       =   1.3398134139985E+18
(PID.TID 0000.0001) %MON vort_r_min                   =  -4.4582589972228E-06
(PID.TID 0000.0001) %MON vort_r_max                   =   2.3261709507840E-06
(PID.TID 0000.0001) %MON vort_a_mean                  =  -2.0549865324846E-05
(PID.TID 0000.0001) %MON vort_a_sd                    =   7.5259737603861E-05
(PID.TID 0000.0001) %MON vort_p_mean                  =  -2.4783263363371E-05
(PID.TID 0000.0001) %MON vort_p_sd                    =   1.2811929315453E-04
(PID.TID 0000.0001) %MON surfExpan_theta_mean         =  -6.3543034282312E-06
(PID.TID 0000.0001) %MON surfExpan_salt_mean          =   1.2755301495053E-06
(PID.TID 0000.0001) // =======================================================
(PID.TID 0000.0001) // End MONITOR dynamic field statistics
(PID.TID 0000.0001) // =======================================================
 cg2d: Sum(rhs),rhsMax =  -7.23688678526524E+01  3.63219766247471E+01
(PID.TID 0000.0001)      cg2d_init_res =   2.36689069569637E-01
(PID.TID 0000.0001)      cg2d_iters(min,last) =      -1      10
(PID.TID 0000.0001)      cg2d_last_res =   6.08979560348779E-08
(PID.TID 0000.0001) // =======================================================
(PID.TID 0000.0001) // Begin MONITOR dynamic field statistics
(PID.TID 0000.0001) // =======================================================
(PID.TID 0000.0001) %MON time_tsnumber                =                 72069
(PID.TID 0000.0001) %MON time_secondsf                =   6.4862100000000E+07
(PID.TID 0000.0001) %MON dynstat_eta_max              =   1.1137211416727E+00
(PID.TID 0000.0001) %MON dynstat_eta_min              =  -1.8657246112715E+00
(PID.TID 0000.0001) %MON dynstat_eta_mean             =   3.0543754921295E-02
(PID.TID 0000.0001) %MON dynstat_eta_sd               =   6.1175318069794E-01
(PID.TID 0000.0001) %MON dynstat_eta_del2             =   1.5645777416629E-03
(PID.TID 0000.0001) %MON dynstat_uvel_max             =   5.3622909275721E-01
(PID.TID 0000.0001) %MON dynstat_uvel_min             =  -8.1281220636269E-01
(PID.TID 0000.0001) %MON dynstat_uvel_mean            =  -2.8947945557761E-04
(PID.TID 0000.0001) %MON dynstat_uvel_sd              =   1.3107959591541E-02
(PID.TID 0000.0001) %MON dynstat_uvel_del2            =   9.1253335012708E-05
(PID.TID 0000.0001) %MON dynstat_vvel_max             =   3.2734568324012E-01
(PID.TID 0000.0001) %MON dynstat_vvel_min             =  -5.3522608931269E-01
(PID.TID 0000.0001) %MON dynstat_vvel_mean            =   4.9371650883296E-04
(PID.TID 0000.0001) %MON dynstat_vvel_sd              =   1.3643461906989E-02
(PID.TID 0000.0001) %MON dynstat_vvel_del2            =   8.9713617180545E-05
(PID.TID 0000.0001) %MON dynstat_wvel_max             =   1.0370265952698E-04
(PID.TID 0000.0001) %MON dynstat_wvel_min             =  -1.8059138408141E-04
(PID.TID 0000.0001) %MON dynstat_wvel_mean            =  -1.8249029456082E-07
(PID.TID 0000.0001) %MON dynstat_wvel_sd              =   7.7215449351114E-06
(PID.TID 0000.0001) %MON dynstat_wvel_del2            =   6.9149009002222E-08
(PID.TID 0000.0001) %MON dynstat_theta_max            =   3.0935634906589E+01
(PID.TID 0000.0001) %MON dynstat_theta_min            =  -3.0082908662757E+00
(PID.TID 0000.0001) %MON dynstat_theta_mean           =   3.9092414400826E+00
(PID.TID 0000.0001) %MON dynstat_theta_sd             =   4.5717122934376E+00
(PID.TID 0000.0001) %MON dynstat_theta_del2           =   2.6429485379433E-03
(PID.TID 0000.0001) %MON dynstat_salt_max             =   4.1347323211060E+01
(PID.TID 0000.0001) %MON dynstat_salt_min             =   1.8519070920958E+01
(PID.TID 0000.0001) %MON dynstat_salt_mean            =   3.4771931281812E+01
(PID.TID 0000.0001) %MON dynstat_salt_sd              =   5.3207778102090E-01
(PID.TID 0000.0001) %MON dynstat_salt_del2            =   1.0941735407821E-03
(PID.TID 0000.0001) %MON dynstat_sst_max              =   3.0935634906589E+01
(PID.TID 0000.0001) %MON dynstat_sst_min              =  -1.8989983323808E+00
(PID.TID 0000.0001) %MON dynstat_sst_mean             =   1.8112866587064E+01
(PID.TID 0000.0001) %MON dynstat_sst_sd               =   9.8111601671508E+00
(PID.TID 0000.0001) %MON dynstat_sst_del2             =   1.5077173115167E-02
(PID.TID 0000.0001) %MON dynstat_sss_max              =   4.1347323211060E+01
(PID.TID 0000.0001) %MON dynstat_sss_min              =   1.8752189903645E+01
(PID.TID 0000.0001) %MON dynstat_sss_mean             =   3.4622814054081E+01
(PID.TID 0000.0001) %MON dynstat_sss_sd               =   1.4857159031345E+00
(PID.TID 0000.0001) %MON dynstat_sss_del2             =   1.2306150802211E-02
(PID.TID 0000.0001) %MON forcing_qnet_max             =   1.7549240722656E+03
(PID.TID 0000.0001) %MON forcing_qnet_min             =  -4.3066855468750E+03
(PID.TID 0000.0001) %MON forcing_qnet_mean            =  -1.8956006729953E+01
(PID.TID 0000.0001) %MON forcing_qnet_sd              =   2.4387987427376E+02
(PID.TID 0000.0001) %MON forcing_qnet_del2            =   4.6936279524809E+00
(PID.TID 0000.0001) %MON forcing_qsw_max              =   0.0000000000000E+00
(PID.TID 0000.0001) %MON forcing_qsw_min              =  -4.3613201904504E+02
(PID.TID 0000.0001) %MON forcing_qsw_mean             =  -6.3022655652340E+01
(PID.TID 0000.0001) %MON forcing_qsw_sd               =   1.1079763097863E+02
(PID.TID 0000.0001) %MON forcing_qsw_del2             =   9.9945863414223E-01
(PID.TID 0000.0001) %MON forcing_empmr_max            =   5.4844338446856E-03
(PID.TID 0000.0001) %MON forcing_empmr_min            =  -7.8848116099834E-02
(PID.TID 0000.0001) %MON forcing_empmr_mean           =  -2.2911805138918E-04
(PID.TID 0000.0001) %MON forcing_empmr_sd             =   3.4697455808945E-03
(PID.TID 0000.0001) %MON forcing_empmr_del2           =   1.3689444275060E-04
(PID.TID 0000.0001) %MON forcing_fu_max               =   3.5361151184185E-01
(PID.TID 0000.0001) %MON forcing_fu_min               =  -3.7170958206951E-01
(PID.TID 0000.0001) %MON forcing_fu_mean              =  -2.1007598021671E-03
(PID.TID 0000.0001) %MON forcing_fu_sd                =   6.0800812428478E-02
(PID.TID 0000.0001) %MON forcing_fu_del2              =   6.0318205347183E-04
(PID.TID 0000.0001) %MON forcing_fv_max               =   2.9457357312722E-01
(PID.TID 0000.0001) %MON forcing_fv_min               =  -2.5714481045342E-01
(PID.TID 0000.0001) %MON forcing_fv_mean              =  -1.5497764670097E-02
(PID.TID 0000.0001) %MON forcing_fv_sd                =   6.0177617643067E-02
(PID.TID 0000.0001) %MON forcing_fv_del2              =   5.2843054772857E-04
(PID.TID 0000.0001) %MON trAdv_CFL_u_max              =   2.3862744593737E-03
(PID.TID 0000.0001) %MON trAdv_CFL_v_max              =   1.5777246388682E-03
(PID.TID 0000.0001) %MON trAdv_CFL_w_max              =   1.7489962637028E-03
(PID.TID 0000.0001) %MON advcfl_uvel_max              =   2.3620397124784E-03
(PID.TID 0000.0001) %MON advcfl_vvel_max              =   1.5648438540911E-03
(PID.TID 0000.0001) %MON advcfl_wvel_max              =   2.7425431686899E-03
(PID.TID 0000.0001) %MON advcfl_W_hf_max              =   1.7489962637028E-03
(PID.TID 0000.0001) %MON pe_b_mean                    =   4.9979814534688E-04
(PID.TID 0000.0001) %MON ke_max                       =   2.4146118206252E-01
(PID.TID 0000.0001) %MON ke_mean                      =   1.6544643586291E-04
(PID.TID 0000.0001) %MON ke_vol                       =   1.3398134873318E+18
(PID.TID 0000.0001) %MON vort_r_min                   =  -4.3622558371106E-06
(PID.TID 0000.0001) %MON vort_r_max                   =   2.2493432469023E-06
(PID.TID 0000.0001) %MON vort_a_mean                  =  -2.0549865324846E-05
(PID.TID 0000.0001) %MON vort_a_sd                    =   7.5259735103042E-05
(PID.TID 0000.0001) %MON vort_p_mean                  =  -2.4783261803271E-05
(PID.TID 0000.0001) %MON vort_p_sd                    =   1.2811930436692E-04
(PID.TID 0000.0001) %MON surfExpan_theta_mean         =  -6.2997535282593E-06
(PID.TID 0000.0001) %MON surfExpan_salt_mean          =   1.2625169915981E-06
(PID.TID 0000.0001) // =======================================================
(PID.TID 0000.0001) // End MONITOR dynamic field statistics
(PID.TID 0000.0001) // =======================================================
 cg2d: Sum(rhs),rhsMax =  -7.29306118143942E+01  3.62754274356391E+01
(PID.TID 0000.0001)      cg2d_init_res =   2.25863408126750E-01
(PID.TID 0000.0001)      cg2d_iters(min,last) =      -1      10
(PID.TID 0000.0001)      cg2d_last_res =   7.61295632809644E-08
(PID.TID 0000.0001) // =======================================================
(PID.TID 0000.0001) // Begin MONITOR dynamic field statistics
(PID.TID 0000.0001) // =======================================================
(PID.TID 0000.0001) %MON time_tsnumber                =                 72070
(PID.TID 0000.0001) %MON time_secondsf                =   6.4863000000000E+07
(PID.TID 0000.0001) %MON dynstat_eta_max              =   1.1574670668231E+00
(PID.TID 0000.0001) %MON dynstat_eta_min              =  -1.9759195145202E+00
(PID.TID 0000.0001) %MON dynstat_eta_mean             =   3.0741394808625E-02
(PID.TID 0000.0001) %MON dynstat_eta_sd               =   6.1181621229969E-01
(PID.TID 0000.0001) %MON dynstat_eta_del2             =   1.6117914313893E-03
(PID.TID 0000.0001) %MON dynstat_uvel_max             =   5.1452657976724E-01
(PID.TID 0000.0001) %MON dynstat_uvel_min             =  -8.0506705151067E-01
(PID.TID 0000.0001) %MON dynstat_uvel_mean            =  -2.9123452912919E-04
(PID.TID 0000.0001) %MON dynstat_uvel_sd              =   1.3105898762529E-02
(PID.TID 0000.0001) %MON dynstat_uvel_del2            =   9.0232376148557E-05
(PID.TID 0000.0001) %MON dynstat_vvel_max             =   3.1344695191747E-01
(PID.TID 0000.0001) %MON dynstat_vvel_min             =  -5.0705862067514E-01
(PID.TID 0000.0001) %MON dynstat_vvel_mean            =   4.7761432508344E-04
(PID.TID 0000.0001) %MON dynstat_vvel_sd              =   1.3627038770023E-02
(PID.TID 0000.0001) %MON dynstat_vvel_del2            =   8.7769025095931E-05
(PID.TID 0000.0001) %MON dynstat_wvel_max             =   1.0342704508949E-04
(PID.TID 0000.0001) %MON dynstat_wvel_min             =  -1.8068233308506E-04
(PID.TID 0000.0001) %MON dynstat_wvel_mean            =  -1.7261577874160E-07
(PID.TID 0000.0001) %MON dynstat_wvel_sd              =   7.7058452193354E-06
(PID.TID 0000.0001) %MON dynstat_wvel_del2            =   6.8788191362615E-08
(PID.TID 0000.0001) %MON dynstat_theta_max            =   3.0935390318763E+01
(PID.TID 0000.0001) %MON dynstat_theta_min            =  -3.0085470467702E+00
(PID.TID 0000.0001) %MON dynstat_theta_mean           =   3.9092438897356E+00
(PID.TID 0000.0001) %MON dynstat_theta_sd             =   4.5717201392208E+00
(PID.TID 0000.0001) %MON dynstat_theta_del2           =   2.6428472877642E-03
(PID.TID 0000.0001) %MON dynstat_salt_max             =   4.1347268390919E+01
(PID.TID 0000.0001) %MON dynstat_salt_min             =   1.8519080957290E+01
(PID.TID 0000.0001) %MON dynstat_salt_mean            =   3.4771929340417E+01
(PID.TID 0000.0001) %MON dynstat_salt_sd              =   5.3209050511616E-01
(PID.TID 0000.0001) %MON dynstat_salt_del2            =   1.0971470133009E-03
(PID.TID 0000.0001) %MON dynstat_sst_max              =   3.0935390318763E+01
(PID.TID 0000.0001) %MON dynstat_sst_min              =  -1.8990826532986E+00
(PID.TID 0000.0001) %MON dynstat_sst_mean             =   1.8112942404383E+01
(PID.TID 0000.0001) %MON dynstat_sst_sd               =   9.8112367000395E+00
(PID.TID 0000.0001) %MON dynstat_sst_del2             =   1.5075590100065E-02
(PID.TID 0000.0001) %MON dynstat_sss_max              =   4.1347268390919E+01
(PID.TID 0000.0001) %MON dynstat_sss_min              =   1.8752203529088E+01
(PID.TID 0000.0001) %MON dynstat_sss_mean             =   3.4622667096090E+01
(PID.TID 0000.0001) %MON dynstat_sss_sd               =   1.4860424465523E+00
(PID.TID 0000.0001) %MON dynstat_sss_del2             =   1.2347927167320E-02
(PID.TID 0000.0001) %MON forcing_qnet_max             =   1.7343142089844E+03
(PID.TID 0000.0001) %MON forcing_qnet_min             =  -1.0226751708984E+03
(PID.TID 0000.0001) %MON forcing_qnet_mean            =  -1.9646291601076E+01
(PID.TID 0000.0001) %MON forcing_qnet_sd              =   2.3369376208692E+02
(PID.TID 0000.0001) %MON forcing_qnet_del2            =   3.2472104244499E+00
(PID.TID 0000.0001) %MON forcing_qsw_max              =   0.0000000000000E+00
(PID.TID 0000.0001) %MON forcing_qsw_min              =  -4.3451958287095E+02
(PID.TID 0000.0001) %MON forcing_qsw_mean             =  -6.3814309356793E+01
(PID.TID 0000.0001) %MON forcing_qsw_sd               =   1.1110061759479E+02
(PID.TID 0000.0001) %MON forcing_qsw_del2             =   1.0080980456971E+00
(PID.TID 0000.0001) %MON forcing_empmr_max            =   5.4279495961964E-03
(PID.TID 0000.0001) %MON forcing_empmr_min            =  -7.8035883605480E-02
(PID.TID 0000.0001) %MON forcing_empmr_mean           =  -2.2728587043010E-04
(PID.TID 0000.0001) %MON forcing_empmr_sd             =   3.4341690187750E-03
(PID.TID 0000.0001) %MON forcing_empmr_del2           =   1.3546655631315E-04
(PID.TID 0000.0001) %MON forcing_fu_max               =   3.4894068627220E-01
(PID.TID 0000.0001) %MON forcing_fu_min               =  -3.7184340090707E-01
(PID.TID 0000.0001) %MON forcing_fu_mean              =  -2.1080404046959E-03
(PID.TID 0000.0001) %MON forcing_fu_sd                =   6.0653040845533E-02
(PID.TID 0000.0001) %MON forcing_fu_del2              =   6.0141376198508E-04
(PID.TID 0000.0001) %MON forcing_fv_max               =   2.9469919138286E-01
(PID.TID 0000.0001) %MON forcing_fv_min               =  -2.5615071845837E-01
(PID.TID 0000.0001) %MON forcing_fv_mean              =  -1.5450234390038E-02
(PID.TID 0000.0001) %MON forcing_fv_sd                =   6.0128980278337E-02
(PID.TID 0000.0001) %MON forcing_fv_del2              =   5.2768640328004E-04
(PID.TID 0000.0001) %MON trAdv_CFL_u_max              =   2.3659381406243E-03
(PID.TID 0000.0001) %MON trAdv_CFL_v_max              =   1.4962574038866E-03
(PID.TID 0000.0001) %MON trAdv_CFL_w_max              =   1.7183571364741E-03
(PID.TID 0000.0001) %MON advcfl_uvel_max              =   2.3395322215764E-03
(PID.TID 0000.0001) %MON advcfl_vvel_max              =   1.4824904504306E-03
(PID.TID 0000.0001) %MON advcfl_wvel_max              =   2.7142916036689E-03
(PID.TID 0000.0001) %MON advcfl_W_hf_max              =   1.7183571364741E-03
(PID.TID 0000.0001) %MON pe_b_mean                    =   4.9991699606385E-04
(PID.TID 0000.0001) %MON ke_max                       =   2.3166069520788E-01
(PID.TID 0000.0001) %MON ke_mean                      =   1.6520707206243E-04
(PID.TID 0000.0001) %MON ke_vol                       =   1.3398135598301E+18
(PID.TID 0000.0001) %MON vort_r_min                   =  -4.2463155747489E-06
(PID.TID 0000.0001) %MON vort_r_max                   =   2.2017607081015E-06
(PID.TID 0000.0001) %MON vort_a_mean                  =  -2.0549865324846E-05
(PID.TID 0000.0001) %MON vort_a_sd                    =   7.5259732088389E-05
(PID.TID 0000.0001) %MON vort_p_mean                  =  -2.4783260265700E-05
(PID.TID 0000.0001) %MON vort_p_sd                    =   1.2811931185782E-04
(PID.TID 0000.0001) %MON surfExpan_theta_mean         =  -6.2642071955989E-06
(PID.TID 0000.0001) %MON surfExpan_salt_mean          =   1.2491312497145E-06
(PID.TID 0000.0001) // =======================================================
(PID.TID 0000.0001) // End MONITOR dynamic field statistics
(PID.TID 0000.0001) // =======================================================
 cg2d: Sum(rhs),rhsMax =  -7.30543132259635E+01  3.64446227117716E+01
(PID.TID 0000.0001)      cg2d_init_res =   2.14762426390228E-01
(PID.TID 0000.0001)      cg2d_iters(min,last) =      -1      10
(PID.TID 0000.0001)      cg2d_last_res =   8.40758540686651E-08
(PID.TID 0000.0001) // =======================================================
(PID.TID 0000.0001) // Begin MONITOR dynamic field statistics
(PID.TID 0000.0001) // =======================================================
(PID.TID 0000.0001) %MON time_tsnumber                =                 72071
(PID.TID 0000.0001) %MON time_secondsf                =   6.4863900000000E+07
(PID.TID 0000.0001) %MON dynstat_eta_max              =   1.1963334702868E+00
(PID.TID 0000.0001) %MON dynstat_eta_min              =  -2.0532776441973E+00
(PID.TID 0000.0001) %MON dynstat_eta_mean             =   3.0937163619256E-02
(PID.TID 0000.0001) %MON dynstat_eta_sd               =   6.1187540298753E-01
(PID.TID 0000.0001) %MON dynstat_eta_del2             =   1.6526912020048E-03
(PID.TID 0000.0001) %MON dynstat_uvel_max             =   4.8700929937268E-01
(PID.TID 0000.0001) %MON dynstat_uvel_min             =  -7.9394460124024E-01
(PID.TID 0000.0001) %MON dynstat_uvel_mean            =  -2.9478922226298E-04
(PID.TID 0000.0001) %MON dynstat_uvel_sd              =   1.3100432597102E-02
(PID.TID 0000.0001) %MON dynstat_uvel_del2            =   8.9235579576770E-05
(PID.TID 0000.0001) %MON dynstat_vvel_max             =   2.9876574376345E-01
(PID.TID 0000.0001) %MON dynstat_vvel_min             =  -4.7625387175413E-01
(PID.TID 0000.0001) %MON dynstat_vvel_mean            =   4.6007330152655E-04
(PID.TID 0000.0001) %MON dynstat_vvel_sd              =   1.3615030234270E-02
(PID.TID 0000.0001) %MON dynstat_vvel_del2            =   8.6065937273952E-05
(PID.TID 0000.0001) %MON dynstat_wvel_max             =   1.0317698123599E-04
(PID.TID 0000.0001) %MON dynstat_wvel_min             =  -1.8075764090210E-04
(PID.TID 0000.0001) %MON dynstat_wvel_mean            =  -1.6326582510318E-07
(PID.TID 0000.0001) %MON dynstat_wvel_sd              =   7.6938205459182E-06
(PID.TID 0000.0001) %MON dynstat_wvel_del2            =   6.8501974129398E-08
(PID.TID 0000.0001) %MON dynstat_theta_max            =   3.0935141092499E+01
(PID.TID 0000.0001) %MON dynstat_theta_min            =  -3.0088293731484E+00
(PID.TID 0000.0001) %MON dynstat_theta_mean           =   3.9092463873599E+00
(PID.TID 0000.0001) %MON dynstat_theta_sd             =   4.5717282080580E+00
(PID.TID 0000.0001) %MON dynstat_theta_del2           =   2.6427458796855E-03
(PID.TID 0000.0001) %MON dynstat_salt_max             =   4.1347218945535E+01
(PID.TID 0000.0001) %MON dynstat_salt_min             =   1.8519090972563E+01
(PID.TID 0000.0001) %MON dynstat_salt_mean            =   3.4771927429547E+01
(PID.TID 0000.0001) %MON dynstat_salt_sd              =   5.3210304888883E-01
(PID.TID 0000.0001) %MON dynstat_salt_del2            =   1.1000610133944E-03
(PID.TID 0000.0001) %MON dynstat_sst_max              =   3.0935141092499E+01
(PID.TID 0000.0001) %MON dynstat_sst_min              =  -1.8991506689724E+00
(PID.TID 0000.0001) %MON dynstat_sst_mean             =   1.8113021345402E+01
(PID.TID 0000.0001) %MON dynstat_sst_sd               =   9.8113162269542E+00
(PID.TID 0000.0001) %MON dynstat_sst_del2             =   1.5073986784049E-02
(PID.TID 0000.0001) %MON dynstat_sss_max              =   4.1347218945535E+01
(PID.TID 0000.0001) %MON dynstat_sss_min              =   1.8752216938426E+01
(PID.TID 0000.0001) %MON dynstat_sss_mean             =   3.4622522013309E+01
(PID.TID 0000.0001) %MON dynstat_sss_sd               =   1.4863643602525E+00
(PID.TID 0000.0001) %MON dynstat_sss_del2             =   1.2388841764185E-02
(PID.TID 0000.0001) %MON forcing_qnet_max             =   1.7149241943359E+03
(PID.TID 0000.0001) %MON forcing_qnet_min             =  -1.0089255371094E+03
(PID.TID 0000.0001) %MON forcing_qnet_mean            =  -2.0685443419567E+01
(PID.TID 0000.0001) %MON forcing_qnet_sd              =   2.3356893634004E+02
(PID.TID 0000.0001) %MON forcing_qnet_del2            =   3.3040333071778E+00
(PID.TID 0000.0001) %MON forcing_qsw_max              =   0.0000000000000E+00
(PID.TID 0000.0001) %MON forcing_qsw_min              =  -4.3173891190516E+02
(PID.TID 0000.0001) %MON forcing_qsw_mean             =  -6.4492265392711E+01
(PID.TID 0000.0001) %MON forcing_qsw_sd               =   1.1114537846833E+02
(PID.TID 0000.0001) %MON forcing_qsw_del2             =   1.0142177558059E+00
(PID.TID 0000.0001) %MON forcing_empmr_max            =   5.3720567375422E-03
(PID.TID 0000.0001) %MON forcing_empmr_min            =  -7.7232882380486E-02
(PID.TID 0000.0001) %MON forcing_empmr_mean           =  -2.2513413222567E-04
(PID.TID 0000.0001) %MON forcing_empmr_sd             =   3.3990259169576E-03
(PID.TID 0000.0001) %MON forcing_empmr_del2           =   1.3406452420371E-04
(PID.TID 0000.0001) %MON forcing_fu_max               =   3.4231888754980E-01
(PID.TID 0000.0001) %MON forcing_fu_min               =  -3.7130453329845E-01
(PID.TID 0000.0001) %MON forcing_fu_mean              =  -2.1389220362246E-03
(PID.TID 0000.0001) %MON forcing_fu_sd                =   6.0422016456740E-02
(PID.TID 0000.0001) %MON forcing_fu_del2              =   5.9953314184791E-04
(PID.TID 0000.0001) %MON forcing_fv_max               =   2.9492778605848E-01
(PID.TID 0000.0001) %MON forcing_fv_min               =  -2.5513737689502E-01
(PID.TID 0000.0001) %MON forcing_fv_mean              =  -1.5395606379607E-02
(PID.TID 0000.0001) %MON forcing_fv_sd                =   6.0106511441159E-02
(PID.TID 0000.0001) %MON forcing_fv_del2              =   5.2727479231465E-04
(PID.TID 0000.0001) %MON trAdv_CFL_u_max              =   2.3355936078180E-03
(PID.TID 0000.0001) %MON trAdv_CFL_v_max              =   1.4066848292476E-03
(PID.TID 0000.0001) %MON trAdv_CFL_w_max              =   1.6832696197915E-03
(PID.TID 0000.0001) %MON advcfl_uvel_max              =   2.3072102792714E-03
(PID.TID 0000.0001) %MON advcfl_vvel_max              =   1.3924264139638E-03
(PID.TID 0000.0001) %MON advcfl_wvel_max              =   2.6863611262778E-03
(PID.TID 0000.0001) %MON advcfl_W_hf_max              =   1.6832696197915E-03
(PID.TID 0000.0001) %MON pe_b_mean                    =   5.0002954574647E-04
(PID.TID 0000.0001) %MON ke_max                       =   2.2536594525514E-01
(PID.TID 0000.0001) %MON ke_mean                      =   1.6498284486806E-04
(PID.TID 0000.0001) %MON ke_vol                       =   1.3398136317486E+18
(PID.TID 0000.0001) %MON vort_r_min                   =  -4.1109170218584E-06
(PID.TID 0000.0001) %MON vort_r_max                   =   2.1538538021536E-06
(PID.TID 0000.0001) %MON vort_a_mean                  =  -2.0549865324846E-05
(PID.TID 0000.0001) %MON vort_a_sd                    =   7.5259728615568E-05
(PID.TID 0000.0001) %MON vort_p_mean                  =  -2.4783258743356E-05
(PID.TID 0000.0001) %MON vort_p_sd                    =   1.2811931624210E-04
(PID.TID 0000.0001) %MON surfExpan_theta_mean         =  -6.2236383223782E-06
(PID.TID 0000.0001) %MON surfExpan_salt_mean          =   1.2357401904484E-06
(PID.TID 0000.0001) // =======================================================
(PID.TID 0000.0001) // End MONITOR dynamic field statistics
(PID.TID 0000.0001) // =======================================================
 Computing Diagnostic #     81  oceTAUX      Counter:       1   Parms: UU      U1      
           Vector  Mate for  oceTAUX      Diagnostic #     82  oceTAUY  exists 
 Computing Diagnostic #     82  oceTAUY      Counter:       1   Parms: VV      U1      
           Vector  Mate for  oceTAUY      Diagnostic #     81  oceTAUX  exists 
 Computing Diagnostic #     85  oceFWflx     Counter:       1   Parms: SM      U1      
 Computing Diagnostic #     86  oceSflux     Counter:       1   Parms: SM      U1      
 Computing Diagnostic #     87  oceQnet      Counter:       1   Parms: SM      U1      
 Computing Diagnostic #     88  oceQsw       Counter:       1   Parms: SM      U1      
 Computing Diagnostic #     27  SALT         Counter:       1   Parms: SMR     MR      
 Computing Diagnostic #     26  THETA        Counter:       1   Parms: SMR     MR      
 Computing Diagnostic #     45  UVELMASS     Counter:       1   Parms: UUr     MR      
           Vector  Mate for  UVELMASS     Diagnostic #     46  VVELMASS exists 
 Computing Diagnostic #     46  VVELMASS     Counter:       1   Parms: VVr     MR      
           Vector  Mate for  VVELMASS     Diagnostic #     45  UVELMASS exists 
 cg2d: Sum(rhs),rhsMax =  -7.19512736273143E+01  3.72361569363888E+01
(PID.TID 0000.0001)      cg2d_init_res =   2.01528421456105E-01
(PID.TID 0000.0001)      cg2d_iters(min,last) =      -1      10
(PID.TID 0000.0001)      cg2d_last_res =   8.57947892526000E-08
(PID.TID 0000.0001) // =======================================================
(PID.TID 0000.0001) // Begin MONITOR dynamic field statistics
(PID.TID 0000.0001) // =======================================================
(PID.TID 0000.0001) %MON time_tsnumber                =                 72072
(PID.TID 0000.0001) %MON time_secondsf                =   6.4864800000000E+07
(PID.TID 0000.0001) %MON dynstat_eta_max              =   1.2299048414720E+00
(PID.TID 0000.0001) %MON dynstat_eta_min              =  -2.0980710992133E+00
(PID.TID 0000.0001) %MON dynstat_eta_mean             =   3.1131820028533E-02
(PID.TID 0000.0001) %MON dynstat_eta_sd               =   6.1192502152747E-01
(PID.TID 0000.0001) %MON dynstat_eta_del2             =   1.6849265416838E-03
(PID.TID 0000.0001) %MON dynstat_uvel_max             =   4.5422644038328E-01
(PID.TID 0000.0001) %MON dynstat_uvel_min             =  -7.7945834531817E-01
(PID.TID 0000.0001) %MON dynstat_uvel_mean            =  -3.0009085155544E-04
(PID.TID 0000.0001) %MON dynstat_uvel_sd              =   1.3092111643955E-02
(PID.TID 0000.0001) %MON dynstat_uvel_del2            =   8.8286175799460E-05
(PID.TID 0000.0001) %MON dynstat_vvel_max             =   2.8343006165021E-01
(PID.TID 0000.0001) %MON dynstat_vvel_min             =  -4.4301518366666E-01
(PID.TID 0000.0001) %MON dynstat_vvel_mean            =   4.4131039391589E-04
(PID.TID 0000.0001) %MON dynstat_vvel_sd              =   1.3607535613508E-02
(PID.TID 0000.0001) %MON dynstat_vvel_del2            =   8.4695379283265E-05
(PID.TID 0000.0001) %MON dynstat_wvel_max             =   1.0295357357554E-04
(PID.TID 0000.0001) %MON dynstat_wvel_min             =  -1.8082722451042E-04
(PID.TID 0000.0001) %MON dynstat_wvel_mean            =  -1.5460492318197E-07
(PID.TID 0000.0001) %MON dynstat_wvel_sd              =   7.6843410389803E-06
(PID.TID 0000.0001) %MON dynstat_wvel_del2            =   6.8278902042442E-08
(PID.TID 0000.0001) %MON dynstat_theta_max            =   3.0934885871556E+01
(PID.TID 0000.0001) %MON dynstat_theta_min            =  -3.0091394153787E+00
(PID.TID 0000.0001) %MON dynstat_theta_mean           =   3.9092489201401E+00
(PID.TID 0000.0001) %MON dynstat_theta_sd             =   4.5717364909340E+00
(PID.TID 0000.0001) %MON dynstat_theta_del2           =   2.6426461138080E-03
(PID.TID 0000.0001) %MON dynstat_salt_max             =   4.1347173694366E+01
(PID.TID 0000.0001) %MON dynstat_salt_min             =   1.8519100967368E+01
(PID.TID 0000.0001) %MON dynstat_salt_mean            =   3.4771925540974E+01
(PID.TID 0000.0001) %MON dynstat_salt_sd              =   5.3211541263302E-01
(PID.TID 0000.0001) %MON dynstat_salt_del2            =   1.1029165104244E-03
(PID.TID 0000.0001) %MON dynstat_sst_max              =   3.0934885871556E+01
(PID.TID 0000.0001) %MON dynstat_sst_min              =  -1.8992024290580E+00
(PID.TID 0000.0001) %MON dynstat_sst_mean             =   1.8113102381130E+01
(PID.TID 0000.0001) %MON dynstat_sst_sd               =   9.8113998494247E+00
(PID.TID 0000.0001) %MON dynstat_sst_del2             =   1.5072414979303E-02
(PID.TID 0000.0001) %MON dynstat_sss_max              =   4.1347173694366E+01
(PID.TID 0000.0001) %MON dynstat_sss_min              =   1.8752230216472E+01
(PID.TID 0000.0001) %MON dynstat_sss_mean             =   3.4622378274134E+01
(PID.TID 0000.0001) %MON dynstat_sss_sd               =   1.4866815538625E+00
(PID.TID 0000.0001) %MON dynstat_sss_del2             =   1.2428909711381E-02
(PID.TID 0000.0001) %MON forcing_qnet_max             =   1.6957650146484E+03
(PID.TID 0000.0001) %MON forcing_qnet_min             =  -9.9638183593750E+02
(PID.TID 0000.0001) %MON forcing_qnet_mean            =  -2.1430793160113E+01
(PID.TID 0000.0001) %MON forcing_qnet_sd              =   2.3296081788362E+02
(PID.TID 0000.0001) %MON forcing_qnet_del2            =   3.3612003535748E+00
(PID.TID 0000.0001) %MON forcing_qsw_max              =   0.0000000000000E+00
(PID.TID 0000.0001) %MON forcing_qsw_min              =  -4.3354083331932E+02
(PID.TID 0000.0001) %MON forcing_qsw_mean             =  -6.5048604163033E+01
(PID.TID 0000.0001) %MON forcing_qsw_sd               =   1.1093259567435E+02
(PID.TID 0000.0001) %MON forcing_qsw_del2             =   1.0176807631917E+00
(PID.TID 0000.0001) %MON forcing_empmr_max            =   5.3167534060776E-03
(PID.TID 0000.0001) %MON forcing_empmr_min            =  -7.6437421143055E-02
(PID.TID 0000.0001) %MON forcing_empmr_mean           =  -2.2385487066816E-04
(PID.TID 0000.0001) %MON forcing_empmr_sd             =   3.3642256404226E-03
(PID.TID 0000.0001) %MON forcing_empmr_del2           =   1.3266899360266E-04
(PID.TID 0000.0001) %MON forcing_fu_max               =   3.3364311197060E-01
(PID.TID 0000.0001) %MON forcing_fu_min               =  -3.6943236989954E-01
(PID.TID 0000.0001) %MON forcing_fu_mean              =  -2.1802880213663E-03
(PID.TID 0000.0001) %MON forcing_fu_sd                =   6.0143418688553E-02
(PID.TID 0000.0001) %MON forcing_fu_del2              =   5.9753323506266E-04
(PID.TID 0000.0001) %MON forcing_fv_max               =   2.9532065997906E-01
(PID.TID 0000.0001) %MON forcing_fv_min               =  -2.5427591127207E-01
(PID.TID 0000.0001) %MON forcing_fv_mean              =  -1.5332069001333E-02
(PID.TID 0000.0001) %MON forcing_fv_sd                =   6.0053964219343E-02
(PID.TID 0000.0001) %MON forcing_fv_del2              =   5.2645428409217E-04
(PID.TID 0000.0001) %MON trAdv_CFL_u_max              =   2.2952192649846E-03
(PID.TID 0000.0001) %MON trAdv_CFL_v_max              =   1.3096086882408E-03
(PID.TID 0000.0001) %MON trAdv_CFL_w_max              =   1.6439718482897E-03
(PID.TID 0000.0001) %MON advcfl_uvel_max              =   2.2651130869493E-03
(PID.TID 0000.0001) %MON advcfl_vvel_max              =   1.2952462543820E-03
(PID.TID 0000.0001) %MON advcfl_wvel_max              =   2.6586929093237E-03
(PID.TID 0000.0001) %MON advcfl_W_hf_max              =   1.6439718482897E-03
(PID.TID 0000.0001) %MON pe_b_mean                    =   5.0012650847971E-04
(PID.TID 0000.0001) %MON ke_max                       =   2.2521351233798E-01
(PID.TID 0000.0001) %MON ke_mean                      =   1.6478169582941E-04
(PID.TID 0000.0001) %MON ke_vol                       =   1.3398137029863E+18
(PID.TID 0000.0001) %MON vort_r_min                   =  -3.9567595416446E-06
(PID.TID 0000.0001) %MON vort_r_max                   =   2.1057154121848E-06
(PID.TID 0000.0001) %MON vort_a_mean                  =  -2.0549865324846E-05
(PID.TID 0000.0001) %MON vort_a_sd                    =   7.5259724741219E-05
(PID.TID 0000.0001) %MON vort_p_mean                  =  -2.4783257238603E-05
(PID.TID 0000.0001) %MON vort_p_sd                    =   1.2811931817618E-04
(PID.TID 0000.0001) %MON surfExpan_theta_mean         =  -6.1930341414455E-06
(PID.TID 0000.0001) %MON surfExpan_salt_mean          =   1.2224151612542E-06
(PID.TID 0000.0001) // =======================================================
(PID.TID 0000.0001) // End MONITOR dynamic field statistics
(PID.TID 0000.0001) // =======================================================
 cg2d: Sum(rhs),rhsMax =  -7.19583680440506E+01  3.74626445985143E+01
(PID.TID 0000.0001)      cg2d_init_res =   1.92914182519735E-01
(PID.TID 0000.0001)      cg2d_iters(min,last) =      -1      10
(PID.TID 0000.0001)      cg2d_last_res =   8.64591820147089E-08
(PID.TID 0000.0001) // =======================================================
(PID.TID 0000.0001) // Begin MONITOR dynamic field statistics
(PID.TID 0000.0001) // =======================================================
(PID.TID 0000.0001) %MON time_tsnumber                =                 72073
(PID.TID 0000.0001) %MON time_secondsf                =   6.4865700000000E+07
(PID.TID 0000.0001) %MON dynstat_eta_max              =   1.2577938791092E+00
(PID.TID 0000.0001) %MON dynstat_eta_min              =  -2.1110501626944E+00
(PID.TID 0000.0001) %MON dynstat_eta_mean             =   3.1324266545763E-02
(PID.TID 0000.0001) %MON dynstat_eta_sd               =   6.1195897126637E-01
(PID.TID 0000.0001) %MON dynstat_eta_del2             =   1.7068583726056E-03
(PID.TID 0000.0001) %MON dynstat_uvel_max             =   4.1678820685475E-01
(PID.TID 0000.0001) %MON dynstat_uvel_min             =  -7.6166654908769E-01
(PID.TID 0000.0001) %MON dynstat_uvel_mean            =  -3.0706333303970E-04
(PID.TID 0000.0001) %MON dynstat_uvel_sd              =   1.3081596440201E-02
(PID.TID 0000.0001) %MON dynstat_uvel_del2            =   8.7406178435804E-05
(PID.TID 0000.0001) %MON dynstat_vvel_max             =   2.7076590113329E-01
(PID.TID 0000.0001) %MON dynstat_vvel_min             =  -4.0756680043465E-01
(PID.TID 0000.0001) %MON dynstat_vvel_mean            =   4.2150376990499E-04
(PID.TID 0000.0001) %MON dynstat_vvel_sd              =   1.3604459227560E-02
(PID.TID 0000.0001) %MON dynstat_vvel_del2            =   8.3718126599669E-05
(PID.TID 0000.0001) %MON dynstat_wvel_max             =   1.0749224748893E-04
(PID.TID 0000.0001) %MON dynstat_wvel_min             =  -1.8088758447994E-04
(PID.TID 0000.0001) %MON dynstat_wvel_mean            =  -1.4500496762167E-07
(PID.TID 0000.0001) %MON dynstat_wvel_sd              =   7.6768429411129E-06
(PID.TID 0000.0001) %MON dynstat_wvel_del2            =   6.8105457216514E-08
(PID.TID 0000.0001) %MON dynstat_theta_max            =   3.0934624403824E+01
(PID.TID 0000.0001) %MON dynstat_theta_min            =  -3.0094778255193E+00
(PID.TID 0000.0001) %MON dynstat_theta_mean           =   3.9092516201373E+00
(PID.TID 0000.0001) %MON dynstat_theta_sd             =   4.5717456472141E+00
(PID.TID 0000.0001) %MON dynstat_theta_del2           =   2.6425475974465E-03
(PID.TID 0000.0001) %MON dynstat_salt_max             =   4.1347131360689E+01
(PID.TID 0000.0001) %MON dynstat_salt_min             =   1.8519110943168E+01
(PID.TID 0000.0001) %MON dynstat_salt_mean            =   3.4771923685039E+01
(PID.TID 0000.0001) %MON dynstat_salt_sd              =   5.3212759237672E-01
(PID.TID 0000.0001) %MON dynstat_salt_del2            =   1.1057143398869E-03
(PID.TID 0000.0001) %MON dynstat_sst_max              =   3.0934624403824E+01
(PID.TID 0000.0001) %MON dynstat_sst_min              =  -1.8992359956222E+00
(PID.TID 0000.0001) %MON dynstat_sst_mean             =   1.8113196184195E+01
(PID.TID 0000.0001) %MON dynstat_sst_sd               =   9.8114955899283E+00
(PID.TID 0000.0001) %MON dynstat_sst_del2             =   1.5070865464166E-02
(PID.TID 0000.0001) %MON dynstat_sss_max              =   4.1347131360689E+01
(PID.TID 0000.0001) %MON dynstat_sss_min              =   1.8752243447095E+01
(PID.TID 0000.0001) %MON dynstat_sss_mean             =   3.4622236698851E+01
(PID.TID 0000.0001) %MON dynstat_sss_sd               =   1.4869939522639E+00
(PID.TID 0000.0001) %MON dynstat_sss_del2             =   1.2468144432708E-02
(PID.TID 0000.0001) %MON forcing_qnet_max             =   1.6758808593750E+03
(PID.TID 0000.0001) %MON forcing_qnet_min             =  -1.0080775756836E+03
(PID.TID 0000.0001) %MON forcing_qnet_mean            =  -2.4668866628441E+01
(PID.TID 0000.0001) %MON forcing_qnet_sd              =   2.3210843389830E+02
(PID.TID 0000.0001) %MON forcing_qnet_del2            =   3.5102307964733E+00
(PID.TID 0000.0001) %MON forcing_qsw_max              =   0.0000000000000E+00
(PID.TID 0000.0001) %MON forcing_qsw_min              =  -4.3187062156407E+02
(PID.TID 0000.0001) %MON forcing_qsw_mean             =  -6.6800108626991E+01
(PID.TID 0000.0001) %MON forcing_qsw_sd               =   1.1087489197076E+02
(PID.TID 0000.0001) %MON forcing_qsw_del2             =   1.0140637891073E+00
(PID.TID 0000.0001) %MON forcing_empmr_max            =   5.2619427442551E-03
(PID.TID 0000.0001) %MON forcing_empmr_min            =  -7.5650356709957E-02
(PID.TID 0000.0001) %MON forcing_empmr_mean           =  -2.2131349481400E-04
(PID.TID 0000.0001) %MON forcing_empmr_sd             =   3.3299120683053E-03
(PID.TID 0000.0001) %MON forcing_empmr_del2           =   1.3128753251052E-04
(PID.TID 0000.0001) %MON forcing_fu_max               =   3.2725723392776E-01
(PID.TID 0000.0001) %MON forcing_fu_min               =  -3.6639869526083E-01
(PID.TID 0000.0001) %MON forcing_fu_mean              =  -2.2088060445867E-03
(PID.TID 0000.0001) %MON forcing_fu_sd                =   5.9921092780081E-02
(PID.TID 0000.0001) %MON forcing_fu_del2              =   5.9548687903587E-04
(PID.TID 0000.0001) %MON forcing_fv_max               =   2.9325675842847E-01
(PID.TID 0000.0001) %MON forcing_fv_min               =  -2.5373277065121E-01
(PID.TID 0000.0001) %MON forcing_fv_mean              =  -1.5322968602197E-02
(PID.TID 0000.0001) %MON forcing_fv_sd                =   5.9969348707190E-02
(PID.TID 0000.0001) %MON forcing_fv_del2              =   5.2491563365663E-04
(PID.TID 0000.0001) %MON trAdv_CFL_u_max              =   2.2449296079745E-03
(PID.TID 0000.0001) %MON trAdv_CFL_v_max              =   1.2057018502036E-03
(PID.TID 0000.0001) %MON trAdv_CFL_w_max              =   1.6007545951856E-03
(PID.TID 0000.0001) %MON advcfl_uvel_max              =   2.2134099642307E-03
(PID.TID 0000.0001) %MON advcfl_vvel_max              =   1.1916055953302E-03
(PID.TID 0000.0001) %MON advcfl_wvel_max              =   2.6313167551289E-03
(PID.TID 0000.0001) %MON advcfl_W_hf_max              =   1.6007545951856E-03
(PID.TID 0000.0001) %MON pe_b_mean                    =   5.0019784657307E-04
(PID.TID 0000.0001) %MON ke_max                       =   2.2395859439619E-01
(PID.TID 0000.0001) %MON ke_mean                      =   1.6461046439365E-04
(PID.TID 0000.0001) %MON ke_vol                       =   1.3398137738192E+18
(PID.TID 0000.0001) %MON vort_r_min                   =  -3.7847551346611E-06
(PID.TID 0000.0001) %MON vort_r_max                   =   2.1182315992696E-06
(PID.TID 0000.0001) %MON vort_a_mean                  =  -2.0549865324846E-05
(PID.TID 0000.0001) %MON vort_a_sd                    =   7.5259720523521E-05
(PID.TID 0000.0001) %MON vort_p_mean                  =  -2.4783255748227E-05
(PID.TID 0000.0001) %MON vort_p_sd                    =   1.2811931822731E-04
(PID.TID 0000.0001) %MON surfExpan_theta_mean         =  -6.1220199784818E-06
(PID.TID 0000.0001) %MON surfExpan_salt_mean          =   1.2099850057528E-06
(PID.TID 0000.0001) // =======================================================
(PID.TID 0000.0001) // End MONITOR dynamic field statistics
(PID.TID 0000.0001) // =======================================================
 cg2d: Sum(rhs),rhsMax =  -7.30140886523014E+01  3.71453314434526E+01
(PID.TID 0000.0001)      cg2d_init_res =   1.88582791805472E-01
(PID.TID 0000.0001)      cg2d_iters(min,last) =      -1      10
(PID.TID 0000.0001)      cg2d_last_res =   8.73530502167516E-08
(PID.TID 0000.0001) // =======================================================
(PID.TID 0000.0001) // Begin MONITOR dynamic field statistics
(PID.TID 0000.0001) // =======================================================
(PID.TID 0000.0001) %MON time_tsnumber                =                 72074
(PID.TID 0000.0001) %MON time_secondsf                =   6.4866600000000E+07
(PID.TID 0000.0001) %MON dynstat_eta_max              =   1.2796490777570E+00
(PID.TID 0000.0001) %MON dynstat_eta_min              =  -2.0934072943118E+00
(PID.TID 0000.0001) %MON dynstat_eta_mean             =   3.1514620368378E-02
(PID.TID 0000.0001) %MON dynstat_eta_sd               =   6.1197447711479E-01
(PID.TID 0000.0001) %MON dynstat_eta_del2             =   1.7175065934253E-03
(PID.TID 0000.0001) %MON dynstat_uvel_max             =   3.7535367169878E-01
(PID.TID 0000.0001) %MON dynstat_uvel_min             =  -7.4067129873739E-01
(PID.TID 0000.0001) %MON dynstat_uvel_mean            =  -3.1562642666068E-04
(PID.TID 0000.0001) %MON dynstat_uvel_sd              =   1.3069409685107E-02
(PID.TID 0000.0001) %MON dynstat_uvel_del2            =   8.6614908689380E-05
(PID.TID 0000.0001) %MON dynstat_vvel_max             =   2.6840052223227E-01
(PID.TID 0000.0001) %MON dynstat_vvel_min             =  -3.7015539289029E-01
(PID.TID 0000.0001) %MON dynstat_vvel_mean            =   4.0086579605956E-04
(PID.TID 0000.0001) %MON dynstat_vvel_sd              =   1.3605574020157E-02
(PID.TID 0000.0001) %MON dynstat_vvel_del2            =   8.3159896171968E-05
(PID.TID 0000.0001) %MON dynstat_wvel_max             =   1.1333849526151E-04
(PID.TID 0000.0001) %MON dynstat_wvel_min             =  -1.8094266593593E-04
(PID.TID 0000.0001) %MON dynstat_wvel_mean            =  -1.3532516490332E-07
(PID.TID 0000.0001) %MON dynstat_wvel_sd              =   7.6700483892695E-06
(PID.TID 0000.0001) %MON dynstat_wvel_del2            =   6.7966553649691E-08
(PID.TID 0000.0001) %MON dynstat_theta_max            =   3.0934357627886E+01
(PID.TID 0000.0001) %MON dynstat_theta_min            =  -3.0098443685918E+00
(PID.TID 0000.0001) %MON dynstat_theta_mean           =   3.9092543931797E+00
(PID.TID 0000.0001) %MON dynstat_theta_sd             =   4.5717551892138E+00
(PID.TID 0000.0001) %MON dynstat_theta_del2           =   2.6424566213385E-03
(PID.TID 0000.0001) %MON dynstat_salt_max             =   4.1347091144929E+01
(PID.TID 0000.0001) %MON dynstat_salt_min             =   1.8519120902721E+01
(PID.TID 0000.0001) %MON dynstat_salt_mean            =   3.4771921865154E+01
(PID.TID 0000.0001) %MON dynstat_salt_sd              =   5.3213959039060E-01
(PID.TID 0000.0001) %MON dynstat_salt_del2            =   1.1084563695408E-03
(PID.TID 0000.0001) %MON dynstat_sst_max              =   3.0934357627886E+01
(PID.TID 0000.0001) %MON dynstat_sst_min              =  -1.8992508437903E+00
(PID.TID 0000.0001) %MON dynstat_sst_mean             =   1.8113297041110E+01
(PID.TID 0000.0001) %MON dynstat_sst_sd               =   9.8115976433526E+00
(PID.TID 0000.0001) %MON dynstat_sst_del2             =   1.5069468715482E-02
(PID.TID 0000.0001) %MON dynstat_sss_max              =   4.1347091144929E+01
(PID.TID 0000.0001) %MON dynstat_sss_min              =   1.8752256504719E+01
(PID.TID 0000.0001) %MON dynstat_sss_mean             =   3.4622098093519E+01
(PID.TID 0000.0001) %MON dynstat_sss_sd               =   1.4873015544044E+00
(PID.TID 0000.0001) %MON dynstat_sss_del2             =   1.2506576543213E-02
(PID.TID 0000.0001) %MON forcing_qnet_max             =   1.6571833496094E+03
(PID.TID 0000.0001) %MON forcing_qnet_min             =  -1.6147888183594E+03
(PID.TID 0000.0001) %MON forcing_qnet_mean            =  -2.6184261667572E+01
(PID.TID 0000.0001) %MON forcing_qnet_sd              =   2.3116888554163E+02
(PID.TID 0000.0001) %MON forcing_qnet_del2            =   3.7063010120599E+00
(PID.TID 0000.0001) %MON forcing_qsw_max              =   0.0000000000000E+00
(PID.TID 0000.0001) %MON forcing_qsw_min              =  -4.3330000646866E+02
(PID.TID 0000.0001) %MON forcing_qsw_mean             =  -6.7662482898173E+01
(PID.TID 0000.0001) %MON forcing_qsw_sd               =   1.1067207842890E+02
(PID.TID 0000.0001) %MON forcing_qsw_del2             =   1.0149384029901E+00
(PID.TID 0000.0001) %MON forcing_empmr_max            =   5.2077220752835E-03
(PID.TID 0000.0001) %MON forcing_empmr_min            =  -7.4871681630611E-02
(PID.TID 0000.0001) %MON forcing_empmr_mean           =  -2.1890689600736E-04
(PID.TID 0000.0001) %MON forcing_empmr_sd             =   3.2957988760615E-03
(PID.TID 0000.0001) %MON forcing_empmr_del2           =   1.2992033467499E-04
(PID.TID 0000.0001) %MON forcing_fu_max               =   3.2147082408566E-01
(PID.TID 0000.0001) %MON forcing_fu_min               =  -3.6866673678276E-01
(PID.TID 0000.0001) %MON forcing_fu_mean              =  -2.2588563595359E-03
(PID.TID 0000.0001) %MON forcing_fu_sd                =   5.9707948003989E-02
(PID.TID 0000.0001) %MON forcing_fu_del2              =   5.9409928758631E-04
(PID.TID 0000.0001) %MON forcing_fv_max               =   2.9644787164248E-01
(PID.TID 0000.0001) %MON forcing_fv_min               =  -2.5315960561352E-01
(PID.TID 0000.0001) %MON forcing_fv_mean              =  -1.5301270016993E-02
(PID.TID 0000.0001) %MON forcing_fv_sd                =   5.9988343970911E-02
(PID.TID 0000.0001) %MON forcing_fv_del2              =   5.2514131264751E-04
(PID.TID 0000.0001) %MON trAdv_CFL_u_max              =   2.1849749623352E-03
(PID.TID 0000.0001) %MON trAdv_CFL_v_max              =   1.1720584656886E-03
(PID.TID 0000.0001) %MON trAdv_CFL_w_max              =   1.5539573558462E-03
(PID.TID 0000.0001) %MON advcfl_uvel_max              =   2.1523975745143E-03
(PID.TID 0000.0001) %MON advcfl_vvel_max              =   1.1148844459056E-03
(PID.TID 0000.0001) %MON advcfl_wvel_max              =   2.6042324045430E-03
(PID.TID 0000.0001) %MON advcfl_W_hf_max              =   1.5539573558462E-03
(PID.TID 0000.0001) %MON pe_b_mean                    =   5.0023903754135E-04
(PID.TID 0000.0001) %MON ke_max                       =   2.2167306895818E-01
(PID.TID 0000.0001) %MON ke_mean                      =   1.6447273150494E-04
(PID.TID 0000.0001) %MON ke_vol                       =   1.3398138438479E+18
(PID.TID 0000.0001) %MON vort_r_min                   =  -3.5960302551751E-06
(PID.TID 0000.0001) %MON vort_r_max                   =   2.2117991411984E-06
(PID.TID 0000.0001) %MON vort_a_mean                  =  -2.0549865324846E-05
(PID.TID 0000.0001) %MON vort_a_sd                    =   7.5259716025668E-05
(PID.TID 0000.0001) %MON vort_p_mean                  =  -2.4783254283335E-05
(PID.TID 0000.0001) %MON vort_p_sd                    =   1.2811931691266E-04
(PID.TID 0000.0001) %MON surfExpan_theta_mean         =  -6.0493402828855E-06
(PID.TID 0000.0001) %MON surfExpan_salt_mean          =   1.1976755302283E-06
(PID.TID 0000.0001) // =======================================================
(PID.TID 0000.0001) // End MONITOR dynamic field statistics
(PID.TID 0000.0001) // =======================================================
 cg2d: Sum(rhs),rhsMax =  -7.51363755933315E+01  3.63125914961404E+01
(PID.TID 0000.0001)      cg2d_init_res =   1.88484766263189E-01
(PID.TID 0000.0001)      cg2d_iters(min,last) =      -1      10
(PID.TID 0000.0001)      cg2d_last_res =   8.85667164454783E-08
(PID.TID 0000.0001) // =======================================================
(PID.TID 0000.0001) // Begin MONITOR dynamic field statistics
(PID.TID 0000.0001) // =======================================================
(PID.TID 0000.0001) %MON time_tsnumber                =                 72075
(PID.TID 0000.0001) %MON time_secondsf                =   6.4867500000000E+07
(PID.TID 0000.0001) %MON dynstat_eta_max              =   1.2951618175709E+00
(PID.TID 0000.0001) %MON dynstat_eta_min              =  -2.0467378794132E+00
(PID.TID 0000.0001) %MON dynstat_eta_mean             =   3.1703605780579E-02
(PID.TID 0000.0001) %MON dynstat_eta_sd               =   6.1197008039867E-01
(PID.TID 0000.0001) %MON dynstat_eta_del2             =   1.7165131662224E-03
(PID.TID 0000.0001) %MON dynstat_uvel_max             =   3.3062249447371E-01
(PID.TID 0000.0001) %MON dynstat_uvel_min             =  -7.1661694100670E-01
(PID.TID 0000.0001) %MON dynstat_uvel_mean            =  -3.2566505098340E-04
(PID.TID 0000.0001) %MON dynstat_uvel_sd              =   1.3055917864526E-02
(PID.TID 0000.0001) %MON dynstat_uvel_del2            =   8.5925615872860E-05
(PID.TID 0000.0001) %MON dynstat_vvel_max             =   2.6415367710762E-01
(PID.TID 0000.0001) %MON dynstat_vvel_min             =  -3.3104723209553E-01
(PID.TID 0000.0001) %MON dynstat_vvel_mean            =   3.7959560728360E-04
(PID.TID 0000.0001) %MON dynstat_vvel_sd              =   1.3610396208092E-02
(PID.TID 0000.0001) %MON dynstat_vvel_del2            =   8.3007905986073E-05
(PID.TID 0000.0001) %MON dynstat_wvel_max             =   1.1799364174517E-04
(PID.TID 0000.0001) %MON dynstat_wvel_min             =  -1.8098474063132E-04
(PID.TID 0000.0001) %MON dynstat_wvel_mean            =  -1.2609353266869E-07
(PID.TID 0000.0001) %MON dynstat_wvel_sd              =   7.6640091842024E-06
(PID.TID 0000.0001) %MON dynstat_wvel_del2            =   6.7847309568961E-08
(PID.TID 0000.0001) %MON dynstat_theta_max            =   3.0934084128530E+01
(PID.TID 0000.0001) %MON dynstat_theta_min            =  -3.0102381135047E+00
(PID.TID 0000.0001) %MON dynstat_theta_mean           =   3.9092571928451E+00
(PID.TID 0000.0001) %MON dynstat_theta_sd             =   4.5717649130813E+00
(PID.TID 0000.0001) %MON dynstat_theta_del2           =   2.6423588086541E-03
(PID.TID 0000.0001) %MON dynstat_salt_max             =   4.1347052196130E+01
(PID.TID 0000.0001) %MON dynstat_salt_min             =   1.8519130848532E+01
(PID.TID 0000.0001) %MON dynstat_salt_mean            =   3.4771920066161E+01
(PID.TID 0000.0001) %MON dynstat_salt_sd              =   5.3215139647242E-01
(PID.TID 0000.0001) %MON dynstat_salt_del2            =   1.1111405133676E-03
(PID.TID 0000.0001) %MON dynstat_sst_max              =   3.0934084128530E+01
(PID.TID 0000.0001) %MON dynstat_sst_min              =  -1.8992467393474E+00
(PID.TID 0000.0001) %MON dynstat_sst_mean             =   1.8113398608553E+01
(PID.TID 0000.0001) %MON dynstat_sst_sd               =   9.8117027059684E+00
(PID.TID 0000.0001) %MON dynstat_sst_del2             =   1.5067898773788E-02
(PID.TID 0000.0001) %MON dynstat_sss_max              =   4.1347052196130E+01
(PID.TID 0000.0001) %MON dynstat_sss_min              =   1.8752269535396E+01
(PID.TID 0000.0001) %MON dynstat_sss_mean             =   3.4621960419232E+01
(PID.TID 0000.0001) %MON dynstat_sss_sd               =   1.4876039966820E+00
(PID.TID 0000.0001) %MON dynstat_sss_del2             =   1.2544173331073E-02
(PID.TID 0000.0001) %MON forcing_qnet_max             =   1.6377712402344E+03
(PID.TID 0000.0001) %MON forcing_qnet_min             =  -9.6127000071800E+02
(PID.TID 0000.0001) %MON forcing_qnet_mean            =  -2.6848385362135E+01
(PID.TID 0000.0001) %MON forcing_qnet_sd              =   2.2850588587968E+02
(PID.TID 0000.0001) %MON forcing_qnet_del2            =   3.3350600798335E+00
(PID.TID 0000.0001) %MON forcing_qsw_max              =   0.0000000000000E+00
(PID.TID 0000.0001) %MON forcing_qsw_min              =  -4.3296003474563E+02
(PID.TID 0000.0001) %MON forcing_qsw_mean             =  -6.8373833719498E+01
(PID.TID 0000.0001) %MON forcing_qsw_sd               =   1.1029960397752E+02
(PID.TID 0000.0001) %MON forcing_qsw_del2             =   1.0132964674869E+00
(PID.TID 0000.0001) %MON forcing_empmr_max            =   5.1540923304856E-03
(PID.TID 0000.0001) %MON forcing_empmr_min            =  -7.4100561439991E-02
(PID.TID 0000.0001) %MON forcing_empmr_mean           =  -2.1733322403179E-04
(PID.TID 0000.0001) %MON forcing_empmr_sd             =   3.2621589717584E-03
(PID.TID 0000.0001) %MON forcing_empmr_del2           =   1.2861020118809E-04
(PID.TID 0000.0001) %MON forcing_fu_max               =   3.1724853678844E-01
(PID.TID 0000.0001) %MON forcing_fu_min               =  -3.6958938519943E-01
(PID.TID 0000.0001) %MON forcing_fu_mean              =  -2.3246569042089E-03
(PID.TID 0000.0001) %MON forcing_fu_sd                =   5.9413315570164E-02
(PID.TID 0000.0001) %MON forcing_fu_del2              =   5.9163888434779E-04
(PID.TID 0000.0001) %MON forcing_fv_max               =   2.9522340877320E-01
(PID.TID 0000.0001) %MON forcing_fv_min               =  -2.5268222019855E-01
(PID.TID 0000.0001) %MON forcing_fv_mean              =  -1.5281099293827E-02
(PID.TID 0000.0001) %MON forcing_fv_sd                =   5.9958727697160E-02
(PID.TID 0000.0001) %MON forcing_fv_del2              =   5.2384969230224E-04
(PID.TID 0000.0001) %MON trAdv_CFL_u_max              =   2.1157391308325E-03
(PID.TID 0000.0001) %MON trAdv_CFL_v_max              =   1.1743323124738E-03
(PID.TID 0000.0001) %MON trAdv_CFL_w_max              =   1.5039267733556E-03
(PID.TID 0000.0001) %MON advcfl_uvel_max              =   2.0824953907463E-03
(PID.TID 0000.0001) %MON advcfl_vvel_max              =   1.1235805529324E-03
(PID.TID 0000.0001) %MON advcfl_wvel_max              =   2.5774108326953E-03
(PID.TID 0000.0001) %MON advcfl_W_hf_max              =   1.5039267733556E-03
(PID.TID 0000.0001) %MON pe_b_mean                    =   5.0024775871096E-04
(PID.TID 0000.0001) %MON ke_max                       =   2.1844828987467E-01
(PID.TID 0000.0001) %MON ke_mean                      =   1.6436697346259E-04
(PID.TID 0000.0001) %MON ke_vol                       =   1.3398139131151E+18
(PID.TID 0000.0001) %MON vort_r_min                   =  -3.3919116365271E-06
(PID.TID 0000.0001) %MON vort_r_max                   =   2.2998391287904E-06
(PID.TID 0000.0001) %MON vort_a_mean                  =  -2.0549865324846E-05
(PID.TID 0000.0001) %MON vort_a_sd                    =   7.5259711307257E-05
(PID.TID 0000.0001) %MON vort_p_mean                  =  -2.4783252846275E-05
(PID.TID 0000.0001) %MON vort_p_sd                    =   1.2811931467705E-04
(PID.TID 0000.0001) %MON surfExpan_theta_mean         =  -5.9783819628698E-06
(PID.TID 0000.0001) %MON surfExpan_salt_mean          =   1.1855200676286E-06
(PID.TID 0000.0001) // =======================================================
(PID.TID 0000.0001) // End MONITOR dynamic field statistics
(PID.TID 0000.0001) // =======================================================
 Computing Diagnostic #     81  oceTAUX      Counter:       1   Parms: UU      U1      
           Vector  Mate for  oceTAUX      Diagnostic #     82  oceTAUY  exists 
 Computing Diagnostic #     82  oceTAUY      Counter:       1   Parms: VV      U1      
           Vector  Mate for  oceTAUY      Diagnostic #     81  oceTAUX  exists 
 Computing Diagnostic #     85  oceFWflx     Counter:       1   Parms: SM      U1      
 Computing Diagnostic #     86  oceSflux     Counter:       1   Parms: SM      U1      
 Computing Diagnostic #     87  oceQnet      Counter:       1   Parms: SM      U1      
 Computing Diagnostic #     88  oceQsw       Counter:       1   Parms: SM      U1      
 Computing Diagnostic #     27  SALT         Counter:       1   Parms: SMR     MR      
 Computing Diagnostic #     26  THETA        Counter:       1   Parms: SMR     MR      
 Computing Diagnostic #     45  UVELMASS     Counter:       1   Parms: UUr     MR      
           Vector  Mate for  UVELMASS     Diagnostic #     46  VVELMASS exists 
 Computing Diagnostic #     46  VVELMASS     Counter:       1   Parms: VVr     MR      
           Vector  Mate for  VVELMASS     Diagnostic #     45  UVELMASS exists 
 cg2d: Sum(rhs),rhsMax =  -7.60482323246774E+01  3.60876375202236E+01
(PID.TID 0000.0001)      cg2d_init_res =   1.86956098439989E-01
(PID.TID 0000.0001)      cg2d_iters(min,last) =      -1      10
(PID.TID 0000.0001)      cg2d_last_res =   8.74235329034141E-08
(PID.TID 0000.0001) // =======================================================
(PID.TID 0000.0001) // Begin MONITOR dynamic field statistics
(PID.TID 0000.0001) // =======================================================
(PID.TID 0000.0001) %MON time_tsnumber                =                 72076
(PID.TID 0000.0001) %MON time_secondsf                =   6.4868400000000E+07
(PID.TID 0000.0001) %MON dynstat_eta_max              =   1.3040727898944E+00
(PID.TID 0000.0001) %MON dynstat_eta_min              =  -1.9729993933053E+00
(PID.TID 0000.0001) %MON dynstat_eta_mean             =   3.1889576283103E-02
(PID.TID 0000.0001) %MON dynstat_eta_sd               =   6.1194465546098E-01
(PID.TID 0000.0001) %MON dynstat_eta_del2             =   1.7041040700451E-03
(PID.TID 0000.0001) %MON dynstat_uvel_max             =   3.1441087807612E-01
(PID.TID 0000.0001) %MON dynstat_uvel_min             =  -6.8968762011193E-01
(PID.TID 0000.0001) %MON dynstat_uvel_mean            =  -3.3699757117429E-04
(PID.TID 0000.0001) %MON dynstat_uvel_sd              =   1.3041552457269E-02
(PID.TID 0000.0001) %MON dynstat_uvel_del2            =   8.5348457388816E-05
(PID.TID 0000.0001) %MON dynstat_vvel_max             =   2.5804244063432E-01
(PID.TID 0000.0001) %MON dynstat_vvel_min             =  -3.1781607233095E-01
(PID.TID 0000.0001) %MON dynstat_vvel_mean            =   3.5788531583362E-04
(PID.TID 0000.0001) %MON dynstat_vvel_sd              =   1.3618245108239E-02
(PID.TID 0000.0001) %MON dynstat_vvel_del2            =   8.3214603572198E-05
(PID.TID 0000.0001) %MON dynstat_wvel_max             =   1.2144176413356E-04
(PID.TID 0000.0001) %MON dynstat_wvel_min             =  -1.8103962574849E-04
(PID.TID 0000.0001) %MON dynstat_wvel_mean            =  -1.1563881496450E-07
(PID.TID 0000.0001) %MON dynstat_wvel_sd              =   7.6565377957802E-06
(PID.TID 0000.0001) %MON dynstat_wvel_del2            =   6.7729125891570E-08
(PID.TID 0000.0001) %MON dynstat_theta_max            =   3.0933803676368E+01
(PID.TID 0000.0001) %MON dynstat_theta_min            =  -3.0106575751263E+00
(PID.TID 0000.0001) %MON dynstat_theta_mean           =   3.9092600296538E+00
(PID.TID 0000.0001) %MON dynstat_theta_sd             =   4.5717749085988E+00
(PID.TID 0000.0001) %MON dynstat_theta_del2           =   2.6422582645303E-03
(PID.TID 0000.0001) %MON dynstat_salt_max             =   4.1347014014544E+01
(PID.TID 0000.0001) %MON dynstat_salt_min             =   1.8519140783426E+01
(PID.TID 0000.0001) %MON dynstat_salt_mean            =   3.4771918308605E+01
(PID.TID 0000.0001) %MON dynstat_salt_sd              =   5.3216300142657E-01
(PID.TID 0000.0001) %MON dynstat_salt_del2            =   1.1137681682466E-03
(PID.TID 0000.0001) %MON dynstat_sst_max              =   3.0933803676368E+01
(PID.TID 0000.0001) %MON dynstat_sst_min              =  -1.8992237409441E+00
(PID.TID 0000.0001) %MON dynstat_sst_mean             =   1.8113503833782E+01
(PID.TID 0000.0001) %MON dynstat_sst_sd               =   9.8118127095966E+00
(PID.TID 0000.0001) %MON dynstat_sst_del2             =   1.5066262197589E-02
(PID.TID 0000.0001) %MON dynstat_sss_max              =   4.1347014014544E+01
(PID.TID 0000.0001) %MON dynstat_sss_min              =   1.8752282395104E+01
(PID.TID 0000.0001) %MON dynstat_sss_mean             =   3.4621825543564E+01
(PID.TID 0000.0001) %MON dynstat_sss_sd               =   1.4879010867240E+00
(PID.TID 0000.0001) %MON dynstat_sss_del2             =   1.2580958455182E-02
(PID.TID 0000.0001) %MON forcing_qnet_max             =   1.6195241699219E+03
(PID.TID 0000.0001) %MON forcing_qnet_min             =  -9.5127957556607E+02
(PID.TID 0000.0001) %MON forcing_qnet_mean            =  -2.7993176540677E+01
(PID.TID 0000.0001) %MON forcing_qnet_sd              =   2.2573906287353E+02
(PID.TID 0000.0001) %MON forcing_qnet_del2            =   3.2470052000930E+00
(PID.TID 0000.0001) %MON forcing_qsw_max              =   0.0000000000000E+00
(PID.TID 0000.0001) %MON forcing_qsw_min              =  -4.3085193348979E+02
(PID.TID 0000.0001) %MON forcing_qsw_mean             =  -6.8885398782719E+01
(PID.TID 0000.0001) %MON forcing_qsw_sd               =   1.0979538132433E+02
(PID.TID 0000.0001) %MON forcing_qsw_del2             =   1.0091946143973E+00
(PID.TID 0000.0001) %MON forcing_empmr_max            =   5.1010525785387E-03
(PID.TID 0000.0001) %MON forcing_empmr_min            =  -7.3337838053703E-02
(PID.TID 0000.0001) %MON forcing_empmr_mean           =  -2.1386607790245E-04
(PID.TID 0000.0001) %MON forcing_empmr_sd             =   3.2286393806484E-03
(PID.TID 0000.0001) %MON forcing_empmr_del2           =   1.2722728080414E-04
(PID.TID 0000.0001) %MON forcing_fu_max               =   3.1198778167456E-01
(PID.TID 0000.0001) %MON forcing_fu_min               =  -3.6702003841831E-01
(PID.TID 0000.0001) %MON forcing_fu_mean              =  -2.3970562794202E-03
(PID.TID 0000.0001) %MON forcing_fu_sd                =   5.9076225619767E-02
(PID.TID 0000.0001) %MON forcing_fu_del2              =   5.8879833744492E-04
(PID.TID 0000.0001) %MON forcing_fv_max               =   2.9572773228780E-01
(PID.TID 0000.0001) %MON forcing_fv_min               =  -2.5345315391440E-01
(PID.TID 0000.0001) %MON forcing_fv_mean              =  -1.5298630049528E-02
(PID.TID 0000.0001) %MON forcing_fv_sd                =   5.9895057262828E-02
(PID.TID 0000.0001) %MON forcing_fv_del2              =   5.2302826944825E-04
(PID.TID 0000.0001) %MON trAdv_CFL_u_max              =   2.0377339096873E-03
(PID.TID 0000.0001) %MON trAdv_CFL_v_max              =   1.1763141894084E-03
(PID.TID 0000.0001) %MON trAdv_CFL_w_max              =   1.4510290450901E-03
(PID.TID 0000.0001) %MON advcfl_uvel_max              =   2.0042385377050E-03
(PID.TID 0000.0001) %MON advcfl_vvel_max              =   1.1320635762040E-03
(PID.TID 0000.0001) %MON advcfl_wvel_max              =   2.5508813236071E-03
(PID.TID 0000.0001) %MON advcfl_W_hf_max              =   1.4510290450901E-03
(PID.TID 0000.0001) %MON pe_b_mean                    =   5.0022203341297E-04
(PID.TID 0000.0001) %MON ke_max                       =   2.1439045951887E-01
(PID.TID 0000.0001) %MON ke_mean                      =   1.6428994272549E-04
(PID.TID 0000.0001) %MON ke_vol                       =   1.3398139818844E+18
(PID.TID 0000.0001) %MON vort_r_min                   =  -3.1739130435616E-06
(PID.TID 0000.0001) %MON vort_r_max                   =   2.3816361954651E-06
(PID.TID 0000.0001) %MON vort_a_mean                  =  -2.0549865324846E-05
(PID.TID 0000.0001) %MON vort_a_sd                    =   7.5259706433752E-05
(PID.TID 0000.0001) %MON vort_p_mean                  =  -2.4783251434458E-05
(PID.TID 0000.0001) %MON vort_p_sd                    =   1.2811931187568E-04
(PID.TID 0000.0001) %MON surfExpan_theta_mean         =  -5.8555266826020E-06
(PID.TID 0000.0001) %MON surfExpan_salt_mean          =   1.1723305719944E-06
(PID.TID 0000.0001) // =======================================================
(PID.TID 0000.0001) // End MONITOR dynamic field statistics
(PID.TID 0000.0001) // =======================================================
 cg2d: Sum(rhs),rhsMax =  -7.65211913242535E+01  3.60717201302231E+01
(PID.TID 0000.0001)      cg2d_init_res =   1.86001342744069E-01
(PID.TID 0000.0001)      cg2d_iters(min,last) =      -1      10
(PID.TID 0000.0001)      cg2d_last_res =   8.50639994558116E-08
(PID.TID 0000.0001) // =======================================================
(PID.TID 0000.0001) // Begin MONITOR dynamic field statistics
(PID.TID 0000.0001) // =======================================================
(PID.TID 0000.0001) %MON time_tsnumber                =                 72077
(PID.TID 0000.0001) %MON time_secondsf                =   6.4869300000000E+07
(PID.TID 0000.0001) %MON dynstat_eta_max              =   1.3061776234919E+00
(PID.TID 0000.0001) %MON dynstat_eta_min              =  -1.8744684653686E+00
(PID.TID 0000.0001) %MON dynstat_eta_mean             =   3.2073750662368E-02
(PID.TID 0000.0001) %MON dynstat_eta_sd               =   6.1190087380694E-01
(PID.TID 0000.0001) %MON dynstat_eta_del2             =   1.6810698213135E-03
(PID.TID 0000.0001) %MON dynstat_uvel_max             =   3.3718467602480E-01
(PID.TID 0000.0001) %MON dynstat_uvel_min             =  -6.6010412807542E-01
(PID.TID 0000.0001) %MON dynstat_uvel_mean            =  -3.4940807311805E-04
(PID.TID 0000.0001) %MON dynstat_uvel_sd              =   1.3026693748500E-02
(PID.TID 0000.0001) %MON dynstat_uvel_del2            =   8.4888578701271E-05
(PID.TID 0000.0001) %MON dynstat_vvel_max             =   2.5011128909167E-01
(PID.TID 0000.0001) %MON dynstat_vvel_min             =  -3.1964438736047E-01
(PID.TID 0000.0001) %MON dynstat_vvel_mean            =   3.3596585020056E-04
(PID.TID 0000.0001) %MON dynstat_vvel_sd              =   1.3628355343260E-02
(PID.TID 0000.0001) %MON dynstat_vvel_del2            =   8.3705973626890E-05
(PID.TID 0000.0001) %MON dynstat_wvel_max             =   1.2368274774009E-04
(PID.TID 0000.0001) %MON dynstat_wvel_min             =  -1.8107781470877E-04
(PID.TID 0000.0001) %MON dynstat_wvel_mean            =  -1.0624144582693E-07
(PID.TID 0000.0001) %MON dynstat_wvel_sd              =   7.6488225902422E-06
(PID.TID 0000.0001) %MON dynstat_wvel_del2            =   6.7609323992478E-08
(PID.TID 0000.0001) %MON dynstat_theta_max            =   3.0933517251708E+01
(PID.TID 0000.0001) %MON dynstat_theta_min            =  -3.0111009097808E+00
(PID.TID 0000.0001) %MON dynstat_theta_mean           =   3.9092630359228E+00
(PID.TID 0000.0001) %MON dynstat_theta_sd             =   4.5717858101356E+00
(PID.TID 0000.0001) %MON dynstat_theta_del2           =   2.6421562456689E-03
(PID.TID 0000.0001) %MON dynstat_salt_max             =   4.1346976069671E+01
(PID.TID 0000.0001) %MON dynstat_salt_min             =   1.8519150710500E+01
(PID.TID 0000.0001) %MON dynstat_salt_mean            =   3.4771916577056E+01
(PID.TID 0000.0001) %MON dynstat_salt_sd              =   5.3217441567441E-01
(PID.TID 0000.0001) %MON dynstat_salt_del2            =   1.1163415373213E-03
(PID.TID 0000.0001) %MON dynstat_sst_max              =   3.0933517251708E+01
(PID.TID 0000.0001) %MON dynstat_sst_min              =  -1.8991833250796E+00
(PID.TID 0000.0001) %MON dynstat_sst_mean             =   1.8113621066801E+01
(PID.TID 0000.0001) %MON dynstat_sst_sd               =   9.8119360070182E+00
(PID.TID 0000.0001) %MON dynstat_sst_del2             =   1.5064582714953E-02
(PID.TID 0000.0001) %MON dynstat_sss_max              =   4.1346976069671E+01
(PID.TID 0000.0001) %MON dynstat_sss_min              =   1.8752295238177E+01
(PID.TID 0000.0001) %MON dynstat_sss_mean             =   3.4621692449400E+01
(PID.TID 0000.0001) %MON dynstat_sss_sd               =   1.4881929245873E+00
(PID.TID 0000.0001) %MON dynstat_sss_del2             =   1.2616964740861E-02
(PID.TID 0000.0001) %MON forcing_qnet_max             =   1.6005721435547E+03
(PID.TID 0000.0001) %MON forcing_qnet_min             =  -9.4191205474819E+02
(PID.TID 0000.0001) %MON forcing_qnet_mean            =  -3.1048981421354E+01
(PID.TID 0000.0001) %MON forcing_qnet_sd              =   2.2415093045384E+02
(PID.TID 0000.0001) %MON forcing_qnet_del2            =   3.5968455690085E+00
(PID.TID 0000.0001) %MON forcing_qsw_max              =   0.0000000000000E+00
(PID.TID 0000.0001) %MON forcing_qsw_min              =  -4.2292764263969E+02
(PID.TID 0000.0001) %MON forcing_qsw_mean             =  -7.0634996699930E+01
(PID.TID 0000.0001) %MON forcing_qsw_sd               =   1.1018570170272E+02
(PID.TID 0000.0001) %MON forcing_qsw_del2             =   1.0217890981108E+00
(PID.TID 0000.0001) %MON forcing_empmr_max            =   5.0485050305724E-03
(PID.TID 0000.0001) %MON forcing_empmr_min            =  -7.2582662105560E-02
(PID.TID 0000.0001) %MON forcing_empmr_mean           =  -2.1180053615555E-04
(PID.TID 0000.0001) %MON forcing_empmr_sd             =   3.1955994781876E-03
(PID.TID 0000.0001) %MON forcing_empmr_del2           =   1.2589551621923E-04
(PID.TID 0000.0001) %MON forcing_fu_max               =   3.0587586503395E-01
(PID.TID 0000.0001) %MON forcing_fu_min               =  -3.6341890787828E-01
(PID.TID 0000.0001) %MON forcing_fu_mean              =  -2.4573531437282E-03
(PID.TID 0000.0001) %MON forcing_fu_sd                =   5.8737089291137E-02
(PID.TID 0000.0001) %MON forcing_fu_del2              =   5.8582220696643E-04
(PID.TID 0000.0001) %MON forcing_fv_max               =   2.9053445526685E-01
(PID.TID 0000.0001) %MON forcing_fv_min               =  -2.5404189988997E-01
(PID.TID 0000.0001) %MON forcing_fv_mean              =  -1.5317478312172E-02
(PID.TID 0000.0001) %MON forcing_fv_sd                =   5.9817412790701E-02
(PID.TID 0000.0001) %MON forcing_fv_del2              =   5.2159566138899E-04
(PID.TID 0000.0001) %MON trAdv_CFL_u_max              =   1.9515910335295E-03
(PID.TID 0000.0001) %MON trAdv_CFL_v_max              =   1.1780278116107E-03
(PID.TID 0000.0001) %MON trAdv_CFL_w_max              =   1.3956901080095E-03
(PID.TID 0000.0001) %MON advcfl_uvel_max              =   1.9182686390285E-03
(PID.TID 0000.0001) %MON advcfl_vvel_max              =   1.1402163317855E-03
(PID.TID 0000.0001) %MON advcfl_wvel_max              =   2.5246143341064E-03
(PID.TID 0000.0001) %MON advcfl_W_hf_max              =   1.3956901080095E-03
(PID.TID 0000.0001) %MON pe_b_mean                    =   5.0016632120637E-04
(PID.TID 0000.0001) %MON ke_max                       =   2.0961555447950E-01
(PID.TID 0000.0001) %MON ke_mean                      =   1.6423668237030E-04
(PID.TID 0000.0001) %MON ke_vol                       =   1.3398140495566E+18
(PID.TID 0000.0001) %MON vort_r_min                   =  -2.9437191836053E-06
(PID.TID 0000.0001) %MON vort_r_max                   =   2.4565247715893E-06
(PID.TID 0000.0001) %MON vort_a_mean                  =  -2.0549865324846E-05
(PID.TID 0000.0001) %MON vort_a_sd                    =   7.5259701475115E-05
(PID.TID 0000.0001) %MON vort_p_mean                  =  -2.4783250060056E-05
(PID.TID 0000.0001) %MON vort_p_sd                    =   1.2811930892480E-04
(PID.TID 0000.0001) %MON surfExpan_theta_mean         =  -5.7553934194417E-06
(PID.TID 0000.0001) %MON surfExpan_salt_mean          =   1.1597735819372E-06
(PID.TID 0000.0001) // =======================================================
(PID.TID 0000.0001) // End MONITOR dynamic field statistics
(PID.TID 0000.0001) // =======================================================
 cg2d: Sum(rhs),rhsMax =  -7.69347643211339E+01  3.60820271905846E+01
(PID.TID 0000.0001)      cg2d_init_res =   1.86246593788001E-01
(PID.TID 0000.0001)      cg2d_iters(min,last) =      -1      10
(PID.TID 0000.0001)      cg2d_last_res =   8.21660765041711E-08
(PID.TID 0000.0001) // =======================================================
(PID.TID 0000.0001) // Begin MONITOR dynamic field statistics
(PID.TID 0000.0001) // =======================================================
(PID.TID 0000.0001) %MON time_tsnumber                =                 72078
(PID.TID 0000.0001) %MON time_secondsf                =   6.4870200000000E+07
(PID.TID 0000.0001) %MON dynstat_eta_max              =   1.3013316132088E+00
(PID.TID 0000.0001) %MON dynstat_eta_min              =  -1.7536966927087E+00
(PID.TID 0000.0001) %MON dynstat_eta_mean             =   3.2256313428346E-02
(PID.TID 0000.0001) %MON dynstat_eta_sd               =   6.1184121032786E-01
(PID.TID 0000.0001) %MON dynstat_eta_del2             =   1.6486950580006E-03
(PID.TID 0000.0001) %MON dynstat_uvel_max             =   3.5765147298781E-01
(PID.TID 0000.0001) %MON dynstat_uvel_min             =  -6.5521470250492E-01
(PID.TID 0000.0001) %MON dynstat_uvel_mean            =  -3.6266526774546E-04
(PID.TID 0000.0001) %MON dynstat_uvel_sd              =   1.3011621754190E-02
(PID.TID 0000.0001) %MON dynstat_uvel_del2            =   8.4545574989868E-05
(PID.TID 0000.0001) %MON dynstat_vvel_max             =   2.4043092338152E-01
(PID.TID 0000.0001) %MON dynstat_vvel_min             =  -3.3235043892644E-01
(PID.TID 0000.0001) %MON dynstat_vvel_mean            =   3.1407658590267E-04
(PID.TID 0000.0001) %MON dynstat_vvel_sd              =   1.3639910196518E-02
(PID.TID 0000.0001) %MON dynstat_vvel_del2            =   8.4391817205030E-05
(PID.TID 0000.0001) %MON dynstat_wvel_max             =   1.2473059766085E-04
(PID.TID 0000.0001) %MON dynstat_wvel_min             =  -1.8113452958962E-04
(PID.TID 0000.0001) %MON dynstat_wvel_mean            =  -9.7187300231816E-08
(PID.TID 0000.0001) %MON dynstat_wvel_sd              =   7.6403179673285E-06
(PID.TID 0000.0001) %MON dynstat_wvel_del2            =   6.7472087284113E-08
(PID.TID 0000.0001) %MON dynstat_theta_max            =   3.0933224661003E+01
(PID.TID 0000.0001) %MON dynstat_theta_min            =  -3.0115659557323E+00
(PID.TID 0000.0001) %MON dynstat_theta_mean           =   3.9092661225713E+00
(PID.TID 0000.0001) %MON dynstat_theta_sd             =   4.5717970752281E+00
(PID.TID 0000.0001) %MON dynstat_theta_del2           =   2.6420514337199E-03
(PID.TID 0000.0001) %MON dynstat_salt_max             =   4.1346938170778E+01
(PID.TID 0000.0001) %MON dynstat_salt_min             =   1.8519160632975E+01
(PID.TID 0000.0001) %MON dynstat_salt_mean            =   3.4771914879276E+01
(PID.TID 0000.0001) %MON dynstat_salt_sd              =   5.3218568416211E-01
(PID.TID 0000.0001) %MON dynstat_salt_del2            =   1.1188610258964E-03
(PID.TID 0000.0001) %MON dynstat_sst_max              =   3.0933224661003E+01
(PID.TID 0000.0001) %MON dynstat_sst_min              =  -1.8991249849880E+00
(PID.TID 0000.0001) %MON dynstat_sst_mean             =   1.8113744345093E+01
(PID.TID 0000.0001) %MON dynstat_sst_sd               =   9.8120632796566E+00
(PID.TID 0000.0001) %MON dynstat_sst_del2             =   1.5062879912385E-02
(PID.TID 0000.0001) %MON dynstat_sss_max              =   4.1346938170778E+01
(PID.TID 0000.0001) %MON dynstat_sss_min              =   1.8752307848132E+01
(PID.TID 0000.0001) %MON dynstat_sss_mean             =   3.4621561763077E+01
(PID.TID 0000.0001) %MON dynstat_sss_sd               =   1.4884807173008E+00
(PID.TID 0000.0001) %MON dynstat_sss_del2             =   1.2652202657729E-02
(PID.TID 0000.0001) %MON forcing_qnet_max             =   1.8202902832031E+03
(PID.TID 0000.0001) %MON forcing_qnet_min             =  -9.3210355498056E+02
(PID.TID 0000.0001) %MON forcing_qnet_mean            =  -3.2642237559822E+01
(PID.TID 0000.0001) %MON forcing_qnet_sd              =   2.2284234131348E+02
(PID.TID 0000.0001) %MON forcing_qnet_del2            =   3.4890303640366E+00
(PID.TID 0000.0001) %MON forcing_qsw_max              =   0.0000000000000E+00
(PID.TID 0000.0001) %MON forcing_qsw_min              =  -4.2112823650762E+02
(PID.TID 0000.0001) %MON forcing_qsw_mean             =  -7.1456115710900E+01
(PID.TID 0000.0001) %MON forcing_qsw_sd               =   1.1019590623067E+02
(PID.TID 0000.0001) %MON forcing_qsw_del2             =   1.0170065608853E+00
(PID.TID 0000.0001) %MON forcing_empmr_max            =   4.9964492209256E-03
(PID.TID 0000.0001) %MON forcing_empmr_min            =  -7.1835868060589E-02
(PID.TID 0000.0001) %MON forcing_empmr_mean           =  -2.0994718087404E-04
(PID.TID 0000.0001) %MON forcing_empmr_sd             =   3.1630652063983E-03
(PID.TID 0000.0001) %MON forcing_empmr_del2           =   1.2459965945579E-04
(PID.TID 0000.0001) %MON forcing_fu_max               =   2.9986523868475E-01
(PID.TID 0000.0001) %MON forcing_fu_min               =  -3.6201025687913E-01
(PID.TID 0000.0001) %MON forcing_fu_mean              =  -2.5323591373881E-03
(PID.TID 0000.0001) %MON forcing_fu_sd                =   5.8400344583107E-02
(PID.TID 0000.0001) %MON forcing_fu_del2              =   5.8297255215983E-04
(PID.TID 0000.0001) %MON forcing_fv_max               =   2.9045233226600E-01
(PID.TID 0000.0001) %MON forcing_fv_min               =  -2.5414908820099E-01
(PID.TID 0000.0001) %MON forcing_fv_mean              =  -1.5312082259258E-02
(PID.TID 0000.0001) %MON forcing_fv_sd                =   5.9699476069010E-02
(PID.TID 0000.0001) %MON forcing_fv_del2              =   5.1991425491743E-04
(PID.TID 0000.0001) %MON trAdv_CFL_u_max              =   1.8905817584096E-03
(PID.TID 0000.0001) %MON trAdv_CFL_v_max              =   1.1794813964901E-03
(PID.TID 0000.0001) %MON trAdv_CFL_w_max              =   1.3383252708829E-03
(PID.TID 0000.0001) %MON advcfl_uvel_max              =   1.8901896084836E-03
(PID.TID 0000.0001) %MON advcfl_vvel_max              =   1.1479201130506E-03
(PID.TID 0000.0001) %MON advcfl_wvel_max              =   2.4986388890640E-03
(PID.TID 0000.0001) %MON advcfl_W_hf_max              =   1.3383252708829E-03
(PID.TID 0000.0001) %MON pe_b_mean                    =   5.0008467601999E-04
(PID.TID 0000.0001) %MON ke_max                       =   2.0424410979655E-01
(PID.TID 0000.0001) %MON ke_mean                      =   1.6420032947838E-04
(PID.TID 0000.0001) %MON ke_vol                       =   1.3398141165752E+18
(PID.TID 0000.0001) %MON vort_r_min                   =  -2.7031637980470E-06
(PID.TID 0000.0001) %MON vort_r_max                   =   2.5238961545180E-06
(PID.TID 0000.0001) %MON vort_a_mean                  =  -2.0549865324846E-05
(PID.TID 0000.0001) %MON vort_a_sd                    =   7.5259696497264E-05
(PID.TID 0000.0001) %MON vort_p_mean                  =  -2.4783248714957E-05
(PID.TID 0000.0001) %MON vort_p_sd                    =   1.2811930614221E-04
(PID.TID 0000.0001) %MON surfExpan_theta_mean         =  -5.6513979494372E-06
(PID.TID 0000.0001) %MON surfExpan_salt_mean          =   1.1465873122354E-06
(PID.TID 0000.0001) // =======================================================
(PID.TID 0000.0001) // End MONITOR dynamic field statistics
(PID.TID 0000.0001) // =======================================================
 cg2d: Sum(rhs),rhsMax =  -7.73166293541091E+01  3.61051050931492E+01
(PID.TID 0000.0001)      cg2d_init_res =   1.87351496006871E-01
(PID.TID 0000.0001)      cg2d_iters(min,last) =      -1      10
(PID.TID 0000.0001)      cg2d_last_res =   7.79905446663028E-08
(PID.TID 0000.0001) // =======================================================
(PID.TID 0000.0001) // Begin MONITOR dynamic field statistics
(PID.TID 0000.0001) // =======================================================
(PID.TID 0000.0001) %MON time_tsnumber                =                 72079
(PID.TID 0000.0001) %MON time_secondsf                =   6.4871100000000E+07
(PID.TID 0000.0001) %MON dynstat_eta_max              =   1.2894534499153E+00
(PID.TID 0000.0001) %MON dynstat_eta_min              =  -1.6134651432868E+00
(PID.TID 0000.0001) %MON dynstat_eta_mean             =   3.2437150754226E-02
(PID.TID 0000.0001) %MON dynstat_eta_sd               =   6.1176924249972E-01
(PID.TID 0000.0001) %MON dynstat_eta_del2             =   1.6086876860221E-03
(PID.TID 0000.0001) %MON dynstat_uvel_max             =   3.7693009739921E-01
(PID.TID 0000.0001) %MON dynstat_uvel_min             =  -6.6843295390152E-01
(PID.TID 0000.0001) %MON dynstat_uvel_mean            =  -3.7651197450840E-04
(PID.TID 0000.0001) %MON dynstat_uvel_sd              =   1.2996562736978E-02
(PID.TID 0000.0001) %MON dynstat_uvel_del2            =   8.4314380165499E-05
(PID.TID 0000.0001) %MON dynstat_vvel_max             =   2.2909564028201E-01
(PID.TID 0000.0001) %MON dynstat_vvel_min             =  -3.6600317354711E-01
(PID.TID 0000.0001) %MON dynstat_vvel_mean            =   2.9246357233712E-04
(PID.TID 0000.0001) %MON dynstat_vvel_sd              =   1.3652200110541E-02
(PID.TID 0000.0001) %MON dynstat_vvel_del2            =   8.5177055122045E-05
(PID.TID 0000.0001) %MON dynstat_wvel_max             =   1.2461192500531E-04
(PID.TID 0000.0001) %MON dynstat_wvel_min             =  -1.8118444873032E-04
(PID.TID 0000.0001) %MON dynstat_wvel_mean            =  -8.8745921791942E-08
(PID.TID 0000.0001) %MON dynstat_wvel_sd              =   7.6299132195246E-06
(PID.TID 0000.0001) %MON dynstat_wvel_del2            =   6.7314293366059E-08
(PID.TID 0000.0001) %MON dynstat_theta_max            =   3.0932924542318E+01
(PID.TID 0000.0001) %MON dynstat_theta_min            =  -3.0120505175012E+00
(PID.TID 0000.0001) %MON dynstat_theta_mean           =   3.9092692559549E+00
(PID.TID 0000.0001) %MON dynstat_theta_sd             =   4.5718086349119E+00
(PID.TID 0000.0001) %MON dynstat_theta_del2           =   2.6419476432537E-03
(PID.TID 0000.0001) %MON dynstat_salt_max             =   4.1346900369932E+01
(PID.TID 0000.0001) %MON dynstat_salt_min             =   1.8519170553827E+01
(PID.TID 0000.0001) %MON dynstat_salt_mean            =   3.4771913210538E+01
(PID.TID 0000.0001) %MON dynstat_salt_sd              =   5.3219678345591E-01
(PID.TID 0000.0001) %MON dynstat_salt_del2            =   1.1213270354294E-03
(PID.TID 0000.0001) %MON dynstat_sst_max              =   3.0932924542318E+01
(PID.TID 0000.0001) %MON dynstat_sst_min              =  -1.8990496163517E+00
(PID.TID 0000.0001) %MON dynstat_sst_mean             =   1.8113871380950E+01
(PID.TID 0000.0001) %MON dynstat_sst_sd               =   9.8121957671158E+00
(PID.TID 0000.0001) %MON dynstat_sst_del2             =   1.5061167887306E-02
(PID.TID 0000.0001) %MON dynstat_sss_max              =   4.1346900369932E+01
(PID.TID 0000.0001) %MON dynstat_sss_min              =   1.8752320372182E+01
(PID.TID 0000.0001) %MON dynstat_sss_mean             =   3.4621433190881E+01
(PID.TID 0000.0001) %MON dynstat_sss_sd               =   1.4887637892132E+00
(PID.TID 0000.0001) %MON dynstat_sss_del2             =   1.2686673972204E-02
(PID.TID 0000.0001) %MON forcing_qnet_max             =   1.7193924560547E+03
(PID.TID 0000.0001) %MON forcing_qnet_min             =  -9.7528265380859E+02
(PID.TID 0000.0001) %MON forcing_qnet_mean            =  -3.3674642186643E+01
(PID.TID 0000.0001) %MON forcing_qnet_sd              =   2.2138191957624E+02
(PID.TID 0000.0001) %MON forcing_qnet_del2            =   3.6407010250325E+00
(PID.TID 0000.0001) %MON forcing_qsw_max              =   0.0000000000000E+00
(PID.TID 0000.0001) %MON forcing_qsw_min              =  -4.2691474739285E+02
(PID.TID 0000.0001) %MON forcing_qsw_mean             =  -7.2072134988633E+01
(PID.TID 0000.0001) %MON forcing_qsw_sd               =   1.1014994055384E+02
(PID.TID 0000.0001) %MON forcing_qsw_del2             =   1.0102846708849E+00
(PID.TID 0000.0001) %MON forcing_empmr_max            =   4.9449843354523E-03
(PID.TID 0000.0001) %MON forcing_empmr_min            =  -7.1095801889896E-02
(PID.TID 0000.0001) %MON forcing_empmr_mean           =  -2.0796292476286E-04
(PID.TID 0000.0001) %MON forcing_empmr_sd             =   3.1307326174135E-03
(PID.TID 0000.0001) %MON forcing_empmr_del2           =   1.2330275603459E-04
(PID.TID 0000.0001) %MON forcing_fu_max               =   2.9509734128452E-01
(PID.TID 0000.0001) %MON forcing_fu_min               =  -3.6121430415048E-01
(PID.TID 0000.0001) %MON forcing_fu_mean              =  -2.6028300741133E-03
(PID.TID 0000.0001) %MON forcing_fu_sd                =   5.8081624491321E-02
(PID.TID 0000.0001) %MON forcing_fu_del2              =   5.8051429212741E-04
(PID.TID 0000.0001) %MON forcing_fv_max               =   2.8584261651347E-01
(PID.TID 0000.0001) %MON forcing_fv_min               =  -2.5431785209193E-01
(PID.TID 0000.0001) %MON forcing_fv_mean              =  -1.5301307461924E-02
(PID.TID 0000.0001) %MON forcing_fv_sd                =   5.9643584452973E-02
(PID.TID 0000.0001) %MON forcing_fv_del2              =   5.1815382137384E-04
(PID.TID 0000.0001) %MON trAdv_CFL_u_max              =   1.9295812406173E-03
(PID.TID 0000.0001) %MON trAdv_CFL_v_max              =   1.1806697242969E-03
(PID.TID 0000.0001) %MON trAdv_CFL_w_max              =   1.2793734889208E-03
(PID.TID 0000.0001) %MON advcfl_uvel_max              =   1.9283221493693E-03
(PID.TID 0000.0001) %MON advcfl_vvel_max              =   1.1944018623514E-03
(PID.TID 0000.0001) %MON advcfl_wvel_max              =   2.4728974570399E-03
(PID.TID 0000.0001) %MON advcfl_W_hf_max              =   1.3088904194214E-03
(PID.TID 0000.0001) %MON pe_b_mean                    =   4.9998292436128E-04
(PID.TID 0000.0001) %MON ke_max                       =   1.9839606907383E-01
(PID.TID 0000.0001) %MON ke_mean                      =   1.6417465999768E-04
(PID.TID 0000.0001) %MON ke_vol                       =   1.3398141830074E+18
(PID.TID 0000.0001) %MON vort_r_min                   =  -2.4542159819331E-06
(PID.TID 0000.0001) %MON vort_r_max                   =   2.5832048615800E-06
(PID.TID 0000.0001) %MON vort_a_mean                  =  -2.0549865324846E-05
(PID.TID 0000.0001) %MON vort_a_sd                    =   7.5259691566280E-05
(PID.TID 0000.0001) %MON vort_p_mean                  =  -2.4783247397215E-05
(PID.TID 0000.0001) %MON vort_p_sd                    =   1.2811930383823E-04
(PID.TID 0000.0001) %MON surfExpan_theta_mean         =  -5.5401177788087E-06
(PID.TID 0000.0001) %MON surfExpan_salt_mean          =   1.1324789625899E-06
(PID.TID 0000.0001) // =======================================================
(PID.TID 0000.0001) // End MONITOR dynamic field statistics
(PID.TID 0000.0001) // =======================================================
 Computing Diagnostic #     81  oceTAUX      Counter:       1   Parms: UU      U1      
           Vector  Mate for  oceTAUX      Diagnostic #     82  oceTAUY  exists 
 Computing Diagnostic #     82  oceTAUY      Counter:       1   Parms: VV      U1      
           Vector  Mate for  oceTAUY      Diagnostic #     81  oceTAUX  exists 
 Computing Diagnostic #     85  oceFWflx     Counter:       1   Parms: SM      U1      
 Computing Diagnostic #     86  oceSflux     Counter:       1   Parms: SM      U1      
 Computing Diagnostic #     87  oceQnet      Counter:       1   Parms: SM      U1      
 Computing Diagnostic #     88  oceQsw       Counter:       1   Parms: SM      U1      
 Computing Diagnostic #     27  SALT         Counter:       1   Parms: SMR     MR      
 Computing Diagnostic #     26  THETA        Counter:       1   Parms: SMR     MR      
 Computing Diagnostic #     45  UVELMASS     Counter:       1   Parms: UUr     MR      
           Vector  Mate for  UVELMASS     Diagnostic #     46  VVELMASS exists 
 Computing Diagnostic #     46  VVELMASS     Counter:       1   Parms: VVr     MR      
           Vector  Mate for  VVELMASS     Diagnostic #     45  UVELMASS exists 
 cg2d: Sum(rhs),rhsMax =  -7.77052787745276E+01  3.61226755799937E+01
(PID.TID 0000.0001)      cg2d_init_res =   1.89009172873132E-01
(PID.TID 0000.0001)      cg2d_iters(min,last) =      -1      10
(PID.TID 0000.0001)      cg2d_last_res =   7.18247866731527E-08
(PID.TID 0000.0001) // =======================================================
(PID.TID 0000.0001) // Begin MONITOR dynamic field statistics
(PID.TID 0000.0001) // =======================================================
(PID.TID 0000.0001) %MON time_tsnumber                =                 72080
(PID.TID 0000.0001) %MON time_secondsf                =   6.4872000000000E+07
(PID.TID 0000.0001) %MON dynstat_eta_max              =   1.2705279200831E+00
(PID.TID 0000.0001) %MON dynstat_eta_min              =  -1.5615799222012E+00
(PID.TID 0000.0001) %MON dynstat_eta_mean             =   3.2616068217784E-02
(PID.TID 0000.0001) %MON dynstat_eta_sd               =   6.1168808937032E-01
(PID.TID 0000.0001) %MON dynstat_eta_del2             =   1.5631135086554E-03
(PID.TID 0000.0001) %MON dynstat_uvel_max             =   3.9305121578470E-01
(PID.TID 0000.0001) %MON dynstat_uvel_min             =  -6.8004123211695E-01
(PID.TID 0000.0001) %MON dynstat_uvel_mean            =  -3.9067712612905E-04
(PID.TID 0000.0001) %MON dynstat_uvel_sd              =   1.2981618481649E-02
(PID.TID 0000.0001) %MON dynstat_uvel_del2            =   8.4184588430440E-05
(PID.TID 0000.0001) %MON dynstat_vvel_max             =   2.4377680989100E-01
(PID.TID 0000.0001) %MON dynstat_vvel_min             =  -3.9328209554144E-01
(PID.TID 0000.0001) %MON dynstat_vvel_mean            =   2.7138744686190E-04
(PID.TID 0000.0001) %MON dynstat_vvel_sd              =   1.3664432118051E-02
(PID.TID 0000.0001) %MON dynstat_vvel_del2            =   8.5970602187067E-05
(PID.TID 0000.0001) %MON dynstat_wvel_max             =   1.2336524783063E-04
(PID.TID 0000.0001) %MON dynstat_wvel_min             =  -1.8123332389460E-04
(PID.TID 0000.0001) %MON dynstat_wvel_mean            =  -8.0997477213989E-08
(PID.TID 0000.0001) %MON dynstat_wvel_sd              =   7.6184957297773E-06
(PID.TID 0000.0001) %MON dynstat_wvel_del2            =   6.7130342448864E-08
(PID.TID 0000.0001) %MON dynstat_theta_max            =   3.0932617852120E+01
(PID.TID 0000.0001) %MON dynstat_theta_min            =  -3.0125524985614E+00
(PID.TID 0000.0001) %MON dynstat_theta_mean           =   3.9092724276168E+00
(PID.TID 0000.0001) %MON dynstat_theta_sd             =   4.5718204736842E+00
(PID.TID 0000.0001) %MON dynstat_theta_del2           =   2.6418444209353E-03
(PID.TID 0000.0001) %MON dynstat_salt_max             =   4.1346862952817E+01
(PID.TID 0000.0001) %MON dynstat_salt_min             =   1.8519180475788E+01
(PID.TID 0000.0001) %MON dynstat_salt_mean            =   3.4771911577082E+01
(PID.TID 0000.0001) %MON dynstat_salt_sd              =   5.3220769435359E-01
(PID.TID 0000.0001) %MON dynstat_salt_del2            =   1.1237384618655E-03
(PID.TID 0000.0001) %MON dynstat_sst_max              =   3.0932617852120E+01
(PID.TID 0000.0001) %MON dynstat_sst_min              =  -1.8989583655411E+00
(PID.TID 0000.0001) %MON dynstat_sst_mean             =   1.8114001754774E+01
(PID.TID 0000.0001) %MON dynstat_sst_sd               =   9.8123337370681E+00
(PID.TID 0000.0001) %MON dynstat_sst_del2             =   1.5059455650967E-02
(PID.TID 0000.0001) %MON dynstat_sss_max              =   4.1346862952817E+01
(PID.TID 0000.0001) %MON dynstat_sss_min              =   1.8752332808853E+01
(PID.TID 0000.0001) %MON dynstat_sss_mean             =   3.4621307183410E+01
(PID.TID 0000.0001) %MON dynstat_sss_sd               =   1.4890416130683E+00
(PID.TID 0000.0001) %MON dynstat_sss_del2             =   1.2720365214629E-02
(PID.TID 0000.0001) %MON forcing_qnet_max             =   1.5468826904297E+03
(PID.TID 0000.0001) %MON forcing_qnet_min             =  -9.1341238670317E+02
(PID.TID 0000.0001) %MON forcing_qnet_mean            =  -3.4578497560424E+01
(PID.TID 0000.0001) %MON forcing_qnet_sd              =   2.1696241811865E+02
(PID.TID 0000.0001) %MON forcing_qnet_del2            =   3.0903600064309E+00
(PID.TID 0000.0001) %MON forcing_qsw_max              =   0.0000000000000E+00
(PID.TID 0000.0001) %MON forcing_qsw_min              =  -4.3093686093024E+02
(PID.TID 0000.0001) %MON forcing_qsw_mean             =  -7.2473458612697E+01
(PID.TID 0000.0001) %MON forcing_qsw_sd               =   1.1005627033308E+02
(PID.TID 0000.0001) %MON forcing_qsw_del2             =   1.0017728769199E+00
(PID.TID 0000.0001) %MON forcing_empmr_max            =   4.8940111882985E-03
(PID.TID 0000.0001) %MON forcing_empmr_min            =  -7.0364117622375E-02
(PID.TID 0000.0001) %MON forcing_empmr_mean           =  -2.0575508309129E-04
(PID.TID 0000.0001) %MON forcing_empmr_sd             =   3.0985464108220E-03
(PID.TID 0000.0001) %MON forcing_empmr_del2           =   1.2200581605175E-04
(PID.TID 0000.0001) %MON forcing_fu_max               =   2.8981232975207E-01
(PID.TID 0000.0001) %MON forcing_fu_min               =  -3.5681649386225E-01
(PID.TID 0000.0001) %MON forcing_fu_mean              =  -2.6786527081465E-03
(PID.TID 0000.0001) %MON forcing_fu_sd                =   5.7661299202847E-02
(PID.TID 0000.0001) %MON forcing_fu_del2              =   5.7716000224873E-04
(PID.TID 0000.0001) %MON forcing_fv_max               =   2.8743999845561E-01
(PID.TID 0000.0001) %MON forcing_fv_min               =  -2.5429249018679E-01
(PID.TID 0000.0001) %MON forcing_fv_mean              =  -1.5285648857439E-02
(PID.TID 0000.0001) %MON forcing_fv_sd                =   5.9625338302105E-02
(PID.TID 0000.0001) %MON forcing_fv_del2              =   5.1736155456264E-04
(PID.TID 0000.0001) %MON trAdv_CFL_u_max              =   1.9640427110449E-03
(PID.TID 0000.0001) %MON trAdv_CFL_v_max              =   1.2773600061716E-03
(PID.TID 0000.0001) %MON trAdv_CFL_w_max              =   1.2192939503434E-03
(PID.TID 0000.0001) %MON advcfl_uvel_max              =   1.9618101751589E-03
(PID.TID 0000.0001) %MON advcfl_vvel_max              =   1.2834229353579E-03
(PID.TID 0000.0001) %MON advcfl_wvel_max              =   2.4474475694739E-03
(PID.TID 0000.0001) %MON advcfl_W_hf_max              =   1.3126684556736E-03
(PID.TID 0000.0001) %MON pe_b_mean                    =   4.9986613718847E-04
(PID.TID 0000.0001) %MON ke_max                       =   1.9218609236855E-01
(PID.TID 0000.0001) %MON ke_mean                      =   1.6415083245249E-04
(PID.TID 0000.0001) %MON ke_vol                       =   1.3398142488117E+18
(PID.TID 0000.0001) %MON vort_r_min                   =  -2.1989519381179E-06
(PID.TID 0000.0001) %MON vort_r_max                   =   2.6339742989181E-06
(PID.TID 0000.0001) %MON vort_a_mean                  =  -2.0549865324846E-05
(PID.TID 0000.0001) %MON vort_a_sd                    =   7.5259686744808E-05
(PID.TID 0000.0001) %MON vort_p_mean                  =  -2.4783246106324E-05
(PID.TID 0000.0001) %MON vort_p_sd                    =   1.2811930228831E-04
(PID.TID 0000.0001) %MON surfExpan_theta_mean         =  -5.4207561855709E-06
(PID.TID 0000.0001) %MON surfExpan_salt_mean          =   1.1163388046823E-06
(PID.TID 0000.0001) // =======================================================
(PID.TID 0000.0001) // End MONITOR dynamic field statistics
(PID.TID 0000.0001) // =======================================================
 cg2d: Sum(rhs),rhsMax =  -7.81027922193877E+01  3.61348724350680E+01
(PID.TID 0000.0001)      cg2d_init_res =   1.90842791076961E-01
(PID.TID 0000.0001)      cg2d_iters(min,last) =      -1      10
(PID.TID 0000.0001)      cg2d_last_res =   6.37342262774876E-08
(PID.TID 0000.0001) // =======================================================
(PID.TID 0000.0001) // Begin MONITOR dynamic field statistics
(PID.TID 0000.0001) // =======================================================
(PID.TID 0000.0001) %MON time_tsnumber                =                 72081
(PID.TID 0000.0001) %MON time_secondsf                =   6.4872900000000E+07
(PID.TID 0000.0001) %MON dynstat_eta_max              =   1.2446075158667E+00
(PID.TID 0000.0001) %MON dynstat_eta_min              =  -1.5605041580375E+00
(PID.TID 0000.0001) %MON dynstat_eta_mean             =   3.2793989973715E-02
(PID.TID 0000.0001) %MON dynstat_eta_sd               =   6.1160136493296E-01
(PID.TID 0000.0001) %MON dynstat_eta_del2             =   1.5143161136812E-03
(PID.TID 0000.0001) %MON dynstat_uvel_max             =   4.0578030462047E-01
(PID.TID 0000.0001) %MON dynstat_uvel_min             =  -6.8991709343542E-01
(PID.TID 0000.0001) %MON dynstat_uvel_mean            =  -4.0490018142165E-04
(PID.TID 0000.0001) %MON dynstat_uvel_sd              =   1.2966958143002E-02
(PID.TID 0000.0001) %MON dynstat_uvel_del2            =   8.4143158156803E-05
(PID.TID 0000.0001) %MON dynstat_vvel_max             =   2.6856412247699E-01
(PID.TID 0000.0001) %MON dynstat_vvel_min             =  -4.1488618283976E-01
(PID.TID 0000.0001) %MON dynstat_vvel_mean            =   2.5107325602093E-04
(PID.TID 0000.0001) %MON dynstat_vvel_sd              =   1.3675850399064E-02
(PID.TID 0000.0001) %MON dynstat_vvel_del2            =   8.6692456466004E-05
(PID.TID 0000.0001) %MON dynstat_wvel_max             =   1.2103926720180E-04
(PID.TID 0000.0001) %MON dynstat_wvel_min             =  -1.8129491446651E-04
(PID.TID 0000.0001) %MON dynstat_wvel_mean            =  -7.4486884228279E-08
(PID.TID 0000.0001) %MON dynstat_wvel_sd              =   7.6062761083693E-06
(PID.TID 0000.0001) %MON dynstat_wvel_del2            =   6.6915229839391E-08
(PID.TID 0000.0001) %MON dynstat_theta_max            =   3.0932304401908E+01
(PID.TID 0000.0001) %MON dynstat_theta_min            =  -3.0130700125201E+00
(PID.TID 0000.0001) %MON dynstat_theta_mean           =   3.9092756896081E+00
(PID.TID 0000.0001) %MON dynstat_theta_sd             =   4.5718328249646E+00
(PID.TID 0000.0001) %MON dynstat_theta_del2           =   2.6417397758905E-03
(PID.TID 0000.0001) %MON dynstat_salt_max             =   4.1346826240959E+01
(PID.TID 0000.0001) %MON dynstat_salt_min             =   1.8519190401324E+01
(PID.TID 0000.0001) %MON dynstat_salt_mean            =   3.4771909962210E+01
(PID.TID 0000.0001) %MON dynstat_salt_sd              =   5.3221843704766E-01
(PID.TID 0000.0001) %MON dynstat_salt_del2            =   1.1260974775444E-03
(PID.TID 0000.0001) %MON dynstat_sst_max              =   3.0932304401908E+01
(PID.TID 0000.0001) %MON dynstat_sst_min              =  -1.8988525960742E+00
(PID.TID 0000.0001) %MON dynstat_sst_mean             =   1.8114138658144E+01
(PID.TID 0000.0001) %MON dynstat_sst_sd               =   9.8124796665837E+00
(PID.TID 0000.0001) %MON dynstat_sst_del2             =   1.5057690262712E-02
(PID.TID 0000.0001) %MON dynstat_sss_max              =   4.1346826240959E+01
(PID.TID 0000.0001) %MON dynstat_sss_min              =   1.8752345156667E+01
(PID.TID 0000.0001) %MON dynstat_sss_mean             =   3.4621182574883E+01
(PID.TID 0000.0001) %MON dynstat_sss_sd               =   1.4893145853289E+00
(PID.TID 0000.0001) %MON dynstat_sss_del2             =   1.2753309467204E-02
(PID.TID 0000.0001) %MON forcing_qnet_max             =   1.5297099609375E+03
(PID.TID 0000.0001) %MON forcing_qnet_min             =  -9.0364708751990E+02
(PID.TID 0000.0001) %MON forcing_qnet_mean            =  -3.6214030098440E+01
(PID.TID 0000.0001) %MON forcing_qnet_sd              =   2.1292676438366E+02
(PID.TID 0000.0001) %MON forcing_qnet_del2            =   3.0317203266206E+00
(PID.TID 0000.0001) %MON forcing_qsw_max              =   0.0000000000000E+00
(PID.TID 0000.0001) %MON forcing_qsw_min              =  -4.1059313062325E+02
(PID.TID 0000.0001) %MON forcing_qsw_mean             =  -7.3132543773910E+01
(PID.TID 0000.0001) %MON forcing_qsw_sd               =   1.0964023473922E+02
(PID.TID 0000.0001) %MON forcing_qsw_del2             =   9.7992131579675E-01
(PID.TID 0000.0001) %MON forcing_empmr_max            =   4.8436280339956E-03
(PID.TID 0000.0001) %MON forcing_empmr_min            =  -6.9639980792999E-02
(PID.TID 0000.0001) %MON forcing_empmr_mean           =  -2.0461001932065E-04
(PID.TID 0000.0001) %MON forcing_empmr_sd             =   3.0668594483359E-03
(PID.TID 0000.0001) %MON forcing_empmr_del2           =   1.2074267312494E-04
(PID.TID 0000.0001) %MON forcing_fu_max               =   2.7323259839913E-01
(PID.TID 0000.0001) %MON forcing_fu_min               =  -3.5527106698640E-01
(PID.TID 0000.0001) %MON forcing_fu_mean              =  -2.7660354610879E-03
(PID.TID 0000.0001) %MON forcing_fu_sd                =   5.7201882938263E-02
(PID.TID 0000.0001) %MON forcing_fu_del2              =   5.7356829671150E-04
(PID.TID 0000.0001) %MON forcing_fv_max               =   2.8267135000260E-01
(PID.TID 0000.0001) %MON forcing_fv_min               =  -2.5526934380956E-01
(PID.TID 0000.0001) %MON forcing_fv_mean              =  -1.5324179765681E-02
(PID.TID 0000.0001) %MON forcing_fv_sd                =   5.9516884774090E-02
(PID.TID 0000.0001) %MON forcing_fv_del2              =   5.1491184585926E-04
(PID.TID 0000.0001) %MON trAdv_CFL_u_max              =   1.9936089580948E-03
(PID.TID 0000.0001) %MON trAdv_CFL_v_max              =   1.3572157257935E-03
(PID.TID 0000.0001) %MON trAdv_CFL_w_max              =   1.1615871161836E-03
(PID.TID 0000.0001) %MON advcfl_uvel_max              =   1.9903004553184E-03
(PID.TID 0000.0001) %MON advcfl_vvel_max              =   1.3539249527406E-03
(PID.TID 0000.0001) %MON advcfl_wvel_max              =   2.4222602014956E-03
(PID.TID 0000.0001) %MON advcfl_W_hf_max              =   1.3126937271182E-03
(PID.TID 0000.0001) %MON pe_b_mean                    =   4.9974028753748E-04
(PID.TID 0000.0001) %MON ke_max                       =   1.8571942266202E-01
(PID.TID 0000.0001) %MON ke_mean                      =   1.6412120063970E-04
(PID.TID 0000.0001) %MON ke_vol                       =   1.3398143139174E+18
(PID.TID 0000.0001) %MON vort_r_min                   =  -2.2206525687192E-06
(PID.TID 0000.0001) %MON vort_r_max                   =   2.6758016171066E-06
(PID.TID 0000.0001) %MON vort_a_mean                  =  -2.0549865324846E-05
(PID.TID 0000.0001) %MON vort_a_sd                    =   7.5259682091276E-05
(PID.TID 0000.0001) %MON vort_p_mean                  =  -2.4783244842055E-05
(PID.TID 0000.0001) %MON vort_p_sd                    =   1.2811930168802E-04
(PID.TID 0000.0001) %MON surfExpan_theta_mean         =  -5.3201295147237E-06
(PID.TID 0000.0001) %MON surfExpan_salt_mean          =   1.0990862331441E-06
(PID.TID 0000.0001) // =======================================================
(PID.TID 0000.0001) // End MONITOR dynamic field statistics
(PID.TID 0000.0001) // =======================================================
 cg2d: Sum(rhs),rhsMax =  -7.85050425806922E+01  3.61421294068965E+01
(PID.TID 0000.0001)      cg2d_init_res =   1.92545785386532E-01
(PID.TID 0000.0001)      cg2d_iters(min,last) =      -1      10
(PID.TID 0000.0001)      cg2d_last_res =   5.44431295366893E-08
(PID.TID 0000.0001) // =======================================================
(PID.TID 0000.0001) // Begin MONITOR dynamic field statistics
(PID.TID 0000.0001) // =======================================================
(PID.TID 0000.0001) %MON time_tsnumber                =                 72082
(PID.TID 0000.0001) %MON time_secondsf                =   6.4873800000000E+07
(PID.TID 0000.0001) %MON dynstat_eta_max              =   1.2118129550373E+00
(PID.TID 0000.0001) %MON dynstat_eta_min              =  -1.5593999400718E+00
(PID.TID 0000.0001) %MON dynstat_eta_mean             =   3.2969507773477E-02
(PID.TID 0000.0001) %MON dynstat_eta_sd               =   6.1151117121814E-01
(PID.TID 0000.0001) %MON dynstat_eta_del2             =   1.4647801115645E-03
(PID.TID 0000.0001) %MON dynstat_uvel_max             =   4.1497582822245E-01
(PID.TID 0000.0001) %MON dynstat_uvel_min             =  -6.9794599079681E-01
(PID.TID 0000.0001) %MON dynstat_uvel_mean            =  -4.1892948182891E-04
(PID.TID 0000.0001) %MON dynstat_uvel_sd              =   1.2952793719787E-02
(PID.TID 0000.0001) %MON dynstat_uvel_del2            =   8.4174035267193E-05
(PID.TID 0000.0001) %MON dynstat_vvel_max             =   2.8943489474392E-01
(PID.TID 0000.0001) %MON dynstat_vvel_min             =  -4.2957183234645E-01
(PID.TID 0000.0001) %MON dynstat_vvel_mean            =   2.3177061978931E-04
(PID.TID 0000.0001) %MON dynstat_vvel_sd              =   1.3685888658075E-02
(PID.TID 0000.0001) %MON dynstat_vvel_del2            =   8.7280045932423E-05
(PID.TID 0000.0001) %MON dynstat_wvel_max             =   1.1769288516912E-04
(PID.TID 0000.0001) %MON dynstat_wvel_min             =  -1.8135131143601E-04
(PID.TID 0000.0001) %MON dynstat_wvel_mean            =  -6.7816239468187E-08
(PID.TID 0000.0001) %MON dynstat_wvel_sd              =   7.5933024118255E-06
(PID.TID 0000.0001) %MON dynstat_wvel_del2            =   6.6671226322069E-08
(PID.TID 0000.0001) %MON dynstat_theta_max            =   3.0931985203619E+01
(PID.TID 0000.0001) %MON dynstat_theta_min            =  -3.0136014749850E+00
(PID.TID 0000.0001) %MON dynstat_theta_mean           =   3.9092789942836E+00
(PID.TID 0000.0001) %MON dynstat_theta_sd             =   4.5718454163906E+00
(PID.TID 0000.0001) %MON dynstat_theta_del2           =   2.6416326624963E-03
(PID.TID 0000.0001) %MON dynstat_salt_max             =   4.1346791071309E+01
(PID.TID 0000.0001) %MON dynstat_salt_min             =   1.8519200332590E+01
(PID.TID 0000.0001) %MON dynstat_salt_mean            =   3.4771908377974E+01
(PID.TID 0000.0001) %MON dynstat_salt_sd              =   5.3222902348935E-01
(PID.TID 0000.0001) %MON dynstat_salt_del2            =   1.1284042482311E-03
(PID.TID 0000.0001) %MON dynstat_sst_max              =   3.0931985203619E+01
(PID.TID 0000.0001) %MON dynstat_sst_min              =  -1.8987350245796E+00
(PID.TID 0000.0001) %MON dynstat_sst_mean             =   1.8114280015378E+01
(PID.TID 0000.0001) %MON dynstat_sst_sd               =   9.8126289897621E+00
(PID.TID 0000.0001) %MON dynstat_sst_del2             =   1.5055860009237E-02
(PID.TID 0000.0001) %MON dynstat_sss_max              =   4.1346791071309E+01
(PID.TID 0000.0001) %MON dynstat_sss_min              =   1.8752357414394E+01
(PID.TID 0000.0001) %MON dynstat_sss_mean             =   3.4621060327524E+01
(PID.TID 0000.0001) %MON dynstat_sss_sd               =   1.4895830860128E+00
(PID.TID 0000.0001) %MON dynstat_sss_del2             =   1.2785511152873E-02
(PID.TID 0000.0001) %MON forcing_qnet_max             =   1.5127416992188E+03
(PID.TID 0000.0001) %MON forcing_qnet_min             =  -8.9419619010411E+02
(PID.TID 0000.0001) %MON forcing_qnet_mean            =  -3.7298439287640E+01
(PID.TID 0000.0001) %MON forcing_qnet_sd              =   2.1240841829654E+02
(PID.TID 0000.0001) %MON forcing_qnet_del2            =   3.0469709095486E+00
(PID.TID 0000.0001) %MON forcing_qsw_max              =   0.0000000000000E+00
(PID.TID 0000.0001) %MON forcing_qsw_min              =  -4.0916408241757E+02
(PID.TID 0000.0001) %MON forcing_qsw_mean             =  -7.3910009072513E+01
(PID.TID 0000.0001) %MON forcing_qsw_sd               =   1.1007529541548E+02
(PID.TID 0000.0001) %MON forcing_qsw_del2             =   9.7549734555745E-01
(PID.TID 0000.0001) %MON forcing_empmr_max            =   4.7937380149961E-03
(PID.TID 0000.0001) %MON forcing_empmr_min            =  -6.8923398852348E-02
(PID.TID 0000.0001) %MON forcing_empmr_mean           =  -2.0184546972641E-04
(PID.TID 0000.0001) %MON forcing_empmr_sd             =   3.0356267029930E-03
(PID.TID 0000.0001) %MON forcing_empmr_del2           =   1.1948345156463E-04
(PID.TID 0000.0001) %MON forcing_fu_max               =   2.6388519521067E-01
(PID.TID 0000.0001) %MON forcing_fu_min               =  -3.5053469080888E-01
(PID.TID 0000.0001) %MON forcing_fu_mean              =  -2.8568101182757E-03
(PID.TID 0000.0001) %MON forcing_fu_sd                =   5.6782975895732E-02
(PID.TID 0000.0001) %MON forcing_fu_del2              =   5.7040118811187E-04
(PID.TID 0000.0001) %MON forcing_fv_max               =   2.8214580910597E-01
(PID.TID 0000.0001) %MON forcing_fv_min               =  -2.5582108792739E-01
(PID.TID 0000.0001) %MON forcing_fv_mean              =  -1.5359452616957E-02
(PID.TID 0000.0001) %MON forcing_fv_sd                =   5.9437863642264E-02
(PID.TID 0000.0001) %MON forcing_fv_del2              =   5.1361900772844E-04
(PID.TID 0000.0001) %MON trAdv_CFL_u_max              =   2.0179426601141E-03
(PID.TID 0000.0001) %MON trAdv_CFL_v_max              =   1.4129519694173E-03
(PID.TID 0000.0001) %MON trAdv_CFL_w_max              =   1.1669187321465E-03
(PID.TID 0000.0001) %MON advcfl_uvel_max              =   2.0134625399024E-03
(PID.TID 0000.0001) %MON advcfl_vvel_max              =   1.4018495839688E-03
(PID.TID 0000.0001) %MON advcfl_wvel_max              =   2.3973356122556E-03
(PID.TID 0000.0001) %MON advcfl_W_hf_max              =   1.3092489028166E-03
(PID.TID 0000.0001) %MON pe_b_mean                    =   4.9960867880831E-04
(PID.TID 0000.0001) %MON ke_max                       =   1.7908858157790E-01
(PID.TID 0000.0001) %MON ke_mean                      =   1.6408097473739E-04
(PID.TID 0000.0001) %MON ke_vol                       =   1.3398143786608E+18
(PID.TID 0000.0001) %MON vort_r_min                   =  -2.2464953717446E-06
(PID.TID 0000.0001) %MON vort_r_max                   =   2.7083617303280E-06
(PID.TID 0000.0001) %MON vort_a_mean                  =  -2.0549865324846E-05
(PID.TID 0000.0001) %MON vort_a_sd                    =   7.5259677663803E-05
(PID.TID 0000.0001) %MON vort_p_mean                  =  -2.4783243596448E-05
(PID.TID 0000.0001) %MON vort_p_sd                    =   1.2811930210577E-04
(PID.TID 0000.0001) %MON surfExpan_theta_mean         =  -5.1852902950703E-06
(PID.TID 0000.0001) %MON surfExpan_salt_mean          =   1.0811240687040E-06
(PID.TID 0000.0001) // =======================================================
(PID.TID 0000.0001) // End MONITOR dynamic field statistics
(PID.TID 0000.0001) // =======================================================
 cg2d: Sum(rhs),rhsMax =  -7.89117181031138E+01  3.61453105597231E+01
(PID.TID 0000.0001)      cg2d_init_res =   1.93910622230911E-01
(PID.TID 0000.0001)      cg2d_iters(min,last) =      -1      10
(PID.TID 0000.0001)      cg2d_last_res =   4.61825797816038E-08
(PID.TID 0000.0001) // =======================================================
(PID.TID 0000.0001) // Begin MONITOR dynamic field statistics
(PID.TID 0000.0001) // =======================================================
(PID.TID 0000.0001) %MON time_tsnumber                =                 72083
(PID.TID 0000.0001) %MON time_secondsf                =   6.4874700000000E+07
(PID.TID 0000.0001) %MON dynstat_eta_max              =   1.1723326157552E+00
(PID.TID 0000.0001) %MON dynstat_eta_min              =  -1.5582916999476E+00
(PID.TID 0000.0001) %MON dynstat_eta_mean             =   3.3143214909930E-02
(PID.TID 0000.0001) %MON dynstat_eta_sd               =   6.1141960790014E-01
(PID.TID 0000.0001) %MON dynstat_eta_del2             =   1.4170000338901E-03
(PID.TID 0000.0001) %MON dynstat_uvel_max             =   4.2059072420815E-01
(PID.TID 0000.0001) %MON dynstat_uvel_min             =  -7.0402328769037E-01
(PID.TID 0000.0001) %MON dynstat_uvel_mean            =  -4.3255690956243E-04
(PID.TID 0000.0001) %MON dynstat_uvel_sd              =   1.2939110636435E-02
(PID.TID 0000.0001) %MON dynstat_uvel_del2            =   8.4259948141343E-05
(PID.TID 0000.0001) %MON dynstat_vvel_max             =   3.0619439859777E-01
(PID.TID 0000.0001) %MON dynstat_vvel_min             =  -4.3734945058010E-01
(PID.TID 0000.0001) %MON dynstat_vvel_mean            =   2.1372168275766E-04
(PID.TID 0000.0001) %MON dynstat_vvel_sd              =   1.3694067870008E-02
(PID.TID 0000.0001) %MON dynstat_vvel_del2            =   8.7689917717806E-05
(PID.TID 0000.0001) %MON dynstat_wvel_max             =   1.1339412553003E-04
(PID.TID 0000.0001) %MON dynstat_wvel_min             =  -1.8141091233585E-04
(PID.TID 0000.0001) %MON dynstat_wvel_mean            =  -6.2127405101813E-08
(PID.TID 0000.0001) %MON dynstat_wvel_sd              =   7.5807151211281E-06
(PID.TID 0000.0001) %MON dynstat_wvel_del2            =   6.6401326502878E-08
(PID.TID 0000.0001) %MON dynstat_theta_max            =   3.0931658925114E+01
(PID.TID 0000.0001) %MON dynstat_theta_min            =  -3.0141456430241E+00
(PID.TID 0000.0001) %MON dynstat_theta_mean           =   3.9092823224998E+00
(PID.TID 0000.0001) %MON dynstat_theta_sd             =   4.5718581810081E+00
(PID.TID 0000.0001) %MON dynstat_theta_del2           =   2.6415262116931E-03
(PID.TID 0000.0001) %MON dynstat_salt_max             =   4.1346757989259E+01
(PID.TID 0000.0001) %MON dynstat_salt_min             =   1.8519210271380E+01
(PID.TID 0000.0001) %MON dynstat_salt_mean            =   3.4771906815094E+01
(PID.TID 0000.0001) %MON dynstat_salt_sd              =   5.3223944646060E-01
(PID.TID 0000.0001) %MON dynstat_salt_del2            =   1.1306612372209E-03
(PID.TID 0000.0001) %MON dynstat_sst_max              =   3.0931658925114E+01
(PID.TID 0000.0001) %MON dynstat_sst_min              =  -1.8986062741080E+00
(PID.TID 0000.0001) %MON dynstat_sst_mean             =   1.8114423918232E+01
(PID.TID 0000.0001) %MON dynstat_sst_sd               =   9.8127814893564E+00
(PID.TID 0000.0001) %MON dynstat_sst_del2             =   1.5054050863977E-02
(PID.TID 0000.0001) %MON dynstat_sss_max              =   4.1346757989259E+01
(PID.TID 0000.0001) %MON dynstat_sss_min              =   1.8752369656540E+01
(PID.TID 0000.0001) %MON dynstat_sss_mean             =   3.4620939755915E+01
(PID.TID 0000.0001) %MON dynstat_sss_sd               =   1.4898468237245E+00
(PID.TID 0000.0001) %MON dynstat_sss_del2             =   1.2817005904590E-02
(PID.TID 0000.0001) %MON forcing_qnet_max             =   1.4959748535156E+03
(PID.TID 0000.0001) %MON forcing_qnet_min             =  -8.8483192334286E+02
(PID.TID 0000.0001) %MON forcing_qnet_mean            =  -3.7898585256071E+01
(PID.TID 0000.0001) %MON forcing_qnet_sd              =   2.1226798186110E+02
(PID.TID 0000.0001) %MON forcing_qnet_del2            =   3.0411002474694E+00
(PID.TID 0000.0001) %MON forcing_qsw_max              =   0.0000000000000E+00
(PID.TID 0000.0001) %MON forcing_qsw_min              =  -4.0845456667722E+02
(PID.TID 0000.0001) %MON forcing_qsw_mean             =  -7.4508625521607E+01
(PID.TID 0000.0001) %MON forcing_qsw_sd               =   1.1046228724124E+02
(PID.TID 0000.0001) %MON forcing_qsw_del2             =   9.6996354335374E-01
(PID.TID 0000.0001) %MON forcing_empmr_max            =   4.7443392686546E-03
(PID.TID 0000.0001) %MON forcing_empmr_min            =  -6.8213537335396E-02
(PID.TID 0000.0001) %MON forcing_empmr_mean           =  -1.9976320692069E-04
(PID.TID 0000.0001) %MON forcing_empmr_sd             =   3.0047349817241E-03
(PID.TID 0000.0001) %MON forcing_empmr_del2           =   1.1823680368026E-04
(PID.TID 0000.0001) %MON forcing_fu_max               =   2.5742779985460E-01
(PID.TID 0000.0001) %MON forcing_fu_min               =  -3.4570984005100E-01
(PID.TID 0000.0001) %MON forcing_fu_mean              =  -2.9705552281562E-03
(PID.TID 0000.0001) %MON forcing_fu_sd                =   5.6297167424943E-02
(PID.TID 0000.0001) %MON forcing_fu_del2              =   5.6702816373066E-04
(PID.TID 0000.0001) %MON forcing_fv_max               =   2.7724843160611E-01
(PID.TID 0000.0001) %MON forcing_fv_min               =  -2.5570972064107E-01
(PID.TID 0000.0001) %MON forcing_fv_mean              =  -1.5362859938654E-02
(PID.TID 0000.0001) %MON forcing_fv_sd                =   5.9352876741837E-02
(PID.TID 0000.0001) %MON forcing_fv_del2              =   5.1138046081572E-04
(PID.TID 0000.0001) %MON trAdv_CFL_u_max              =   2.0367320542294E-03
(PID.TID 0000.0001) %MON trAdv_CFL_v_max              =   1.4446092796808E-03
(PID.TID 0000.0001) %MON trAdv_CFL_w_max              =   1.1709219887144E-03
(PID.TID 0000.0001) %MON advcfl_uvel_max              =   2.0309945693150E-03
(PID.TID 0000.0001) %MON advcfl_vvel_max              =   1.4272307893090E-03
(PID.TID 0000.0001) %MON advcfl_wvel_max              =   2.3726447768833E-03
(PID.TID 0000.0001) %MON advcfl_W_hf_max              =   1.3026416689851E-03
(PID.TID 0000.0001) %MON pe_b_mean                    =   4.9947478314479E-04
(PID.TID 0000.0001) %MON ke_max                       =   1.7237095753225E-01
(PID.TID 0000.0001) %MON ke_mean                      =   1.6402374001815E-04
(PID.TID 0000.0001) %MON ke_vol                       =   1.3398144425294E+18
(PID.TID 0000.0001) %MON vort_r_min                   =  -2.2660565118961E-06
(PID.TID 0000.0001) %MON vort_r_max                   =   2.7314102720723E-06
(PID.TID 0000.0001) %MON vort_a_mean                  =  -2.0549865324846E-05
(PID.TID 0000.0001) %MON vort_a_sd                    =   7.5259673513400E-05
(PID.TID 0000.0001) %MON vort_p_mean                  =  -2.4783242378835E-05
(PID.TID 0000.0001) %MON vort_p_sd                    =   1.2811930357315E-04
(PID.TID 0000.0001) %MON surfExpan_theta_mean         =  -5.0610842462586E-06
(PID.TID 0000.0001) %MON surfExpan_salt_mean          =   1.0615142574497E-06
(PID.TID 0000.0001) // =======================================================
(PID.TID 0000.0001) // End MONITOR dynamic field statistics
(PID.TID 0000.0001) // =======================================================
 Computing Diagnostic #     81  oceTAUX      Counter:       1   Parms: UU      U1      
           Vector  Mate for  oceTAUX      Diagnostic #     82  oceTAUY  exists 
 Computing Diagnostic #     82  oceTAUY      Counter:       1   Parms: VV      U1      
           Vector  Mate for  oceTAUY      Diagnostic #     81  oceTAUX  exists 
 Computing Diagnostic #     85  oceFWflx     Counter:       1   Parms: SM      U1      
 Computing Diagnostic #     86  oceSflux     Counter:       1   Parms: SM      U1      
 Computing Diagnostic #     87  oceQnet      Counter:       1   Parms: SM      U1      
 Computing Diagnostic #     88  oceQsw       Counter:       1   Parms: SM      U1      
 Computing Diagnostic #     27  SALT         Counter:       1   Parms: SMR     MR      
 Computing Diagnostic #     26  THETA        Counter:       1   Parms: SMR     MR      
 Computing Diagnostic #     45  UVELMASS     Counter:       1   Parms: UUr     MR      
           Vector  Mate for  UVELMASS     Diagnostic #     46  VVELMASS exists 
 Computing Diagnostic #     46  VVELMASS     Counter:       1   Parms: VVr     MR      
           Vector  Mate for  VVELMASS     Diagnostic #     45  UVELMASS exists 
 cg2d: Sum(rhs),rhsMax =  -7.93207445482354E+01  3.61454825623607E+01
(PID.TID 0000.0001)      cg2d_init_res =   1.94725521552075E-01
(PID.TID 0000.0001)      cg2d_iters(min,last) =      -1      10
(PID.TID 0000.0001)      cg2d_last_res =   4.05083291569618E-08
(PID.TID 0000.0001) // =======================================================
(PID.TID 0000.0001) // Begin MONITOR dynamic field statistics
(PID.TID 0000.0001) // =======================================================
(PID.TID 0000.0001) %MON time_tsnumber                =                 72084
(PID.TID 0000.0001) %MON time_secondsf                =   6.4875600000000E+07
(PID.TID 0000.0001) %MON dynstat_eta_max              =   1.1264209404425E+00
(PID.TID 0000.0001) %MON dynstat_eta_min              =  -1.5571989674676E+00
(PID.TID 0000.0001) %MON dynstat_eta_mean             =   3.3315166071425E-02
(PID.TID 0000.0001) %MON dynstat_eta_sd               =   6.1132756522507E-01
(PID.TID 0000.0001) %MON dynstat_eta_del2             =   1.3733182115451E-03
(PID.TID 0000.0001) %MON dynstat_uvel_max             =   4.2267110722566E-01
(PID.TID 0000.0001) %MON dynstat_uvel_min             =  -7.0805611874374E-01
(PID.TID 0000.0001) %MON dynstat_uvel_mean            =  -4.4559678246596E-04
(PID.TID 0000.0001) %MON dynstat_uvel_sd              =   1.2926088011936E-02
(PID.TID 0000.0001) %MON dynstat_uvel_del2            =   8.4382948873050E-05
(PID.TID 0000.0001) %MON dynstat_vvel_max             =   3.1872130971470E-01
(PID.TID 0000.0001) %MON dynstat_vvel_min             =  -4.3832829518986E-01
(PID.TID 0000.0001) %MON dynstat_vvel_mean            =   1.9712960670830E-04
(PID.TID 0000.0001) %MON dynstat_vvel_sd              =   1.3700055446186E-02
(PID.TID 0000.0001) %MON dynstat_vvel_del2            =   8.7899195762217E-05
(PID.TID 0000.0001) %MON dynstat_wvel_max             =   1.0821994728917E-04
(PID.TID 0000.0001) %MON dynstat_wvel_min             =  -1.8147164293808E-04
(PID.TID 0000.0001) %MON dynstat_wvel_mean            =  -5.7461896193479E-08
(PID.TID 0000.0001) %MON dynstat_wvel_sd              =   7.5685142265083E-06
(PID.TID 0000.0001) %MON dynstat_wvel_del2            =   6.6110223894456E-08
(PID.TID 0000.0001) %MON dynstat_theta_max            =   3.0931325443685E+01
(PID.TID 0000.0001) %MON dynstat_theta_min            =  -3.0147016612390E+00
(PID.TID 0000.0001) %MON dynstat_theta_mean           =   3.9092856659149E+00
(PID.TID 0000.0001) %MON dynstat_theta_sd             =   4.5718711042678E+00
(PID.TID 0000.0001) %MON dynstat_theta_del2           =   2.6414186557268E-03
(PID.TID 0000.0001) %MON dynstat_salt_max             =   4.1346728119955E+01
(PID.TID 0000.0001) %MON dynstat_salt_min             =   1.8519220219111E+01
(PID.TID 0000.0001) %MON dynstat_salt_mean            =   3.4771905279063E+01
(PID.TID 0000.0001) %MON dynstat_salt_sd              =   5.3224971079151E-01
(PID.TID 0000.0001) %MON dynstat_salt_del2            =   1.1328681931661E-03
(PID.TID 0000.0001) %MON dynstat_sst_max              =   3.0931325443685E+01
(PID.TID 0000.0001) %MON dynstat_sst_min              =  -1.8984682414147E+00
(PID.TID 0000.0001) %MON dynstat_sst_mean             =   1.8114569928544E+01
(PID.TID 0000.0001) %MON dynstat_sst_sd               =   9.8129375594992E+00
(PID.TID 0000.0001) %MON dynstat_sst_del2             =   1.5052206776778E-02
(PID.TID 0000.0001) %MON dynstat_sss_max              =   4.1346728119955E+01
(PID.TID 0000.0001) %MON dynstat_sss_min              =   1.8752381806928E+01
(PID.TID 0000.0001) %MON dynstat_sss_mean             =   3.4620821317064E+01
(PID.TID 0000.0001) %MON dynstat_sss_sd               =   1.4901059585137E+00
(PID.TID 0000.0001) %MON dynstat_sss_del2             =   1.2847791175539E-02
(PID.TID 0000.0001) %MON forcing_qnet_max             =   1.4794074707031E+03
(PID.TID 0000.0001) %MON forcing_qnet_min             =  -8.7491796621770E+02
(PID.TID 0000.0001) %MON forcing_qnet_mean            =  -3.8346744512855E+01
(PID.TID 0000.0001) %MON forcing_qnet_sd              =   2.1222646828671E+02
(PID.TID 0000.0001) %MON forcing_qnet_del2            =   3.0573847059474E+00
(PID.TID 0000.0001) %MON forcing_qsw_max              =   0.0000000000000E+00
(PID.TID 0000.0001) %MON forcing_qsw_min              =  -4.1272823542994E+02
(PID.TID 0000.0001) %MON forcing_qsw_mean             =  -7.4931941917398E+01
(PID.TID 0000.0001) %MON forcing_qsw_sd               =   1.1079054653116E+02
(PID.TID 0000.0001) %MON forcing_qsw_del2             =   9.6338082297707E-01
(PID.TID 0000.0001) %MON forcing_empmr_max            =   4.6954327262938E-03
(PID.TID 0000.0001) %MON forcing_empmr_min            =  -6.7511223256588E-02
(PID.TID 0000.0001) %MON forcing_empmr_mean           =  -1.9774383571886E-04
(PID.TID 0000.0001) %MON forcing_empmr_sd             =   2.9741469911332E-03
(PID.TID 0000.0001) %MON forcing_empmr_del2           =   1.1700059690071E-04
(PID.TID 0000.0001) %MON forcing_fu_max               =   2.5555312667910E-01
(PID.TID 0000.0001) %MON forcing_fu_min               =  -3.4101278699075E-01
(PID.TID 0000.0001) %MON forcing_fu_mean              =  -3.0600866562138E-03
(PID.TID 0000.0001) %MON forcing_fu_sd                =   5.5926181955405E-02
(PID.TID 0000.0001) %MON forcing_fu_del2              =   5.6455338711250E-04
(PID.TID 0000.0001) %MON forcing_fv_max               =   2.7587111967166E-01
(PID.TID 0000.0001) %MON forcing_fv_min               =  -2.5526171842775E-01
(PID.TID 0000.0001) %MON forcing_fv_mean              =  -1.5381948009835E-02
(PID.TID 0000.0001) %MON forcing_fv_sd                =   5.9172813141573E-02
(PID.TID 0000.0001) %MON forcing_fv_del2              =   5.0939445106960E-04
(PID.TID 0000.0001) %MON trAdv_CFL_u_max              =   2.0496962523057E-03
(PID.TID 0000.0001) %MON trAdv_CFL_v_max              =   1.4526205166967E-03
(PID.TID 0000.0001) %MON trAdv_CFL_w_max              =   1.1734816171376E-03
(PID.TID 0000.0001) %MON advcfl_uvel_max              =   2.0426286418117E-03
(PID.TID 0000.0001) %MON advcfl_vvel_max              =   1.4304251163240E-03
(PID.TID 0000.0001) %MON advcfl_wvel_max              =   2.3482164610987E-03
(PID.TID 0000.0001) %MON advcfl_W_hf_max              =   1.2931883333955E-03
(PID.TID 0000.0001) %MON pe_b_mean                    =   4.9934005383023E-04
(PID.TID 0000.0001) %MON ke_max                       =   1.7308290428290E-01
(PID.TID 0000.0001) %MON ke_mean                      =   1.6394721811000E-04
(PID.TID 0000.0001) %MON ke_vol                       =   1.3398145057391E+18
(PID.TID 0000.0001) %MON vort_r_min                   =  -2.2790370811892E-06
(PID.TID 0000.0001) %MON vort_r_max                   =   2.7447854182351E-06
(PID.TID 0000.0001) %MON vort_a_mean                  =  -2.0549865324846E-05
(PID.TID 0000.0001) %MON vort_a_sd                    =   7.5259669687197E-05
(PID.TID 0000.0001) %MON vort_p_mean                  =  -2.4783241184671E-05
(PID.TID 0000.0001) %MON vort_p_sd                    =   1.2811930598571E-04
(PID.TID 0000.0001) %MON surfExpan_theta_mean         =  -4.9397005787820E-06
(PID.TID 0000.0001) %MON surfExpan_salt_mean          =   1.0404820001580E-06
(PID.TID 0000.0001) // =======================================================
(PID.TID 0000.0001) // End MONITOR dynamic field statistics
(PID.TID 0000.0001) // =======================================================
 cg2d: Sum(rhs),rhsMax =  -7.97332966237162E+01  3.61439807602838E+01
(PID.TID 0000.0001)      cg2d_init_res =   1.94877410307059E-01
(PID.TID 0000.0001)      cg2d_iters(min,last) =      -1      10
(PID.TID 0000.0001)      cg2d_last_res =   3.77789592363845E-08
(PID.TID 0000.0001) // =======================================================
(PID.TID 0000.0001) // Begin MONITOR dynamic field statistics
(PID.TID 0000.0001) // =======================================================
(PID.TID 0000.0001) %MON time_tsnumber                =                 72085
(PID.TID 0000.0001) %MON time_secondsf                =   6.4876500000000E+07
(PID.TID 0000.0001) %MON dynstat_eta_max              =   1.0743958216402E+00
(PID.TID 0000.0001) %MON dynstat_eta_min              =  -1.5561838885912E+00
(PID.TID 0000.0001) %MON dynstat_eta_mean             =   3.3487048895974E-02
(PID.TID 0000.0001) %MON dynstat_eta_sd               =   6.1123648121508E-01
(PID.TID 0000.0001) %MON dynstat_eta_del2             =   1.3357230827961E-03
(PID.TID 0000.0001) %MON dynstat_uvel_max             =   4.2135238453090E-01
(PID.TID 0000.0001) %MON dynstat_uvel_min             =  -7.0996542787354E-01
(PID.TID 0000.0001) %MON dynstat_uvel_mean            =  -4.5792575804752E-04
(PID.TID 0000.0001) %MON dynstat_uvel_sd              =   1.2913825453940E-02
(PID.TID 0000.0001) %MON dynstat_uvel_del2            =   8.4526473221823E-05
(PID.TID 0000.0001) %MON dynstat_vvel_max             =   3.2696629489353E-01
(PID.TID 0000.0001) %MON dynstat_vvel_min             =  -4.3271367156170E-01
(PID.TID 0000.0001) %MON dynstat_vvel_mean            =   1.8219540098348E-04
(PID.TID 0000.0001) %MON dynstat_vvel_sd              =   1.3703763250198E-02
(PID.TID 0000.0001) %MON dynstat_vvel_del2            =   8.7904289079222E-05
(PID.TID 0000.0001) %MON dynstat_wvel_max             =   1.0259906121689E-04
(PID.TID 0000.0001) %MON dynstat_wvel_min             =  -1.8154293190279E-04
(PID.TID 0000.0001) %MON dynstat_wvel_mean            =  -5.4413934461417E-08
(PID.TID 0000.0001) %MON dynstat_wvel_sd              =   7.5576344519294E-06
(PID.TID 0000.0001) %MON dynstat_wvel_del2            =   6.5805661903795E-08
(PID.TID 0000.0001) %MON dynstat_theta_max            =   3.0930985827571E+01
(PID.TID 0000.0001) %MON dynstat_theta_min            =  -3.0152690341503E+00
(PID.TID 0000.0001) %MON dynstat_theta_mean           =   3.9092891656128E+00
(PID.TID 0000.0001) %MON dynstat_theta_sd             =   4.5718846121637E+00
(PID.TID 0000.0001) %MON dynstat_theta_del2           =   2.6413111995803E-03
(PID.TID 0000.0001) %MON dynstat_salt_max             =   4.1346702327310E+01
(PID.TID 0000.0001) %MON dynstat_salt_min             =   1.8519230176811E+01
(PID.TID 0000.0001) %MON dynstat_salt_mean            =   3.4771903752189E+01
(PID.TID 0000.0001) %MON dynstat_salt_sd              =   5.3225981921241E-01
(PID.TID 0000.0001) %MON dynstat_salt_del2            =   1.1350265934373E-03
(PID.TID 0000.0001) %MON dynstat_sst_max              =   3.0930985827571E+01
(PID.TID 0000.0001) %MON dynstat_sst_min              =  -1.8983229128912E+00
(PID.TID 0000.0001) %MON dynstat_sst_mean             =   1.8114727395855E+01
(PID.TID 0000.0001) %MON dynstat_sst_sd               =   9.8130970226258E+00
(PID.TID 0000.0001) %MON dynstat_sst_del2             =   1.5050391987958E-02
(PID.TID 0000.0001) %MON dynstat_sss_max              =   4.1346702327310E+01
(PID.TID 0000.0001) %MON dynstat_sss_min              =   1.8752393864553E+01
(PID.TID 0000.0001) %MON dynstat_sss_mean             =   3.4620703723613E+01
(PID.TID 0000.0001) %MON dynstat_sss_sd               =   1.4903604150554E+00
(PID.TID 0000.0001) %MON dynstat_sss_del2             =   1.2877890239832E-02
(PID.TID 0000.0001) %MON forcing_qnet_max             =   3.3436687011719E+03
(PID.TID 0000.0001) %MON forcing_qnet_min             =  -8.6406112737255E+02
(PID.TID 0000.0001) %MON forcing_qnet_mean            =  -4.0927197087672E+01
(PID.TID 0000.0001) %MON forcing_qnet_sd              =   2.1654274882209E+02
(PID.TID 0000.0001) %MON forcing_qnet_del2            =   3.8989472066158E+00
(PID.TID 0000.0001) %MON forcing_qsw_max              =   0.0000000000000E+00
(PID.TID 0000.0001) %MON forcing_qsw_min              =  -4.1746452121229E+02
(PID.TID 0000.0001) %MON forcing_qsw_mean             =  -7.6536920459808E+01
(PID.TID 0000.0001) %MON forcing_qsw_sd               =   1.1197053403543E+02
(PID.TID 0000.0001) %MON forcing_qsw_del2             =   9.5126825963587E-01
(PID.TID 0000.0001) %MON forcing_empmr_max            =   4.6471161767840E-03
(PID.TID 0000.0001) %MON forcing_empmr_min            =  -6.6816456615925E-02
(PID.TID 0000.0001) %MON forcing_empmr_mean           =  -1.9766524823245E-04
(PID.TID 0000.0001) %MON forcing_empmr_sd             =   2.9443826563010E-03
(PID.TID 0000.0001) %MON forcing_empmr_del2           =   1.1578194214786E-04
(PID.TID 0000.0001) %MON forcing_fu_max               =   2.5443788048762E-01
(PID.TID 0000.0001) %MON forcing_fu_min               =  -3.3735096085150E-01
(PID.TID 0000.0001) %MON forcing_fu_mean              =  -3.1387030779809E-03
(PID.TID 0000.0001) %MON forcing_fu_sd                =   5.5645545118156E-02
(PID.TID 0000.0001) %MON forcing_fu_del2              =   5.6232791990385E-04
(PID.TID 0000.0001) %MON forcing_fv_max               =   2.7058592794047E-01
(PID.TID 0000.0001) %MON forcing_fv_min               =  -2.5506116361280E-01
(PID.TID 0000.0001) %MON forcing_fv_mean              =  -1.5402255979624E-02
(PID.TID 0000.0001) %MON forcing_fv_sd                =   5.9074977820734E-02
(PID.TID 0000.0001) %MON forcing_fv_del2              =   5.0749132840887E-04
(PID.TID 0000.0001) %MON trAdv_CFL_u_max              =   2.0565911921185E-03
(PID.TID 0000.0001) %MON trAdv_CFL_v_max              =   1.4377913659177E-03
(PID.TID 0000.0001) %MON trAdv_CFL_w_max              =   1.2057061975892E-03
(PID.TID 0000.0001) %MON advcfl_uvel_max              =   2.0481366932378E-03
(PID.TID 0000.0001) %MON advcfl_vvel_max              =   1.4121025513777E-03
(PID.TID 0000.0001) %MON advcfl_wvel_max              =   2.3240506649017E-03
(PID.TID 0000.0001) %MON advcfl_W_hf_max              =   1.2812042041801E-03
(PID.TID 0000.0001) %MON pe_b_mean                    =   4.9920698124671E-04
(PID.TID 0000.0001) %MON ke_max                       =   1.7878634547103E-01
(PID.TID 0000.0001) %MON ke_mean                      =   1.6385130328414E-04
(PID.TID 0000.0001) %MON ke_vol                       =   1.3398145683098E+18
(PID.TID 0000.0001) %MON vort_r_min                   =  -2.2851826199270E-06
(PID.TID 0000.0001) %MON vort_r_max                   =   2.7484097381270E-06
(PID.TID 0000.0001) %MON vort_a_mean                  =  -2.0549865324846E-05
(PID.TID 0000.0001) %MON vort_a_sd                    =   7.5259666229872E-05
(PID.TID 0000.0001) %MON vort_p_mean                  =  -2.4783240012533E-05
(PID.TID 0000.0001) %MON vort_p_sd                    =   1.2811930917683E-04
(PID.TID 0000.0001) %MON surfExpan_theta_mean         =  -4.8592997974350E-06
(PID.TID 0000.0001) %MON surfExpan_salt_mean          =   1.0190249670340E-06
(PID.TID 0000.0001) // =======================================================
(PID.TID 0000.0001) // End MONITOR dynamic field statistics
(PID.TID 0000.0001) // =======================================================
 cg2d: Sum(rhs),rhsMax =  -8.01393109801672E+01  3.61420942883256E+01
(PID.TID 0000.0001)      cg2d_init_res =   1.94246893706038E-01
(PID.TID 0000.0001)      cg2d_iters(min,last) =      -1      10
(PID.TID 0000.0001)      cg2d_last_res =   3.72141200036699E-08
(PID.TID 0000.0001) // =======================================================
(PID.TID 0000.0001) // Begin MONITOR dynamic field statistics
(PID.TID 0000.0001) // =======================================================
(PID.TID 0000.0001) %MON time_tsnumber                =                 72086
(PID.TID 0000.0001) %MON time_secondsf                =   6.4877400000000E+07
(PID.TID 0000.0001) %MON dynstat_eta_max              =   1.0166350888491E+00
(PID.TID 0000.0001) %MON dynstat_eta_min              =  -1.5564394717585E+00
(PID.TID 0000.0001) %MON dynstat_eta_mean             =   3.3655813462927E-02
(PID.TID 0000.0001) %MON dynstat_eta_sd               =   6.1114259655285E-01
(PID.TID 0000.0001) %MON dynstat_eta_del2             =   1.3056530825871E-03
(PID.TID 0000.0001) %MON dynstat_uvel_max             =   4.1685300900675E-01
(PID.TID 0000.0001) %MON dynstat_uvel_min             =  -7.0968737386616E-01
(PID.TID 0000.0001) %MON dynstat_uvel_mean            =  -4.6947614854596E-04
(PID.TID 0000.0001) %MON dynstat_uvel_sd              =   1.2902249727858E-02
(PID.TID 0000.0001) %MON dynstat_uvel_del2            =   8.4674637512920E-05
(PID.TID 0000.0001) %MON dynstat_vvel_max             =   3.3094948821553E-01
(PID.TID 0000.0001) %MON dynstat_vvel_min             =  -4.2080233385151E-01
(PID.TID 0000.0001) %MON dynstat_vvel_mean            =   1.6908722810913E-04
(PID.TID 0000.0001) %MON dynstat_vvel_sd              =   1.3705260935269E-02
(PID.TID 0000.0001) %MON dynstat_vvel_del2            =   8.7719542623923E-05
(PID.TID 0000.0001) %MON dynstat_wvel_max             =   1.0274026505866E-04
(PID.TID 0000.0001) %MON dynstat_wvel_min             =  -1.8160859577422E-04
(PID.TID 0000.0001) %MON dynstat_wvel_mean            =  -5.0466627147751E-08
(PID.TID 0000.0001) %MON dynstat_wvel_sd              =   7.5488299606805E-06
(PID.TID 0000.0001) %MON dynstat_wvel_del2            =   6.5495011160044E-08
(PID.TID 0000.0001) %MON dynstat_theta_max            =   3.0930638794584E+01
(PID.TID 0000.0001) %MON dynstat_theta_min            =  -3.0158477445587E+00
(PID.TID 0000.0001) %MON dynstat_theta_mean           =   3.9092927410284E+00
(PID.TID 0000.0001) %MON dynstat_theta_sd             =   4.5718985390927E+00
(PID.TID 0000.0001) %MON dynstat_theta_del2           =   2.6412009684752E-03
(PID.TID 0000.0001) %MON dynstat_salt_max             =   4.1346681878181E+01
(PID.TID 0000.0001) %MON dynstat_salt_min             =   1.8519240145121E+01
(PID.TID 0000.0001) %MON dynstat_salt_mean            =   3.4771902271277E+01
(PID.TID 0000.0001) %MON dynstat_salt_sd              =   5.3226976996697E-01
(PID.TID 0000.0001) %MON dynstat_salt_del2            =   1.1371351920848E-03
(PID.TID 0000.0001) %MON dynstat_sst_max              =   3.0930638794584E+01
(PID.TID 0000.0001) %MON dynstat_sst_min              =  -1.8981723872830E+00
(PID.TID 0000.0001) %MON dynstat_sst_mean             =   1.8114892711032E+01
(PID.TID 0000.0001) %MON dynstat_sst_sd               =   9.8132618322964E+00
(PID.TID 0000.0001) %MON dynstat_sst_del2             =   1.5048508721817E-02
(PID.TID 0000.0001) %MON dynstat_sss_max              =   4.1346681878181E+01
(PID.TID 0000.0001) %MON dynstat_sss_min              =   1.8752405754019E+01
(PID.TID 0000.0001) %MON dynstat_sss_mean             =   3.4620589648532E+01
(PID.TID 0000.0001) %MON dynstat_sss_sd               =   1.4906104285757E+00
(PID.TID 0000.0001) %MON dynstat_sss_del2             =   1.2907285550286E-02
(PID.TID 0000.0001) %MON forcing_qnet_max             =   1.4460037841797E+03
(PID.TID 0000.0001) %MON forcing_qnet_min             =  -8.5437086216440E+02
(PID.TID 0000.0001) %MON forcing_qnet_mean            =  -4.2720462422790E+01
(PID.TID 0000.0001) %MON forcing_qnet_sd              =   2.1340470621439E+02
(PID.TID 0000.0001) %MON forcing_qnet_del2            =   2.9949045415483E+00
(PID.TID 0000.0001) %MON forcing_qsw_max              =   0.0000000000000E+00
(PID.TID 0000.0001) %MON forcing_qsw_min              =  -4.1843614513350E+02
(PID.TID 0000.0001) %MON forcing_qsw_mean             =  -7.7424288931154E+01
(PID.TID 0000.0001) %MON forcing_qsw_sd               =   1.1283363087789E+02
(PID.TID 0000.0001) %MON forcing_qsw_del2             =   9.4848763102742E-01
(PID.TID 0000.0001) %MON forcing_empmr_max            =   4.5991935767233E-03
(PID.TID 0000.0001) %MON forcing_empmr_min            =  -6.6129244863987E-02
(PID.TID 0000.0001) %MON forcing_empmr_mean           =  -1.9407925199465E-04
(PID.TID 0000.0001) %MON forcing_empmr_sd             =   2.9139956590473E-03
(PID.TID 0000.0001) %MON forcing_empmr_del2           =   1.1454101577716E-04
(PID.TID 0000.0001) %MON forcing_fu_max               =   2.5140524290947E-01
(PID.TID 0000.0001) %MON forcing_fu_min               =  -3.3738099657395E-01
(PID.TID 0000.0001) %MON forcing_fu_mean              =  -3.2832391384620E-03
(PID.TID 0000.0001) %MON forcing_fu_sd                =   5.5316575455707E-02
(PID.TID 0000.0001) %MON forcing_fu_del2              =   5.5994043171717E-04
(PID.TID 0000.0001) %MON forcing_fv_max               =   2.6919058919230E-01
(PID.TID 0000.0001) %MON forcing_fv_min               =  -2.5534030402283E-01
(PID.TID 0000.0001) %MON forcing_fv_mean              =  -1.5409844283828E-02
(PID.TID 0000.0001) %MON forcing_fv_sd                =   5.8944390486815E-02
(PID.TID 0000.0001) %MON forcing_fv_del2              =   5.0566650158795E-04
(PID.TID 0000.0001) %MON trAdv_CFL_u_max              =   2.0572138887666E-03
(PID.TID 0000.0001) %MON trAdv_CFL_v_max              =   1.4012766046015E-03
(PID.TID 0000.0001) %MON trAdv_CFL_w_max              =   1.2380021667723E-03
(PID.TID 0000.0001) %MON advcfl_uvel_max              =   2.0473345519041E-03
(PID.TID 0000.0001) %MON advcfl_vvel_max              =   1.3732315115278E-03
(PID.TID 0000.0001) %MON advcfl_wvel_max              =   2.3001476474430E-03
(PID.TID 0000.0001) %MON advcfl_W_hf_max              =   1.2669622301921E-03
(PID.TID 0000.0001) %MON pe_b_mean                    =   4.9906916957605E-04
(PID.TID 0000.0001) %MON ke_max                       =   1.8364877935787E-01
(PID.TID 0000.0001) %MON ke_mean                      =   1.6373586760804E-04
(PID.TID 0000.0001) %MON ke_vol                       =   1.3398146308557E+18
(PID.TID 0000.0001) %MON vort_r_min                   =  -2.3060393349999E-06
(PID.TID 0000.0001) %MON vort_r_max                   =   2.7422895930826E-06
(PID.TID 0000.0001) %MON vort_a_mean                  =  -2.0549865324846E-05
(PID.TID 0000.0001) %MON vort_a_sd                    =   7.5259663165230E-05
(PID.TID 0000.0001) %MON vort_p_mean                  =  -2.4783238851574E-05
(PID.TID 0000.0001) %MON vort_p_sd                    =   1.2811931287424E-04
(PID.TID 0000.0001) %MON surfExpan_theta_mean         =  -4.7043780558115E-06
(PID.TID 0000.0001) %MON surfExpan_salt_mean          =   9.9517164742232E-07
(PID.TID 0000.0001) // =======================================================
(PID.TID 0000.0001) // End MONITOR dynamic field statistics
(PID.TID 0000.0001) // =======================================================
 cg2d: Sum(rhs),rhsMax =  -8.05413771452659E+01  3.61408539790220E+01
(PID.TID 0000.0001)      cg2d_init_res =   1.92849173044653E-01
(PID.TID 0000.0001)      cg2d_iters(min,last) =      -1      10
(PID.TID 0000.0001)      cg2d_last_res =   3.75916944562688E-08
(PID.TID 0000.0001) // =======================================================
(PID.TID 0000.0001) // Begin MONITOR dynamic field statistics
(PID.TID 0000.0001) // =======================================================
(PID.TID 0000.0001) %MON time_tsnumber                =                 72087
(PID.TID 0000.0001) %MON time_secondsf                =   6.4878300000000E+07
(PID.TID 0000.0001) %MON dynstat_eta_max              =   9.8145082743743E-01
(PID.TID 0000.0001) %MON dynstat_eta_min              =  -1.5568041969228E+00
(PID.TID 0000.0001) %MON dynstat_eta_mean             =   3.3823506939603E-02
(PID.TID 0000.0001) %MON dynstat_eta_sd               =   6.1104573320051E-01
(PID.TID 0000.0001) %MON dynstat_eta_del2             =   1.2838865852984E-03
(PID.TID 0000.0001) %MON dynstat_uvel_max             =   4.0946616815236E-01
(PID.TID 0000.0001) %MON dynstat_uvel_min             =  -7.0717478248208E-01
(PID.TID 0000.0001) %MON dynstat_uvel_mean            =  -4.8016764290279E-04
(PID.TID 0000.0001) %MON dynstat_uvel_sd              =   1.2891410586996E-02
(PID.TID 0000.0001) %MON dynstat_uvel_del2            =   8.4814130605310E-05
(PID.TID 0000.0001) %MON dynstat_vvel_max             =   3.3075770150744E-01
(PID.TID 0000.0001) %MON dynstat_vvel_min             =  -4.0297674702958E-01
(PID.TID 0000.0001) %MON dynstat_vvel_mean            =   1.5794040026068E-04
(PID.TID 0000.0001) %MON dynstat_vvel_sd              =   1.3704646843960E-02
(PID.TID 0000.0001) %MON dynstat_vvel_del2            =   8.7373945326426E-05
(PID.TID 0000.0001) %MON dynstat_wvel_max             =   1.0289593891354E-04
(PID.TID 0000.0001) %MON dynstat_wvel_min             =  -1.8169099819691E-04
(PID.TID 0000.0001) %MON dynstat_wvel_mean            =  -4.8095883522690E-08
(PID.TID 0000.0001) %MON dynstat_wvel_sd              =   7.5418417380625E-06
(PID.TID 0000.0001) %MON dynstat_wvel_del2            =   6.5183220906796E-08
(PID.TID 0000.0001) %MON dynstat_theta_max            =   3.0930284222316E+01
(PID.TID 0000.0001) %MON dynstat_theta_min            =  -3.0164378741336E+00
(PID.TID 0000.0001) %MON dynstat_theta_mean           =   3.9092963918676E+00
(PID.TID 0000.0001) %MON dynstat_theta_sd             =   4.5719128272069E+00
(PID.TID 0000.0001) %MON dynstat_theta_del2           =   2.6410898218246E-03
(PID.TID 0000.0001) %MON dynstat_salt_max             =   4.1346667926242E+01
(PID.TID 0000.0001) %MON dynstat_salt_min             =   1.8519250124329E+01
(PID.TID 0000.0001) %MON dynstat_salt_mean            =   3.4771900817302E+01
(PID.TID 0000.0001) %MON dynstat_salt_sd              =   5.3227957717603E-01
(PID.TID 0000.0001) %MON dynstat_salt_del2            =   1.1391964794633E-03
(PID.TID 0000.0001) %MON dynstat_sst_max              =   3.0930284222316E+01
(PID.TID 0000.0001) %MON dynstat_sst_min              =  -1.8980187853311E+00
(PID.TID 0000.0001) %MON dynstat_sst_mean             =   1.8115064537981E+01
(PID.TID 0000.0001) %MON dynstat_sst_sd               =   9.8134302918476E+00
(PID.TID 0000.0001) %MON dynstat_sst_del2             =   1.5046617443198E-02
(PID.TID 0000.0001) %MON dynstat_sss_max              =   4.1346667926242E+01
(PID.TID 0000.0001) %MON dynstat_sss_min              =   1.8752417549217E+01
(PID.TID 0000.0001) %MON dynstat_sss_mean             =   3.4620477721374E+01
(PID.TID 0000.0001) %MON dynstat_sss_sd               =   1.4908562100852E+00
(PID.TID 0000.0001) %MON dynstat_sss_del2             =   1.2936012393446E-02
(PID.TID 0000.0001) %MON forcing_qnet_max             =   1.4300262451172E+03
(PID.TID 0000.0001) %MON forcing_qnet_min             =  -1.3395828857422E+03
(PID.TID 0000.0001) %MON forcing_qnet_mean            =  -4.4043256941460E+01
(PID.TID 0000.0001) %MON forcing_qnet_sd              =   2.1549271318907E+02
(PID.TID 0000.0001) %MON forcing_qnet_del2            =   3.1437346624240E+00
(PID.TID 0000.0001) %MON forcing_qsw_max              =   0.0000000000000E+00
(PID.TID 0000.0001) %MON forcing_qsw_min              =  -4.1768201393183E+02
(PID.TID 0000.0001) %MON forcing_qsw_mean             =  -7.8130760019100E+01
(PID.TID 0000.0001) %MON forcing_qsw_sd               =   1.1361051961652E+02
(PID.TID 0000.0001) %MON forcing_qsw_del2             =   9.4486319653398E-01
(PID.TID 0000.0001) %MON forcing_empmr_max            =   4.5518614351749E-03
(PID.TID 0000.0001) %MON forcing_empmr_min            =  -6.5448746085167E-02
(PID.TID 0000.0001) %MON forcing_empmr_mean           =  -1.9284749817790E-04
(PID.TID 0000.0001) %MON forcing_empmr_sd             =   2.8843892631050E-03
(PID.TID 0000.0001) %MON forcing_empmr_del2           =   1.1333622628240E-04
(PID.TID 0000.0001) %MON forcing_fu_max               =   2.4720030295358E-01
(PID.TID 0000.0001) %MON forcing_fu_min               =  -3.3520865308165E-01
(PID.TID 0000.0001) %MON forcing_fu_mean              =  -3.3703498085237E-03
(PID.TID 0000.0001) %MON forcing_fu_sd                =   5.5001377205977E-02
(PID.TID 0000.0001) %MON forcing_fu_del2              =   5.5737321699196E-04
(PID.TID 0000.0001) %MON forcing_fv_max               =   2.6452073112524E-01
(PID.TID 0000.0001) %MON forcing_fv_min               =  -2.5554748967184E-01
(PID.TID 0000.0001) %MON forcing_fv_mean              =  -1.5418258049797E-02
(PID.TID 0000.0001) %MON forcing_fv_sd                =   5.8808331282780E-02
(PID.TID 0000.0001) %MON forcing_fv_del2              =   5.0363489112274E-04
(PID.TID 0000.0001) %MON trAdv_CFL_u_max              =   2.0514069303864E-03
(PID.TID 0000.0001) %MON trAdv_CFL_v_max              =   1.3445517337821E-03
(PID.TID 0000.0001) %MON trAdv_CFL_w_max              =   1.2619715474933E-03
(PID.TID 0000.0001) %MON advcfl_uvel_max              =   2.0400861276755E-03
(PID.TID 0000.0001) %MON advcfl_vvel_max              =   1.3150601194841E-03
(PID.TID 0000.0001) %MON advcfl_wvel_max              =   2.2764781247015E-03
(PID.TID 0000.0001) %MON advcfl_W_hf_max              =   1.2619715474933E-03
(PID.TID 0000.0001) %MON pe_b_mean                    =   4.9892651175532E-04
(PID.TID 0000.0001) %MON ke_max                       =   1.8758473436164E-01
(PID.TID 0000.0001) %MON ke_mean                      =   1.6360261200434E-04
(PID.TID 0000.0001) %MON ke_vol                       =   1.3398146922669E+18
(PID.TID 0000.0001) %MON vort_r_min                   =  -2.3442473275111E-06
(PID.TID 0000.0001) %MON vort_r_max                   =   2.7265143960133E-06
(PID.TID 0000.0001) %MON vort_a_mean                  =  -2.0549865324846E-05
(PID.TID 0000.0001) %MON vort_a_sd                    =   7.5259660523118E-05
(PID.TID 0000.0001) %MON vort_p_mean                  =  -2.4783237719458E-05
(PID.TID 0000.0001) %MON vort_p_sd                    =   1.2811931686536E-04
(PID.TID 0000.0001) %MON surfExpan_theta_mean         =  -4.5956456044529E-06
(PID.TID 0000.0001) %MON surfExpan_salt_mean          =   9.7176992333307E-07
(PID.TID 0000.0001) // =======================================================
(PID.TID 0000.0001) // End MONITOR dynamic field statistics
(PID.TID 0000.0001) // =======================================================
 Computing Diagnostic #     81  oceTAUX      Counter:       1   Parms: UU      U1      
           Vector  Mate for  oceTAUX      Diagnostic #     82  oceTAUY  exists 
 Computing Diagnostic #     82  oceTAUY      Counter:       1   Parms: VV      U1      
           Vector  Mate for  oceTAUY      Diagnostic #     81  oceTAUX  exists 
 Computing Diagnostic #     85  oceFWflx     Counter:       1   Parms: SM      U1      
 Computing Diagnostic #     86  oceSflux     Counter:       1   Parms: SM      U1      
 Computing Diagnostic #     87  oceQnet      Counter:       1   Parms: SM      U1      
 Computing Diagnostic #     88  oceQsw       Counter:       1   Parms: SM      U1      
 Computing Diagnostic #     27  SALT         Counter:       1   Parms: SMR     MR      
 Computing Diagnostic #     26  THETA        Counter:       1   Parms: SMR     MR      
 Computing Diagnostic #     45  UVELMASS     Counter:       1   Parms: UUr     MR      
           Vector  Mate for  UVELMASS     Diagnostic #     46  VVELMASS exists 
 Computing Diagnostic #     46  VVELMASS     Counter:       1   Parms: VVr     MR      
           Vector  Mate for  VVELMASS     Diagnostic #     45  UVELMASS exists 
 cg2d: Sum(rhs),rhsMax =  -8.09348176162108E+01  3.61418828114531E+01
(PID.TID 0000.0001)      cg2d_init_res =   1.90702544946711E-01
(PID.TID 0000.0001)      cg2d_iters(min,last) =      -1      10
(PID.TID 0000.0001)      cg2d_last_res =   3.69600881647733E-08
(PID.TID 0000.0001) // =======================================================
(PID.TID 0000.0001) // Begin MONITOR dynamic field statistics
(PID.TID 0000.0001) // =======================================================
(PID.TID 0000.0001) %MON time_tsnumber                =                 72088
(PID.TID 0000.0001) %MON time_secondsf                =   6.4879200000000E+07
(PID.TID 0000.0001) %MON dynstat_eta_max              =   9.7956095376900E-01
(PID.TID 0000.0001) %MON dynstat_eta_min              =  -1.5572882963690E+00
(PID.TID 0000.0001) %MON dynstat_eta_mean             =   3.3989700592875E-02
(PID.TID 0000.0001) %MON dynstat_eta_sd               =   6.1094314179704E-01
(PID.TID 0000.0001) %MON dynstat_eta_del2             =   1.2704430380564E-03
(PID.TID 0000.0001) %MON dynstat_uvel_max             =   3.9954968982130E-01
(PID.TID 0000.0001) %MON dynstat_uvel_min             =  -7.0239836412751E-01
(PID.TID 0000.0001) %MON dynstat_uvel_mean            =  -4.8997993720557E-04
(PID.TID 0000.0001) %MON dynstat_uvel_sd              =   1.2881400875970E-02
(PID.TID 0000.0001) %MON dynstat_uvel_del2            =   8.4933361439788E-05
(PID.TID 0000.0001) %MON dynstat_vvel_max             =   3.2653765463207E-01
(PID.TID 0000.0001) %MON dynstat_vvel_min             =  -3.7969813069732E-01
(PID.TID 0000.0001) %MON dynstat_vvel_mean            =   1.4886183505786E-04
(PID.TID 0000.0001) %MON dynstat_vvel_sd              =   1.3702255631166E-02
(PID.TID 0000.0001) %MON dynstat_vvel_del2            =   8.6908412832910E-05
(PID.TID 0000.0001) %MON dynstat_wvel_max             =   1.0306311809286E-04
(PID.TID 0000.0001) %MON dynstat_wvel_min             =  -1.8176058691292E-04
(PID.TID 0000.0001) %MON dynstat_wvel_mean            =  -4.5848912898799E-08
(PID.TID 0000.0001) %MON dynstat_wvel_sd              =   7.5375527651398E-06
(PID.TID 0000.0001) %MON dynstat_wvel_del2            =   6.4877721903714E-08
(PID.TID 0000.0001) %MON dynstat_theta_max            =   3.0929923218049E+01
(PID.TID 0000.0001) %MON dynstat_theta_min            =  -3.0170398509296E+00
(PID.TID 0000.0001) %MON dynstat_theta_mean           =   3.9093000760062E+00
(PID.TID 0000.0001) %MON dynstat_theta_sd             =   4.5719273747481E+00
(PID.TID 0000.0001) %MON dynstat_theta_del2           =   2.6409776368994E-03
(PID.TID 0000.0001) %MON dynstat_salt_max             =   4.1346661976473E+01
(PID.TID 0000.0001) %MON dynstat_salt_min             =   1.8519260114425E+01
(PID.TID 0000.0001) %MON dynstat_salt_mean            =   3.4771899392941E+01
(PID.TID 0000.0001) %MON dynstat_salt_sd              =   5.3228923635204E-01
(PID.TID 0000.0001) %MON dynstat_salt_del2            =   1.1412114235519E-03
(PID.TID 0000.0001) %MON dynstat_sst_max              =   3.0929923218049E+01
(PID.TID 0000.0001) %MON dynstat_sst_min              =  -1.8978653588474E+00
(PID.TID 0000.0001) %MON dynstat_sst_mean             =   1.8115240404511E+01
(PID.TID 0000.0001) %MON dynstat_sst_sd               =   9.8136032742881E+00
(PID.TID 0000.0001) %MON dynstat_sst_del2             =   1.5044701749893E-02
(PID.TID 0000.0001) %MON dynstat_sss_max              =   4.1346661976473E+01
(PID.TID 0000.0001) %MON dynstat_sss_min              =   1.8752429324402E+01
(PID.TID 0000.0001) %MON dynstat_sss_mean             =   3.4620368200427E+01
(PID.TID 0000.0001) %MON dynstat_sss_sd               =   1.4910977153447E+00
(PID.TID 0000.0001) %MON dynstat_sss_del2             =   1.2964085641981E-02
(PID.TID 0000.0001) %MON forcing_qnet_max             =   1.4142384033203E+03
(PID.TID 0000.0001) %MON forcing_qnet_min             =  -8.3404734144040E+02
(PID.TID 0000.0001) %MON forcing_qnet_mean            =  -4.4804473422150E+01
(PID.TID 0000.0001) %MON forcing_qnet_sd              =   2.1527534402771E+02
(PID.TID 0000.0001) %MON forcing_qnet_del2            =   2.9369741182663E+00
(PID.TID 0000.0001) %MON forcing_qsw_max              =   0.0000000000000E+00
(PID.TID 0000.0001) %MON forcing_qsw_min              =  -4.2082365533032E+02
(PID.TID 0000.0001) %MON forcing_qsw_mean             =  -7.8623812809257E+01
(PID.TID 0000.0001) %MON forcing_qsw_sd               =   1.1430934027068E+02
(PID.TID 0000.0001) %MON forcing_qsw_del2             =   9.4044511415073E-01
(PID.TID 0000.0001) %MON forcing_empmr_max            =   4.5049227774143E-03
(PID.TID 0000.0001) %MON forcing_empmr_min            =  -6.4774960279465E-02
(PID.TID 0000.0001) %MON forcing_empmr_mean           =  -1.9112270126276E-04
(PID.TID 0000.0001) %MON forcing_empmr_sd             =   2.8550742820915E-03
(PID.TID 0000.0001) %MON forcing_empmr_del2           =   1.1215220112360E-04
(PID.TID 0000.0001) %MON forcing_fu_max               =   2.4916754766386E-01
(PID.TID 0000.0001) %MON forcing_fu_min               =  -3.3327753361469E-01
(PID.TID 0000.0001) %MON forcing_fu_mean              =  -3.4293050384483E-03
(PID.TID 0000.0001) %MON forcing_fu_sd                =   5.4822647189322E-02
(PID.TID 0000.0001) %MON forcing_fu_del2              =   5.5526575452080E-04
(PID.TID 0000.0001) %MON forcing_fv_max               =   2.6459016231576E-01
(PID.TID 0000.0001) %MON forcing_fv_min               =  -2.5540544143971E-01
(PID.TID 0000.0001) %MON forcing_fv_mean              =  -1.5439566801397E-02
(PID.TID 0000.0001) %MON forcing_fv_sd                =   5.8703597792389E-02
(PID.TID 0000.0001) %MON forcing_fv_del2              =   5.0226249268374E-04
(PID.TID 0000.0001) %MON trAdv_CFL_u_max              =   2.0390624249092E-03
(PID.TID 0000.0001) %MON trAdv_CFL_v_max              =   1.2693713827922E-03
(PID.TID 0000.0001) %MON trAdv_CFL_w_max              =   1.2781821591967E-03
(PID.TID 0000.0001) %MON advcfl_uvel_max              =   2.0263069247591E-03
(PID.TID 0000.0001) %MON advcfl_vvel_max              =   1.2390935030454E-03
(PID.TID 0000.0001) %MON advcfl_wvel_max              =   2.2530420966770E-03
(PID.TID 0000.0001) %MON advcfl_W_hf_max              =   1.2781821591967E-03
(PID.TID 0000.0001) %MON pe_b_mean                    =   4.9877449423232E-04
(PID.TID 0000.0001) %MON ke_max                       =   1.9052392161058E-01
(PID.TID 0000.0001) %MON ke_mean                      =   1.6345679090627E-04
(PID.TID 0000.0001) %MON ke_vol                       =   1.3398147532883E+18
(PID.TID 0000.0001) %MON vort_r_min                   =  -2.3823967184431E-06
(PID.TID 0000.0001) %MON vort_r_max                   =   2.7012549364000E-06
(PID.TID 0000.0001) %MON vort_a_mean                  =  -2.0549865324846E-05
(PID.TID 0000.0001) %MON vort_a_sd                    =   7.5259658321363E-05
(PID.TID 0000.0001) %MON vort_p_mean                  =  -2.4783236603796E-05
(PID.TID 0000.0001) %MON vort_p_sd                    =   1.2811932083569E-04
(PID.TID 0000.0001) %MON surfExpan_theta_mean         =  -4.4772211349035E-06
(PID.TID 0000.0001) %MON surfExpan_salt_mean          =   9.4775814089491E-07
(PID.TID 0000.0001) // =======================================================
(PID.TID 0000.0001) // End MONITOR dynamic field statistics
(PID.TID 0000.0001) // =======================================================
 cg2d: Sum(rhs),rhsMax =  -8.13158301460067E+01  3.61461061923913E+01
(PID.TID 0000.0001)      cg2d_init_res =   1.87861761461920E-01
(PID.TID 0000.0001)      cg2d_iters(min,last) =      -1      10
(PID.TID 0000.0001)      cg2d_last_res =   3.66083474126376E-08
(PID.TID 0000.0001) // =======================================================
(PID.TID 0000.0001) // Begin MONITOR dynamic field statistics
(PID.TID 0000.0001) // =======================================================
(PID.TID 0000.0001) %MON time_tsnumber                =                 72089
(PID.TID 0000.0001) %MON time_secondsf                =   6.4880100000000E+07
(PID.TID 0000.0001) %MON dynstat_eta_max              =   9.7718638942788E-01
(PID.TID 0000.0001) %MON dynstat_eta_min              =  -1.5579004083324E+00
(PID.TID 0000.0001) %MON dynstat_eta_mean             =   3.4153702680511E-02
(PID.TID 0000.0001) %MON dynstat_eta_sd               =   6.1083137735967E-01
(PID.TID 0000.0001) %MON dynstat_eta_del2             =   1.2646213441276E-03
(PID.TID 0000.0001) %MON dynstat_uvel_max             =   3.8751448145859E-01
(PID.TID 0000.0001) %MON dynstat_uvel_min             =  -6.9534773040762E-01
(PID.TID 0000.0001) %MON dynstat_uvel_mean            =  -4.9894190703136E-04
(PID.TID 0000.0001) %MON dynstat_uvel_sd              =   1.2872153739858E-02
(PID.TID 0000.0001) %MON dynstat_uvel_del2            =   8.5024442981291E-05
(PID.TID 0000.0001) %MON dynstat_vvel_max             =   3.1849281215082E-01
(PID.TID 0000.0001) %MON dynstat_vvel_min             =  -3.5149806659008E-01
(PID.TID 0000.0001) %MON dynstat_vvel_mean            =   1.4193167712760E-04
(PID.TID 0000.0001) %MON dynstat_vvel_sd              =   1.3698412416672E-02
(PID.TID 0000.0001) %MON dynstat_vvel_del2            =   8.6371198622408E-05
(PID.TID 0000.0001) %MON dynstat_wvel_max             =   1.0323903075923E-04
(PID.TID 0000.0001) %MON dynstat_wvel_min             =  -1.8183705157965E-04
(PID.TID 0000.0001) %MON dynstat_wvel_mean            =  -4.3730876853944E-08
(PID.TID 0000.0001) %MON dynstat_wvel_sd              =   7.5359965069790E-06
(PID.TID 0000.0001) %MON dynstat_wvel_del2            =   6.4584639032323E-08
(PID.TID 0000.0001) %MON dynstat_theta_max            =   3.0929554494261E+01
(PID.TID 0000.0001) %MON dynstat_theta_min            =  -3.0176542328351E+00
(PID.TID 0000.0001) %MON dynstat_theta_mean           =   3.9093039014667E+00
(PID.TID 0000.0001) %MON dynstat_theta_sd             =   4.5719426953839E+00
(PID.TID 0000.0001) %MON dynstat_theta_del2           =   2.6408638230935E-03
(PID.TID 0000.0001) %MON dynstat_salt_max             =   4.1346665137597E+01
(PID.TID 0000.0001) %MON dynstat_salt_min             =   1.8519270115124E+01
(PID.TID 0000.0001) %MON dynstat_salt_mean            =   3.4771897996725E+01
(PID.TID 0000.0001) %MON dynstat_salt_sd              =   5.3229874673906E-01
(PID.TID 0000.0001) %MON dynstat_salt_del2            =   1.1431795889607E-03
(PID.TID 0000.0001) %MON dynstat_sst_max              =   3.0929554494261E+01
(PID.TID 0000.0001) %MON dynstat_sst_min              =  -1.8977130488849E+00
(PID.TID 0000.0001) %MON dynstat_sst_mean             =   1.8115428408338E+01
(PID.TID 0000.0001) %MON dynstat_sst_sd               =   9.8137865807444E+00
(PID.TID 0000.0001) %MON dynstat_sst_del2             =   1.5042752657188E-02
(PID.TID 0000.0001) %MON dynstat_sss_max              =   4.1346665137597E+01
(PID.TID 0000.0001) %MON dynstat_sss_min              =   1.8752440929394E+01
(PID.TID 0000.0001) %MON dynstat_sss_mean             =   3.4620260882221E+01
(PID.TID 0000.0001) %MON dynstat_sss_sd               =   1.4913348578215E+00
(PID.TID 0000.0001) %MON dynstat_sss_del2             =   1.2991498994590E-02
(PID.TID 0000.0001) %MON forcing_qnet_max             =   1.3986376953125E+03
(PID.TID 0000.0001) %MON forcing_qnet_min             =  -8.2624719238281E+02
(PID.TID 0000.0001) %MON forcing_qnet_mean            =  -4.7447387791218E+01
(PID.TID 0000.0001) %MON forcing_qnet_sd              =   2.1888656590560E+02
(PID.TID 0000.0001) %MON forcing_qnet_del2            =   3.0594197908283E+00
(PID.TID 0000.0001) %MON forcing_qsw_max              =   0.0000000000000E+00
(PID.TID 0000.0001) %MON forcing_qsw_min              =  -4.2629033419495E+02
(PID.TID 0000.0001) %MON forcing_qsw_mean             =  -8.0096866618729E+01
(PID.TID 0000.0001) %MON forcing_qsw_sd               =   1.1637876700450E+02
(PID.TID 0000.0001) %MON forcing_qsw_del2             =   9.5436495591253E-01
(PID.TID 0000.0001) %MON forcing_empmr_max            =   4.4585750438273E-03
(PID.TID 0000.0001) %MON forcing_empmr_min            =  -6.4107887446880E-02
(PID.TID 0000.0001) %MON forcing_empmr_mean           =  -1.8860240078150E-04
(PID.TID 0000.0001) %MON forcing_empmr_sd             =   2.8261695448708E-03
(PID.TID 0000.0001) %MON forcing_empmr_del2           =   1.1096762005805E-04
(PID.TID 0000.0001) %MON forcing_fu_max               =   2.5357433754977E-01
(PID.TID 0000.0001) %MON forcing_fu_min               =  -3.3250852221384E-01
(PID.TID 0000.0001) %MON forcing_fu_mean              =  -3.5104542170702E-03
(PID.TID 0000.0001) %MON forcing_fu_sd                =   5.4680166662843E-02
(PID.TID 0000.0001) %MON forcing_fu_del2              =   5.5380827086052E-04
(PID.TID 0000.0001) %MON forcing_fv_max               =   2.5948853187004E-01
(PID.TID 0000.0001) %MON forcing_fv_min               =  -2.5492509714409E-01
(PID.TID 0000.0001) %MON forcing_fv_mean              =  -1.5452614633390E-02
(PID.TID 0000.0001) %MON forcing_fv_sd                =   5.8565720145126E-02
(PID.TID 0000.0001) %MON forcing_fv_del2              =   5.0034523337668E-04
(PID.TID 0000.0001) %MON trAdv_CFL_u_max              =   2.0201254762344E-03
(PID.TID 0000.0001) %MON trAdv_CFL_v_max              =   1.1777348844055E-03
(PID.TID 0000.0001) %MON trAdv_CFL_w_max              =   1.2873358080675E-03
(PID.TID 0000.0001) %MON advcfl_uvel_max              =   2.0059669742977E-03
(PID.TID 0000.0001) %MON advcfl_vvel_max              =   1.1648582298945E-03
(PID.TID 0000.0001) %MON advcfl_wvel_max              =   2.2298395633698E-03
(PID.TID 0000.0001) %MON advcfl_W_hf_max              =   1.2873358080675E-03
(PID.TID 0000.0001) %MON pe_b_mean                    =   4.9860745021723E-04
(PID.TID 0000.0001) %MON ke_max                       =   1.9241304686124E-01
(PID.TID 0000.0001) %MON ke_mean                      =   1.6330168215032E-04
(PID.TID 0000.0001) %MON ke_vol                       =   1.3398148137640E+18
(PID.TID 0000.0001) %MON vort_r_min                   =  -2.4202642503427E-06
(PID.TID 0000.0001) %MON vort_r_max                   =   2.6667608950140E-06
(PID.TID 0000.0001) %MON vort_a_mean                  =  -2.0549865324846E-05
(PID.TID 0000.0001) %MON vort_a_sd                    =   7.5259656567421E-05
(PID.TID 0000.0001) %MON vort_p_mean                  =  -2.4783235507420E-05
(PID.TID 0000.0001) %MON vort_p_sd                    =   1.2811932453891E-04
(PID.TID 0000.0001) %MON surfExpan_theta_mean         =  -4.3471999439714E-06
(PID.TID 0000.0001) %MON surfExpan_salt_mean          =   9.2360660134321E-07
(PID.TID 0000.0001) // =======================================================
(PID.TID 0000.0001) // End MONITOR dynamic field statistics
(PID.TID 0000.0001) // =======================================================
 cg2d: Sum(rhs),rhsMax =  -8.16856732813440E+01  3.61541286567285E+01
(PID.TID 0000.0001)      cg2d_init_res =   1.84393300167357E-01
(PID.TID 0000.0001)      cg2d_iters(min,last) =      -1      10
(PID.TID 0000.0001)      cg2d_last_res =   3.59552778226090E-08
(PID.TID 0000.0001) // =======================================================
(PID.TID 0000.0001) // Begin MONITOR dynamic field statistics
(PID.TID 0000.0001) // =======================================================
(PID.TID 0000.0001) %MON time_tsnumber                =                 72090
(PID.TID 0000.0001) %MON time_secondsf                =   6.4881000000000E+07
(PID.TID 0000.0001) %MON dynstat_eta_max              =   9.7437520233071E-01
(PID.TID 0000.0001) %MON dynstat_eta_min              =  -1.5586476680384E+00
(PID.TID 0000.0001) %MON dynstat_eta_mean             =   3.4316656327455E-02
(PID.TID 0000.0001) %MON dynstat_eta_sd               =   6.1070791835806E-01
(PID.TID 0000.0001) %MON dynstat_eta_del2             =   1.2651593006811E-03
(PID.TID 0000.0001) %MON dynstat_uvel_max             =   3.7381190328853E-01
(PID.TID 0000.0001) %MON dynstat_uvel_min             =  -6.8603201457257E-01
(PID.TID 0000.0001) %MON dynstat_uvel_mean            =  -5.0710057433651E-04
(PID.TID 0000.0001) %MON dynstat_uvel_sd              =   1.2863523768783E-02
(PID.TID 0000.0001) %MON dynstat_uvel_del2            =   8.5080902798749E-05
(PID.TID 0000.0001) %MON dynstat_vvel_max             =   3.0687696189149E-01
(PID.TID 0000.0001) %MON dynstat_vvel_min             =  -3.4332676887833E-01
(PID.TID 0000.0001) %MON dynstat_vvel_mean            =   1.3719704091592E-04
(PID.TID 0000.0001) %MON dynstat_vvel_sd              =   1.3693547992841E-02
(PID.TID 0000.0001) %MON dynstat_vvel_del2            =   8.5813775420793E-05
(PID.TID 0000.0001) %MON dynstat_wvel_max             =   1.0342103119655E-04
(PID.TID 0000.0001) %MON dynstat_wvel_min             =  -1.8191575716395E-04
(PID.TID 0000.0001) %MON dynstat_wvel_mean            =  -4.2744126938384E-08
(PID.TID 0000.0001) %MON dynstat_wvel_sd              =   7.5369782405568E-06
(PID.TID 0000.0001) %MON dynstat_wvel_del2            =   6.4306977289812E-08
(PID.TID 0000.0001) %MON dynstat_theta_max            =   3.0929180353045E+01
(PID.TID 0000.0001) %MON dynstat_theta_min            =  -3.0182816615262E+00
(PID.TID 0000.0001) %MON dynstat_theta_mean           =   3.9093078210559E+00
(PID.TID 0000.0001) %MON dynstat_theta_sd             =   4.5719584704195E+00
(PID.TID 0000.0001) %MON dynstat_theta_del2           =   2.6407435923287E-03
(PID.TID 0000.0001) %MON dynstat_salt_max             =   4.1346678984653E+01
(PID.TID 0000.0001) %MON dynstat_salt_min             =   1.8519280125950E+01
(PID.TID 0000.0001) %MON dynstat_salt_mean            =   3.4771896617874E+01
(PID.TID 0000.0001) %MON dynstat_salt_sd              =   5.3230811918380E-01
(PID.TID 0000.0001) %MON dynstat_salt_del2            =   1.1451014631801E-03
(PID.TID 0000.0001) %MON dynstat_sst_max              =   3.0929180353045E+01
(PID.TID 0000.0001) %MON dynstat_sst_min              =  -1.8975639062445E+00
(PID.TID 0000.0001) %MON dynstat_sst_mean             =   1.8115622877853E+01
(PID.TID 0000.0001) %MON dynstat_sst_sd               =   9.8139740122749E+00
(PID.TID 0000.0001) %MON dynstat_sst_del2             =   1.5040744963654E-02
(PID.TID 0000.0001) %MON dynstat_sss_max              =   4.1346678984653E+01
(PID.TID 0000.0001) %MON dynstat_sss_min              =   1.8752452438945E+01
(PID.TID 0000.0001) %MON dynstat_sss_mean             =   3.4620154385125E+01
(PID.TID 0000.0001) %MON dynstat_sss_sd               =   1.4915680454764E+00
(PID.TID 0000.0001) %MON dynstat_sss_del2             =   1.3018280975567E-02
(PID.TID 0000.0001) %MON forcing_qnet_max             =   1.3823934326172E+03
(PID.TID 0000.0001) %MON forcing_qnet_min             =  -8.1257803413143E+02
(PID.TID 0000.0001) %MON forcing_qnet_mean            =  -4.9101652907288E+01
(PID.TID 0000.0001) %MON forcing_qnet_sd              =   2.2036938280262E+02
(PID.TID 0000.0001) %MON forcing_qnet_del2            =   2.8919000327194E+00
(PID.TID 0000.0001) %MON forcing_qsw_max              =   0.0000000000000E+00
(PID.TID 0000.0001) %MON forcing_qsw_min              =  -4.2794717836872E+02
(PID.TID 0000.0001) %MON forcing_qsw_mean             =  -8.1050622093583E+01
(PID.TID 0000.0001) %MON forcing_qsw_sd               =   1.1737362852643E+02
(PID.TID 0000.0001) %MON forcing_qsw_del2             =   9.5661516530875E-01
(PID.TID 0000.0001) %MON forcing_empmr_max            =   4.4126203283668E-03
(PID.TID 0000.0001) %MON forcing_empmr_min            =  -6.3448362052441E-02
(PID.TID 0000.0001) %MON forcing_empmr_mean           =  -1.8739669398559E-04
(PID.TID 0000.0001) %MON forcing_empmr_sd             =   2.7975398764599E-03
(PID.TID 0000.0001) %MON forcing_empmr_del2           =   1.0981393548694E-04
(PID.TID 0000.0001) %MON forcing_fu_max               =   2.4706733759958E-01
(PID.TID 0000.0001) %MON forcing_fu_min               =  -3.3225216568020E-01
(PID.TID 0000.0001) %MON forcing_fu_mean              =  -3.6214167705333E-03
(PID.TID 0000.0001) %MON forcing_fu_sd                =   5.4360802091777E-02
(PID.TID 0000.0001) %MON forcing_fu_del2              =   5.5107253301185E-04
(PID.TID 0000.0001) %MON forcing_fv_max               =   2.5829615388127E-01
(PID.TID 0000.0001) %MON forcing_fv_min               =  -2.5437601929946E-01
(PID.TID 0000.0001) %MON forcing_fv_mean              =  -1.5450450716397E-02
(PID.TID 0000.0001) %MON forcing_fv_sd                =   5.8439010534689E-02
(PID.TID 0000.0001) %MON forcing_fv_del2              =   4.9998370337396E-04
(PID.TID 0000.0001) %MON trAdv_CFL_u_max              =   1.9945966062590E-03
(PID.TID 0000.0001) %MON trAdv_CFL_v_max              =   1.1540125941288E-03
(PID.TID 0000.0001) %MON trAdv_CFL_w_max              =   1.2902362957701E-03
(PID.TID 0000.0001) %MON advcfl_uvel_max              =   1.9790926242569E-03
(PID.TID 0000.0001) %MON advcfl_vvel_max              =   1.1566923485897E-03
(PID.TID 0000.0001) %MON advcfl_wvel_max              =   2.2068995496501E-03
(PID.TID 0000.0001) %MON advcfl_W_hf_max              =   1.2902362957701E-03
(PID.TID 0000.0001) %MON pe_b_mean                    =   4.9842138676051E-04
(PID.TID 0000.0001) %MON ke_max                       =   1.9321708101882E-01
(PID.TID 0000.0001) %MON ke_mean                      =   1.6314100185975E-04
(PID.TID 0000.0001) %MON ke_vol                       =   1.3398148734422E+18
(PID.TID 0000.0001) %MON vort_r_min                   =  -2.4630548600339E-06
(PID.TID 0000.0001) %MON vort_r_max                   =   2.6233571557377E-06
(PID.TID 0000.0001) %MON vort_a_mean                  =  -2.0549865324846E-05
(PID.TID 0000.0001) %MON vort_a_sd                    =   7.5259655256848E-05
(PID.TID 0000.0001) %MON vort_p_mean                  =  -2.4783234434074E-05
(PID.TID 0000.0001) %MON vort_p_sd                    =   1.2811932778061E-04
(PID.TID 0000.0001) %MON surfExpan_theta_mean         =  -4.2441607797656E-06
(PID.TID 0000.0001) %MON surfExpan_salt_mean          =   8.9938252538370E-07
(PID.TID 0000.0001) // =======================================================
(PID.TID 0000.0001) // End MONITOR dynamic field statistics
(PID.TID 0000.0001) // =======================================================
 cg2d: Sum(rhs),rhsMax =  -8.20430786677151E+01  3.61660984514787E+01
(PID.TID 0000.0001)      cg2d_init_res =   1.80463488832973E-01
(PID.TID 0000.0001)      cg2d_iters(min,last) =      -1      10
(PID.TID 0000.0001)      cg2d_last_res =   3.51832605498077E-08
(PID.TID 0000.0001) // =======================================================
(PID.TID 0000.0001) // Begin MONITOR dynamic field statistics
(PID.TID 0000.0001) // =======================================================
(PID.TID 0000.0001) %MON time_tsnumber                =                 72091
(PID.TID 0000.0001) %MON time_secondsf                =   6.4881900000000E+07
(PID.TID 0000.0001) %MON dynstat_eta_max              =   9.7114756022827E-01
(PID.TID 0000.0001) %MON dynstat_eta_min              =  -1.5595350837001E+00
(PID.TID 0000.0001) %MON dynstat_eta_mean             =   3.4478215700565E-02
(PID.TID 0000.0001) %MON dynstat_eta_sd               =   6.1056935371043E-01
(PID.TID 0000.0001) %MON dynstat_eta_del2             =   1.2704095471273E-03
(PID.TID 0000.0001) %MON dynstat_uvel_max             =   3.5892039028222E-01
(PID.TID 0000.0001) %MON dynstat_uvel_min             =  -6.7448009628735E-01
(PID.TID 0000.0001) %MON dynstat_uvel_mean            =  -5.1450263540753E-04
(PID.TID 0000.0001) %MON dynstat_uvel_sd              =   1.2855535620169E-02
(PID.TID 0000.0001) %MON dynstat_uvel_del2            =   8.5099899120198E-05
(PID.TID 0000.0001) %MON dynstat_vvel_max             =   2.9198762129824E-01
(PID.TID 0000.0001) %MON dynstat_vvel_min             =  -3.4508095849460E-01
(PID.TID 0000.0001) %MON dynstat_vvel_mean            =   1.3465639637760E-04
(PID.TID 0000.0001) %MON dynstat_vvel_sd              =   1.3688137357684E-02
(PID.TID 0000.0001) %MON dynstat_vvel_del2            =   8.5286154490649E-05
(PID.TID 0000.0001) %MON dynstat_wvel_max             =   1.0360646845967E-04
(PID.TID 0000.0001) %MON dynstat_wvel_min             =  -1.8198339495316E-04
(PID.TID 0000.0001) %MON dynstat_wvel_mean            =  -4.1890117359677E-08
(PID.TID 0000.0001) %MON dynstat_wvel_sd              =   7.5408262734471E-06
(PID.TID 0000.0001) %MON dynstat_wvel_del2            =   6.4049908464737E-08
(PID.TID 0000.0001) %MON dynstat_theta_max            =   3.0928798328297E+01
(PID.TID 0000.0001) %MON dynstat_theta_min            =  -3.0189227964093E+00
(PID.TID 0000.0001) %MON dynstat_theta_mean           =   3.9093117930153E+00
(PID.TID 0000.0001) %MON dynstat_theta_sd             =   4.5719745344141E+00
(PID.TID 0000.0001) %MON dynstat_theta_del2           =   2.6406265449435E-03
(PID.TID 0000.0001) %MON dynstat_salt_max             =   4.1346704693642E+01
(PID.TID 0000.0001) %MON dynstat_salt_min             =   1.8519290146290E+01
(PID.TID 0000.0001) %MON dynstat_salt_mean            =   3.4771895250208E+01
(PID.TID 0000.0001) %MON dynstat_salt_sd              =   5.3231734251120E-01
(PID.TID 0000.0001) %MON dynstat_salt_del2            =   1.1469812145864E-03
(PID.TID 0000.0001) %MON dynstat_sst_max              =   3.0928798328297E+01
(PID.TID 0000.0001) %MON dynstat_sst_min              =  -1.8974198612896E+00
(PID.TID 0000.0001) %MON dynstat_sst_mean             =   1.8115824695126E+01
(PID.TID 0000.0001) %MON dynstat_sst_sd               =   9.8141648800393E+00
(PID.TID 0000.0001) %MON dynstat_sst_del2             =   1.5038712583724E-02
(PID.TID 0000.0001) %MON dynstat_sss_max              =   4.1346704693642E+01
(PID.TID 0000.0001) %MON dynstat_sss_min              =   1.8752463927626E+01
(PID.TID 0000.0001) %MON dynstat_sss_mean             =   3.4620049568826E+01
(PID.TID 0000.0001) %MON dynstat_sss_sd               =   1.4917968143260E+00
(PID.TID 0000.0001) %MON dynstat_sss_del2             =   1.3044451774578E-02
(PID.TID 0000.0001) %MON forcing_qnet_max             =   1.7313664550781E+03
(PID.TID 0000.0001) %MON forcing_qnet_min             =  -8.0224951492851E+02
(PID.TID 0000.0001) %MON forcing_qnet_mean            =  -5.0140174957447E+01
(PID.TID 0000.0001) %MON forcing_qnet_sd              =   2.2431198946546E+02
(PID.TID 0000.0001) %MON forcing_qnet_del2            =   3.2342677667280E+00
(PID.TID 0000.0001) %MON forcing_qsw_max              =   0.0000000000000E+00
(PID.TID 0000.0001) %MON forcing_qsw_min              =  -4.2788049117510E+02
(PID.TID 0000.0001) %MON forcing_qsw_mean             =  -8.1822256191420E+01
(PID.TID 0000.0001) %MON forcing_qsw_sd               =   1.1819473572526E+02
(PID.TID 0000.0001) %MON forcing_qsw_del2             =   9.5766968134668E-01
(PID.TID 0000.0001) %MON forcing_empmr_max            =   4.3671578168869E-03
(PID.TID 0000.0001) %MON forcing_empmr_min            =  -6.2795557081699E-02
(PID.TID 0000.0001) %MON forcing_empmr_mean           =  -1.8579327907594E-04
(PID.TID 0000.0001) %MON forcing_empmr_sd             =   2.7693232297633E-03
(PID.TID 0000.0001) %MON forcing_empmr_del2           =   1.0865498110724E-04
(PID.TID 0000.0001) %MON forcing_fu_max               =   2.4209146684815E-01
(PID.TID 0000.0001) %MON forcing_fu_min               =  -3.3205971619424E-01
(PID.TID 0000.0001) %MON forcing_fu_mean              =  -3.7263138497799E-03
(PID.TID 0000.0001) %MON forcing_fu_sd                =   5.4070166897384E-02
(PID.TID 0000.0001) %MON forcing_fu_del2              =   5.4932382011933E-04
(PID.TID 0000.0001) %MON forcing_fv_max               =   2.5062832710122E-01
(PID.TID 0000.0001) %MON forcing_fv_min               =  -2.5336277472482E-01
(PID.TID 0000.0001) %MON forcing_fv_mean              =  -1.5454217260710E-02
(PID.TID 0000.0001) %MON forcing_fv_sd                =   5.8249267659403E-02
(PID.TID 0000.0001) %MON forcing_fv_del2              =   4.9796393420224E-04
(PID.TID 0000.0001) %MON trAdv_CFL_u_max              =   1.9625331062492E-03
(PID.TID 0000.0001) %MON trAdv_CFL_v_max              =   1.1446980529964E-03
(PID.TID 0000.0001) %MON trAdv_CFL_w_max              =   1.2877737553671E-03
(PID.TID 0000.0001) %MON advcfl_uvel_max              =   1.9457671878506E-03
(PID.TID 0000.0001) %MON advcfl_vvel_max              =   1.1464637751411E-03
(PID.TID 0000.0001) %MON advcfl_wvel_max              =   2.1841932897982E-03
(PID.TID 0000.0001) %MON advcfl_W_hf_max              =   1.2877737553671E-03
(PID.TID 0000.0001) %MON pe_b_mean                    =   4.9821073306372E-04
(PID.TID 0000.0001) %MON ke_max                       =   1.9291996412080E-01
(PID.TID 0000.0001) %MON ke_mean                      =   1.6298104805634E-04
(PID.TID 0000.0001) %MON ke_vol                       =   1.3398149327389E+18
(PID.TID 0000.0001) %MON vort_r_min                   =  -2.5095999783284E-06
(PID.TID 0000.0001) %MON vort_r_max                   =   2.5714390582921E-06
(PID.TID 0000.0001) %MON vort_a_mean                  =  -2.0549865324846E-05
(PID.TID 0000.0001) %MON vort_a_sd                    =   7.5259654375897E-05
(PID.TID 0000.0001) %MON vort_p_mean                  =  -2.4783233374820E-05
(PID.TID 0000.0001) %MON vort_p_sd                    =   1.2811933032444E-04
(PID.TID 0000.0001) %MON surfExpan_theta_mean         =  -4.1374140441132E-06
(PID.TID 0000.0001) %MON surfExpan_salt_mean          =   8.7600137403010E-07
(PID.TID 0000.0001) // =======================================================
(PID.TID 0000.0001) // End MONITOR dynamic field statistics
(PID.TID 0000.0001) // =======================================================
 Computing Diagnostic #     81  oceTAUX      Counter:       1   Parms: UU      U1      
           Vector  Mate for  oceTAUX      Diagnostic #     82  oceTAUY  exists 
 Computing Diagnostic #     82  oceTAUY      Counter:       1   Parms: VV      U1      
           Vector  Mate for  oceTAUY      Diagnostic #     81  oceTAUX  exists 
 Computing Diagnostic #     85  oceFWflx     Counter:       1   Parms: SM      U1      
 Computing Diagnostic #     86  oceSflux     Counter:       1   Parms: SM      U1      
 Computing Diagnostic #     87  oceQnet      Counter:       1   Parms: SM      U1      
 Computing Diagnostic #     88  oceQsw       Counter:       1   Parms: SM      U1      
 Computing Diagnostic #     27  SALT         Counter:       1   Parms: SMR     MR      
 Computing Diagnostic #     26  THETA        Counter:       1   Parms: SMR     MR      
 Computing Diagnostic #     45  UVELMASS     Counter:       1   Parms: UUr     MR      
           Vector  Mate for  UVELMASS     Diagnostic #     46  VVELMASS exists 
 Computing Diagnostic #     46  VVELMASS     Counter:       1   Parms: VVr     MR      
           Vector  Mate for  VVELMASS     Diagnostic #     45  UVELMASS exists 
 cg2d: Sum(rhs),rhsMax =  -8.23880528303484E+01  3.61823238013294E+01
(PID.TID 0000.0001)      cg2d_init_res =   1.76176901151089E-01
(PID.TID 0000.0001)      cg2d_iters(min,last) =      -1      10
(PID.TID 0000.0001)      cg2d_last_res =   3.36679442355499E-08
(PID.TID 0000.0001) // =======================================================
(PID.TID 0000.0001) // Begin MONITOR dynamic field statistics
(PID.TID 0000.0001) // =======================================================
(PID.TID 0000.0001) %MON time_tsnumber                =                 72092
(PID.TID 0000.0001) %MON time_secondsf                =   6.4882800000000E+07
(PID.TID 0000.0001) %MON dynstat_eta_max              =   9.6755823455412E-01
(PID.TID 0000.0001) %MON dynstat_eta_min              =  -1.5605667994098E+00
(PID.TID 0000.0001) %MON dynstat_eta_mean             =   3.4638722608550E-02
(PID.TID 0000.0001) %MON dynstat_eta_sd               =   6.1041210834804E-01
(PID.TID 0000.0001) %MON dynstat_eta_del2             =   1.2785920267727E-03
(PID.TID 0000.0001) %MON dynstat_uvel_max             =   3.4333170916539E-01
(PID.TID 0000.0001) %MON dynstat_uvel_min             =  -6.6074120723032E-01
(PID.TID 0000.0001) %MON dynstat_uvel_mean            =  -5.2119124638177E-04
(PID.TID 0000.0001) %MON dynstat_uvel_sd              =   1.2848203430079E-02
(PID.TID 0000.0001) %MON dynstat_uvel_del2            =   8.5080191705196E-05
(PID.TID 0000.0001) %MON dynstat_vvel_max             =   3.1531264098678E-01
(PID.TID 0000.0001) %MON dynstat_vvel_min             =  -3.4682183774981E-01
(PID.TID 0000.0001) %MON dynstat_vvel_mean            =   1.3428406075649E-04
(PID.TID 0000.0001) %MON dynstat_vvel_sd              =   1.3682650754077E-02
(PID.TID 0000.0001) %MON dynstat_vvel_del2            =   8.4832970117189E-05
(PID.TID 0000.0001) %MON dynstat_wvel_max             =   1.0379318154990E-04
(PID.TID 0000.0001) %MON dynstat_wvel_min             =  -1.8204757374649E-04
(PID.TID 0000.0001) %MON dynstat_wvel_mean            =  -4.1694656930502E-08
(PID.TID 0000.0001) %MON dynstat_wvel_sd              =   7.5469043129194E-06
(PID.TID 0000.0001) %MON dynstat_wvel_del2            =   6.3815554239719E-08
(PID.TID 0000.0001) %MON dynstat_theta_max            =   3.0928409546617E+01
(PID.TID 0000.0001) %MON dynstat_theta_min            =  -3.0195781679711E+00
(PID.TID 0000.0001) %MON dynstat_theta_mean           =   3.9093158258587E+00
(PID.TID 0000.0001) %MON dynstat_theta_sd             =   4.5719909687977E+00
(PID.TID 0000.0001) %MON dynstat_theta_del2           =   2.6405071732956E-03
(PID.TID 0000.0001) %MON dynstat_salt_max             =   4.1346743761480E+01
(PID.TID 0000.0001) %MON dynstat_salt_min             =   1.8519300175437E+01
(PID.TID 0000.0001) %MON dynstat_salt_mean            =   3.4771893905476E+01
(PID.TID 0000.0001) %MON dynstat_salt_sd              =   5.3232642782334E-01
(PID.TID 0000.0001) %MON dynstat_salt_del2            =   1.1488177380486E-03
(PID.TID 0000.0001) %MON dynstat_sst_max              =   3.0928409546617E+01
(PID.TID 0000.0001) %MON dynstat_sst_min              =  -1.8972838421582E+00
(PID.TID 0000.0001) %MON dynstat_sst_mean             =   1.8116032952128E+01
(PID.TID 0000.0001) %MON dynstat_sst_sd               =   9.8143608997596E+00
(PID.TID 0000.0001) %MON dynstat_sst_del2             =   1.5036598783095E-02
(PID.TID 0000.0001) %MON dynstat_sss_max              =   4.1346743761480E+01
(PID.TID 0000.0001) %MON dynstat_sss_min              =   1.8752475245745E+01
(PID.TID 0000.0001) %MON dynstat_sss_mean             =   3.4619946839045E+01
(PID.TID 0000.0001) %MON dynstat_sss_sd               =   1.4920216463514E+00
(PID.TID 0000.0001) %MON dynstat_sss_del2             =   1.3070011800776E-02
(PID.TID 0000.0001) %MON forcing_qnet_max             =   1.7470324707031E+03
(PID.TID 0000.0001) %MON forcing_qnet_min             =  -7.9203505994564E+02
(PID.TID 0000.0001) %MON forcing_qnet_mean            =  -5.1254085267743E+01
(PID.TID 0000.0001) %MON forcing_qnet_sd              =   2.2616997597316E+02
(PID.TID 0000.0001) %MON forcing_qnet_del2            =   3.2819239270016E+00
(PID.TID 0000.0001) %MON forcing_qsw_max              =   0.0000000000000E+00
(PID.TID 0000.0001) %MON forcing_qsw_min              =  -4.2609080175769E+02
(PID.TID 0000.0001) %MON forcing_qsw_mean             =  -8.2411354089200E+01
(PID.TID 0000.0001) %MON forcing_qsw_sd               =   1.1882504984057E+02
(PID.TID 0000.0001) %MON forcing_qsw_del2             =   9.5752554235560E-01
(PID.TID 0000.0001) %MON forcing_empmr_max            =   4.3221870437264E-03
(PID.TID 0000.0001) %MON forcing_empmr_min            =  -6.2149457633495E-02
(PID.TID 0000.0001) %MON forcing_empmr_mean           =  -1.8458294418274E-04
(PID.TID 0000.0001) %MON forcing_empmr_sd             =   2.7413209016926E-03
(PID.TID 0000.0001) %MON forcing_empmr_del2           =   1.0751403003811E-04
(PID.TID 0000.0001) %MON forcing_fu_max               =   2.4272104216688E-01
(PID.TID 0000.0001) %MON forcing_fu_min               =  -3.3271862175257E-01
(PID.TID 0000.0001) %MON forcing_fu_mean              =  -3.7920048707736E-03
(PID.TID 0000.0001) %MON forcing_fu_sd                =   5.3860316844056E-02
(PID.TID 0000.0001) %MON forcing_fu_del2              =   5.4760239999004E-04
(PID.TID 0000.0001) %MON forcing_fv_max               =   2.5163380363842E-01
(PID.TID 0000.0001) %MON forcing_fv_min               =  -2.5217762307669E-01
(PID.TID 0000.0001) %MON forcing_fv_mean              =  -1.5435507508669E-02
(PID.TID 0000.0001) %MON forcing_fv_sd                =   5.8117001747339E-02
(PID.TID 0000.0001) %MON forcing_fv_del2              =   4.9713931484241E-04
(PID.TID 0000.0001) %MON trAdv_CFL_u_max              =   1.9240515472990E-03
(PID.TID 0000.0001) %MON trAdv_CFL_v_max              =   1.1567644089648E-03
(PID.TID 0000.0001) %MON trAdv_CFL_w_max              =   1.2808943638260E-03
(PID.TID 0000.0001) %MON advcfl_uvel_max              =   1.9061326905959E-03
(PID.TID 0000.0001) %MON advcfl_vvel_max              =   1.1341524407916E-03
(PID.TID 0000.0001) %MON advcfl_wvel_max              =   2.1617202655129E-03
(PID.TID 0000.0001) %MON advcfl_W_hf_max              =   1.2808943638260E-03
(PID.TID 0000.0001) %MON pe_b_mean                    =   4.9796972132799E-04
(PID.TID 0000.0001) %MON ke_max                       =   1.9152505343641E-01
(PID.TID 0000.0001) %MON ke_mean                      =   1.6282793852673E-04
(PID.TID 0000.0001) %MON ke_vol                       =   1.3398149915282E+18
(PID.TID 0000.0001) %MON vort_r_min                   =  -2.5547757048219E-06
(PID.TID 0000.0001) %MON vort_r_max                   =   2.5114686069092E-06
(PID.TID 0000.0001) %MON vort_a_mean                  =  -2.0549865324846E-05
(PID.TID 0000.0001) %MON vort_a_sd                    =   7.5259653907274E-05
(PID.TID 0000.0001) %MON vort_p_mean                  =  -2.4783232330786E-05
(PID.TID 0000.0001) %MON vort_p_sd                    =   1.2811933200593E-04
(PID.TID 0000.0001) %MON surfExpan_theta_mean         =  -4.0415983630967E-06
(PID.TID 0000.0001) %MON surfExpan_salt_mean          =   8.5240306494677E-07
(PID.TID 0000.0001) // =======================================================
(PID.TID 0000.0001) // End MONITOR dynamic field statistics
(PID.TID 0000.0001) // =======================================================
 cg2d: Sum(rhs),rhsMax =  -8.27201817774230E+01  3.62024694067470E+01
(PID.TID 0000.0001)      cg2d_init_res =   1.71665751605100E-01
(PID.TID 0000.0001)      cg2d_iters(min,last) =      -1      10
(PID.TID 0000.0001)      cg2d_last_res =   3.18854622086907E-08
(PID.TID 0000.0001) // =======================================================
(PID.TID 0000.0001) // Begin MONITOR dynamic field statistics
(PID.TID 0000.0001) // =======================================================
(PID.TID 0000.0001) %MON time_tsnumber                =                 72093
(PID.TID 0000.0001) %MON time_secondsf                =   6.4883700000000E+07
(PID.TID 0000.0001) %MON dynstat_eta_max              =   9.6368650624331E-01
(PID.TID 0000.0001) %MON dynstat_eta_min              =  -1.5617442631275E+00
(PID.TID 0000.0001) %MON dynstat_eta_mean             =   3.4797724752293E-02
(PID.TID 0000.0001) %MON dynstat_eta_sd               =   6.1023367127792E-01
(PID.TID 0000.0001) %MON dynstat_eta_del2             =   1.2879733006710E-03
(PID.TID 0000.0001) %MON dynstat_uvel_max             =   3.2753724975594E-01
(PID.TID 0000.0001) %MON dynstat_uvel_min             =  -6.4488447173901E-01
(PID.TID 0000.0001) %MON dynstat_uvel_mean            =  -5.2723730778536E-04
(PID.TID 0000.0001) %MON dynstat_uvel_sd              =   1.2841547003356E-02
(PID.TID 0000.0001) %MON dynstat_uvel_del2            =   8.5023874687027E-05
(PID.TID 0000.0001) %MON dynstat_vvel_max             =   3.4183510608967E-01
(PID.TID 0000.0001) %MON dynstat_vvel_min             =  -3.4853453918501E-01
(PID.TID 0000.0001) %MON dynstat_vvel_mean            =   1.3600643826677E-04
(PID.TID 0000.0001) %MON dynstat_vvel_sd              =   1.3677486918924E-02
(PID.TID 0000.0001) %MON dynstat_vvel_del2            =   8.4488864197738E-05
(PID.TID 0000.0001) %MON dynstat_wvel_max             =   1.0397936592656E-04
(PID.TID 0000.0001) %MON dynstat_wvel_min             =  -1.8211200721837E-04
(PID.TID 0000.0001) %MON dynstat_wvel_mean            =  -4.1611027473403E-08
(PID.TID 0000.0001) %MON dynstat_wvel_sd              =   7.5551411742767E-06
(PID.TID 0000.0001) %MON dynstat_wvel_del2            =   6.3603162370285E-08
(PID.TID 0000.0001) %MON dynstat_theta_max            =   3.0928013945880E+01
(PID.TID 0000.0001) %MON dynstat_theta_min            =  -3.0202484369645E+00
(PID.TID 0000.0001) %MON dynstat_theta_mean           =   3.9093200854895E+00
(PID.TID 0000.0001) %MON dynstat_theta_sd             =   4.5720085460392E+00
(PID.TID 0000.0001) %MON dynstat_theta_del2           =   2.6403865449440E-03
(PID.TID 0000.0001) %MON dynstat_salt_max             =   4.1346797344657E+01
(PID.TID 0000.0001) %MON dynstat_salt_min             =   1.8519310212686E+01
(PID.TID 0000.0001) %MON dynstat_salt_mean            =   3.4771892583118E+01
(PID.TID 0000.0001) %MON dynstat_salt_sd              =   5.3233537482519E-01
(PID.TID 0000.0001) %MON dynstat_salt_del2            =   1.1506113469335E-03
(PID.TID 0000.0001) %MON dynstat_sst_max              =   3.0928013945880E+01
(PID.TID 0000.0001) %MON dynstat_sst_min              =  -1.8971563484729E+00
(PID.TID 0000.0001) %MON dynstat_sst_mean             =   1.8116259599604E+01
(PID.TID 0000.0001) %MON dynstat_sst_sd               =   9.8145705490545E+00
(PID.TID 0000.0001) %MON dynstat_sst_del2             =   1.5034451985534E-02
(PID.TID 0000.0001) %MON dynstat_sss_max              =   4.1346797344657E+01
(PID.TID 0000.0001) %MON dynstat_sss_min              =   1.8752486543128E+01
(PID.TID 0000.0001) %MON dynstat_sss_mean             =   3.4619846056894E+01
(PID.TID 0000.0001) %MON dynstat_sss_sd               =   1.4922425902157E+00
(PID.TID 0000.0001) %MON dynstat_sss_del2             =   1.3094968082573E-02
(PID.TID 0000.0001) %MON forcing_qnet_max             =   2.2933244628906E+03
(PID.TID 0000.0001) %MON forcing_qnet_min             =  -7.8057164046372E+02
(PID.TID 0000.0001) %MON forcing_qnet_mean            =  -5.5193949937227E+01
(PID.TID 0000.0001) %MON forcing_qnet_sd              =   2.3085911637524E+02
(PID.TID 0000.0001) %MON forcing_qnet_del2            =   3.4459561058406E+00
(PID.TID 0000.0001) %MON forcing_qsw_max              =   0.0000000000000E+00
(PID.TID 0000.0001) %MON forcing_qsw_min              =  -4.1797504812890E+02
(PID.TID 0000.0001) %MON forcing_qsw_mean             =  -8.4302985716699E+01
(PID.TID 0000.0001) %MON forcing_qsw_sd               =   1.2043710374259E+02
(PID.TID 0000.0001) %MON forcing_qsw_del2             =   9.5406032475047E-01
(PID.TID 0000.0001) %MON forcing_empmr_max            =   4.2776102200150E-03
(PID.TID 0000.0001) %MON forcing_empmr_min            =  -6.1509236693382E-02
(PID.TID 0000.0001) %MON forcing_empmr_mean           =  -1.8285246530448E-04
(PID.TID 0000.0001) %MON forcing_empmr_sd             =   2.7138041624452E-03
(PID.TID 0000.0001) %MON forcing_empmr_del2           =   1.0638208850421E-04
(PID.TID 0000.0001) %MON forcing_fu_max               =   2.4690756873826E-01
(PID.TID 0000.0001) %MON forcing_fu_min               =  -3.3308903228902E-01
(PID.TID 0000.0001) %MON forcing_fu_mean              =  -3.8593556101301E-03
(PID.TID 0000.0001) %MON forcing_fu_sd                =   5.3737418758087E-02
(PID.TID 0000.0001) %MON forcing_fu_del2              =   5.4657534015651E-04
(PID.TID 0000.0001) %MON forcing_fv_max               =   2.5329163388498E-01
(PID.TID 0000.0001) %MON forcing_fv_min               =  -2.4977711463569E-01
(PID.TID 0000.0001) %MON forcing_fv_mean              =  -1.5414253053014E-02
(PID.TID 0000.0001) %MON forcing_fv_sd                =   5.7936148521834E-02
(PID.TID 0000.0001) %MON forcing_fv_del2              =   4.9516424699290E-04
(PID.TID 0000.0001) %MON trAdv_CFL_u_max              =   1.8793272314839E-03
(PID.TID 0000.0001) %MON trAdv_CFL_v_max              =   1.2536883254715E-03
(PID.TID 0000.0001) %MON trAdv_CFL_w_max              =   1.2705719582352E-03
(PID.TID 0000.0001) %MON advcfl_uvel_max              =   1.8603885451493E-03
(PID.TID 0000.0001) %MON advcfl_vvel_max              =   1.2104190519676E-03
(PID.TID 0000.0001) %MON advcfl_wvel_max              =   2.1394517110742E-03
(PID.TID 0000.0001) %MON advcfl_W_hf_max              =   1.2705719582352E-03
(PID.TID 0000.0001) %MON pe_b_mean                    =   4.9769424914198E-04
(PID.TID 0000.0001) %MON ke_max                       =   1.8905472432506E-01
(PID.TID 0000.0001) %MON ke_mean                      =   1.6268696508055E-04
(PID.TID 0000.0001) %MON ke_vol                       =   1.3398150499345E+18
(PID.TID 0000.0001) %MON vort_r_min                   =  -2.5983229723277E-06
(PID.TID 0000.0001) %MON vort_r_max                   =   2.4439682500042E-06
(PID.TID 0000.0001) %MON vort_a_mean                  =  -2.0549865324846E-05
(PID.TID 0000.0001) %MON vort_a_sd                    =   7.5259653820723E-05
(PID.TID 0000.0001) %MON vort_p_mean                  =  -2.4783231297887E-05
(PID.TID 0000.0001) %MON vort_p_sd                    =   1.2811933267670E-04
(PID.TID 0000.0001) %MON surfExpan_theta_mean         =  -3.9507219464530E-06
(PID.TID 0000.0001) %MON surfExpan_salt_mean          =   8.3013674084734E-07
(PID.TID 0000.0001) // =======================================================
(PID.TID 0000.0001) // End MONITOR dynamic field statistics
(PID.TID 0000.0001) // =======================================================
 cg2d: Sum(rhs),rhsMax =  -8.30415102880928E+01  3.62251537323021E+01
(PID.TID 0000.0001)      cg2d_init_res =   1.67115400751065E-01
(PID.TID 0000.0001)      cg2d_iters(min,last) =      -1      10
(PID.TID 0000.0001)      cg2d_last_res =   3.00225669977960E-08
(PID.TID 0000.0001) // =======================================================
(PID.TID 0000.0001) // Begin MONITOR dynamic field statistics
(PID.TID 0000.0001) // =======================================================
(PID.TID 0000.0001) %MON time_tsnumber                =                 72094
(PID.TID 0000.0001) %MON time_secondsf                =   6.4884600000000E+07
(PID.TID 0000.0001) %MON dynstat_eta_max              =   9.5956231536758E-01
(PID.TID 0000.0001) %MON dynstat_eta_min              =  -1.5630680981216E+00
(PID.TID 0000.0001) %MON dynstat_eta_mean             =   3.4954786157189E-02
(PID.TID 0000.0001) %MON dynstat_eta_sd               =   6.1003095322091E-01
(PID.TID 0000.0001) %MON dynstat_eta_del2             =   1.2970298402346E-03
(PID.TID 0000.0001) %MON dynstat_uvel_max             =   3.1201470342284E-01
(PID.TID 0000.0001) %MON dynstat_uvel_min             =  -6.2699844429588E-01
(PID.TID 0000.0001) %MON dynstat_uvel_mean            =  -5.3271607981517E-04
(PID.TID 0000.0001) %MON dynstat_uvel_sd              =   1.2835536177336E-02
(PID.TID 0000.0001) %MON dynstat_uvel_del2            =   8.4934095124018E-05
(PID.TID 0000.0001) %MON dynstat_vvel_max             =   3.6763872408907E-01
(PID.TID 0000.0001) %MON dynstat_vvel_min             =  -3.5024078976569E-01
(PID.TID 0000.0001) %MON dynstat_vvel_mean            =   1.3970418186450E-04
(PID.TID 0000.0001) %MON dynstat_vvel_sd              =   1.3673003957625E-02
(PID.TID 0000.0001) %MON dynstat_vvel_del2            =   8.4276711560834E-05
(PID.TID 0000.0001) %MON dynstat_wvel_max             =   1.0416356526175E-04
(PID.TID 0000.0001) %MON dynstat_wvel_min             =  -1.8215924202109E-04
(PID.TID 0000.0001) %MON dynstat_wvel_mean            =  -4.1545058854219E-08
(PID.TID 0000.0001) %MON dynstat_wvel_sd              =   7.5650468126212E-06
(PID.TID 0000.0001) %MON dynstat_wvel_del2            =   6.3412611770549E-08
(PID.TID 0000.0001) %MON dynstat_theta_max            =   3.0927611473885E+01
(PID.TID 0000.0001) %MON dynstat_theta_min            =  -3.0209338725422E+00
(PID.TID 0000.0001) %MON dynstat_theta_mean           =   3.9093243955935E+00
(PID.TID 0000.0001) %MON dynstat_theta_sd             =   4.5720267380829E+00
(PID.TID 0000.0001) %MON dynstat_theta_del2           =   2.6402526661842E-03
(PID.TID 0000.0001) %MON dynstat_salt_max             =   4.1346866547032E+01
(PID.TID 0000.0001) %MON dynstat_salt_min             =   1.8519320257341E+01
(PID.TID 0000.0001) %MON dynstat_salt_mean            =   3.4771891286582E+01
(PID.TID 0000.0001) %MON dynstat_salt_sd              =   5.3234419922769E-01
(PID.TID 0000.0001) %MON dynstat_salt_del2            =   1.1523636796019E-03
(PID.TID 0000.0001) %MON dynstat_sst_max              =   3.0927611473885E+01
(PID.TID 0000.0001) %MON dynstat_sst_min              =  -1.8970388765372E+00
(PID.TID 0000.0001) %MON dynstat_sst_mean             =   1.8116492590373E+01
(PID.TID 0000.0001) %MON dynstat_sst_sd               =   9.8147941552811E+00
(PID.TID 0000.0001) %MON dynstat_sst_del2             =   1.5031956061414E-02
(PID.TID 0000.0001) %MON dynstat_sss_max              =   4.1346866547032E+01
(PID.TID 0000.0001) %MON dynstat_sss_min              =   1.8752497714371E+01
(PID.TID 0000.0001) %MON dynstat_sss_mean             =   3.4619747548820E+01
(PID.TID 0000.0001) %MON dynstat_sss_sd               =   1.4924601600440E+00
(PID.TID 0000.0001) %MON dynstat_sss_del2             =   1.3119344469077E-02
(PID.TID 0000.0001) %MON forcing_qnet_max             =   4.9598742553684E+03
(PID.TID 0000.0001) %MON forcing_qnet_min             =  -7.7009078037811E+02
(PID.TID 0000.0001) %MON forcing_qnet_mean            =  -5.6226967689013E+01
(PID.TID 0000.0001) %MON forcing_qnet_sd              =   2.4642880003148E+02
(PID.TID 0000.0001) %MON forcing_qnet_del2            =   4.9924025319780E+00
(PID.TID 0000.0001) %MON forcing_qsw_max              =   0.0000000000000E+00
(PID.TID 0000.0001) %MON forcing_qsw_min              =  -4.1282668014627E+02
(PID.TID 0000.0001) %MON forcing_qsw_mean             =  -8.5308611583682E+01
(PID.TID 0000.0001) %MON forcing_qsw_sd               =   1.2107150630957E+02
(PID.TID 0000.0001) %MON forcing_qsw_del2             =   9.5690334312257E-01
(PID.TID 0000.0001) %MON forcing_empmr_max            =   4.2335256002843E-03
(PID.TID 0000.0001) %MON forcing_empmr_min            =  -6.0876563191414E-02
(PID.TID 0000.0001) %MON forcing_empmr_mean           =  -1.8062061563056E-04
(PID.TID 0000.0001) %MON forcing_empmr_sd             =   2.6868452555007E-03
(PID.TID 0000.0001) %MON forcing_empmr_del2           =   1.0525828583172E-04
(PID.TID 0000.0001) %MON forcing_fu_max               =   2.4637150200626E-01
(PID.TID 0000.0001) %MON forcing_fu_min               =  -3.3462016251280E-01
(PID.TID 0000.0001) %MON forcing_fu_mean              =  -3.9608262039804E-03
(PID.TID 0000.0001) %MON forcing_fu_sd                =   5.3603589714557E-02
(PID.TID 0000.0001) %MON forcing_fu_del2              =   5.4546381046069E-04
(PID.TID 0000.0001) %MON forcing_fv_max               =   2.4378667040977E-01
(PID.TID 0000.0001) %MON forcing_fv_min               =  -2.4788668533021E-01
(PID.TID 0000.0001) %MON forcing_fv_mean              =  -1.5418707965141E-02
(PID.TID 0000.0001) %MON forcing_fv_sd                =   5.7684401449142E-02
(PID.TID 0000.0001) %MON forcing_fv_del2              =   4.9332601967980E-04
(PID.TID 0000.0001) %MON trAdv_CFL_u_max              =   1.8285936140665E-03
(PID.TID 0000.0001) %MON trAdv_CFL_v_max              =   1.3480931726926E-03
(PID.TID 0000.0001) %MON trAdv_CFL_w_max              =   1.2577871981108E-03
(PID.TID 0000.0001) %MON advcfl_uvel_max              =   1.8087902170275E-03
(PID.TID 0000.0001) %MON advcfl_vvel_max              =   1.3017882246470E-03
(PID.TID 0000.0001) %MON advcfl_wvel_max              =   2.1174456762231E-03
(PID.TID 0000.0001) %MON advcfl_W_hf_max              =   1.2577871981108E-03
(PID.TID 0000.0001) %MON pe_b_mean                    =   4.9737928316144E-04
(PID.TID 0000.0001) %MON ke_max                       =   1.8554956275472E-01
(PID.TID 0000.0001) %MON ke_mean                      =   1.6256231957748E-04
(PID.TID 0000.0001) %MON ke_vol                       =   1.3398151077933E+18
(PID.TID 0000.0001) %MON vort_r_min                   =  -2.6399764021840E-06
(PID.TID 0000.0001) %MON vort_r_max                   =   2.3695144328487E-06
(PID.TID 0000.0001) %MON vort_a_mean                  =  -2.0549865324846E-05
(PID.TID 0000.0001) %MON vort_a_sd                    =   7.5259654074632E-05
(PID.TID 0000.0001) %MON vort_p_mean                  =  -2.4783230277731E-05
(PID.TID 0000.0001) %MON vort_p_sd                    =   1.2811933225555E-04
(PID.TID 0000.0001) %MON surfExpan_theta_mean         =  -3.8548990533443E-06
(PID.TID 0000.0001) %MON surfExpan_salt_mean          =   8.0852934171412E-07
(PID.TID 0000.0001) // =======================================================
(PID.TID 0000.0001) // End MONITOR dynamic field statistics
(PID.TID 0000.0001) // =======================================================
 cg2d: Sum(rhs),rhsMax =  -8.33515246545031E+01  3.62516442424415E+01
(PID.TID 0000.0001)      cg2d_init_res =   1.62632642686459E-01
(PID.TID 0000.0001)      cg2d_iters(min,last) =      -1      10
(PID.TID 0000.0001)      cg2d_last_res =   2.87256459949702E-08
(PID.TID 0000.0001) // =======================================================
(PID.TID 0000.0001) // Begin MONITOR dynamic field statistics
(PID.TID 0000.0001) // =======================================================
(PID.TID 0000.0001) %MON time_tsnumber                =                 72095
(PID.TID 0000.0001) %MON time_secondsf                =   6.4885500000000E+07
(PID.TID 0000.0001) %MON dynstat_eta_max              =   9.5526545803221E-01
(PID.TID 0000.0001) %MON dynstat_eta_min              =  -1.5645336120235E+00
(PID.TID 0000.0001) %MON dynstat_eta_mean             =   3.5110937915409E-02
(PID.TID 0000.0001) %MON dynstat_eta_sd               =   6.0980235019168E-01
(PID.TID 0000.0001) %MON dynstat_eta_del2             =   1.3045397133761E-03
(PID.TID 0000.0001) %MON dynstat_uvel_max             =   2.9721550320937E-01
(PID.TID 0000.0001) %MON dynstat_uvel_min             =  -6.0719046928585E-01
(PID.TID 0000.0001) %MON dynstat_uvel_mean            =  -5.3769280351862E-04
(PID.TID 0000.0001) %MON dynstat_uvel_sd              =   1.2830199774786E-02
(PID.TID 0000.0001) %MON dynstat_uvel_del2            =   8.4816127783261E-05
(PID.TID 0000.0001) %MON dynstat_vvel_max             =   3.9220245115495E-01
(PID.TID 0000.0001) %MON dynstat_vvel_min             =  -3.5192055327601E-01
(PID.TID 0000.0001) %MON dynstat_vvel_mean            =   1.4523488812284E-04
(PID.TID 0000.0001) %MON dynstat_vvel_sd              =   1.3669593955217E-02
(PID.TID 0000.0001) %MON dynstat_vvel_del2            =   8.4206119815697E-05
(PID.TID 0000.0001) %MON dynstat_wvel_max             =   1.0434450822647E-04
(PID.TID 0000.0001) %MON dynstat_wvel_min             =  -1.8218971394334E-04
(PID.TID 0000.0001) %MON dynstat_wvel_mean            =  -4.2283862175363E-08
(PID.TID 0000.0001) %MON dynstat_wvel_sd              =   7.5762115487969E-06
(PID.TID 0000.0001) %MON dynstat_wvel_del2            =   6.3242372922703E-08
(PID.TID 0000.0001) %MON dynstat_theta_max            =   3.0927202088131E+01
(PID.TID 0000.0001) %MON dynstat_theta_min            =  -3.0216346875996E+00
(PID.TID 0000.0001) %MON dynstat_theta_mean           =   3.9093288782515E+00
(PID.TID 0000.0001) %MON dynstat_theta_sd             =   4.5720452750842E+00
(PID.TID 0000.0001) %MON dynstat_theta_del2           =   2.6401335648397E-03
(PID.TID 0000.0001) %MON dynstat_salt_max             =   4.1346952524276E+01
(PID.TID 0000.0001) %MON dynstat_salt_min             =   1.8519330308803E+01
(PID.TID 0000.0001) %MON dynstat_salt_mean            =   3.4771890014380E+01
(PID.TID 0000.0001) %MON dynstat_salt_sd              =   5.3235290010694E-01
(PID.TID 0000.0001) %MON dynstat_salt_del2            =   1.1540756496081E-03
(PID.TID 0000.0001) %MON dynstat_sst_max              =   3.0927202088131E+01
(PID.TID 0000.0001) %MON dynstat_sst_min              =  -1.8969327021595E+00
(PID.TID 0000.0001) %MON dynstat_sst_mean             =   1.8116740105870E+01
(PID.TID 0000.0001) %MON dynstat_sst_sd               =   9.8150098114303E+00
(PID.TID 0000.0001) %MON dynstat_sst_del2             =   1.5029874581243E-02
(PID.TID 0000.0001) %MON dynstat_sss_max              =   4.1346952524276E+01
(PID.TID 0000.0001) %MON dynstat_sss_min              =   1.8752508790983E+01
(PID.TID 0000.0001) %MON dynstat_sss_mean             =   3.4619651199137E+01
(PID.TID 0000.0001) %MON dynstat_sss_sd               =   1.4926743756766E+00
(PID.TID 0000.0001) %MON dynstat_sss_del2             =   1.3143154293535E-02
(PID.TID 0000.0001) %MON forcing_qnet_max             =   1.3087525940565E+03
(PID.TID 0000.0001) %MON forcing_qnet_min             =  -1.0011612548828E+03
(PID.TID 0000.0001) %MON forcing_qnet_mean            =  -5.9172552685111E+01
(PID.TID 0000.0001) %MON forcing_qnet_sd              =   2.3335158821386E+02
(PID.TID 0000.0001) %MON forcing_qnet_del2            =   2.9886028040432E+00
(PID.TID 0000.0001) %MON forcing_qsw_max              =   0.0000000000000E+00
(PID.TID 0000.0001) %MON forcing_qsw_min              =  -4.0899482789536E+02
(PID.TID 0000.0001) %MON forcing_qsw_mean             =  -8.6086437853396E+01
(PID.TID 0000.0001) %MON forcing_qsw_sd               =   1.2148993602691E+02
(PID.TID 0000.0001) %MON forcing_qsw_del2             =   9.5793236010094E-01
(PID.TID 0000.0001) %MON forcing_empmr_max            =   4.1899322532117E-03
(PID.TID 0000.0001) %MON forcing_empmr_min            =  -6.0249768197536E-02
(PID.TID 0000.0001) %MON forcing_empmr_mean           =  -1.7957452195332E-04
(PID.TID 0000.0001) %MON forcing_empmr_sd             =   2.6600402696474E-03
(PID.TID 0000.0001) %MON forcing_empmr_del2           =   1.0414168682629E-04
(PID.TID 0000.0001) %MON forcing_fu_max               =   2.4468119047087E-01
(PID.TID 0000.0001) %MON forcing_fu_min               =  -3.3619309714735E-01
(PID.TID 0000.0001) %MON forcing_fu_mean              =  -4.0845040280227E-03
(PID.TID 0000.0001) %MON forcing_fu_sd                =   5.3475649151865E-02
(PID.TID 0000.0001) %MON forcing_fu_del2              =   5.4397664747877E-04
(PID.TID 0000.0001) %MON forcing_fv_max               =   2.4262920390520E-01
(PID.TID 0000.0001) %MON forcing_fv_min               =  -2.4603066067110E-01
(PID.TID 0000.0001) %MON forcing_fv_mean              =  -1.5402776328416E-02
(PID.TID 0000.0001) %MON forcing_fv_sd                =   5.7469193012052E-02
(PID.TID 0000.0001) %MON forcing_fv_del2              =   4.9153127594101E-04
(PID.TID 0000.0001) %MON trAdv_CFL_u_max              =   1.7721411816707E-03
(PID.TID 0000.0001) %MON trAdv_CFL_v_max              =   1.4381048806812E-03
(PID.TID 0000.0001) %MON trAdv_CFL_w_max              =   1.2435007386365E-03
(PID.TID 0000.0001) %MON advcfl_uvel_max              =   1.7516473776102E-03
(PID.TID 0000.0001) %MON advcfl_vvel_max              =   1.3887670126597E-03
(PID.TID 0000.0001) %MON advcfl_wvel_max              =   2.0956441112187E-03
(PID.TID 0000.0001) %MON advcfl_W_hf_max              =   1.2435007386365E-03
(PID.TID 0000.0001) %MON pe_b_mean                    =   4.9702235077564E-04
(PID.TID 0000.0001) %MON ke_max                       =   1.8106714107980E-01
(PID.TID 0000.0001) %MON ke_mean                      =   1.6245932118400E-04
(PID.TID 0000.0001) %MON ke_vol                       =   1.3398151649459E+18
(PID.TID 0000.0001) %MON vort_r_min                   =  -2.6794615005053E-06
(PID.TID 0000.0001) %MON vort_r_max                   =   2.2887312595877E-06
(PID.TID 0000.0001) %MON vort_a_mean                  =  -2.0549865324846E-05
(PID.TID 0000.0001) %MON vort_a_sd                    =   7.5259654627498E-05
(PID.TID 0000.0001) %MON vort_p_mean                  =  -2.4783229271496E-05
(PID.TID 0000.0001) %MON vort_p_sd                    =   1.2811933060314E-04
(PID.TID 0000.0001) %MON surfExpan_theta_mean         =  -3.7861827655483E-06
(PID.TID 0000.0001) %MON surfExpan_salt_mean          =   7.8832001802597E-07
(PID.TID 0000.0001) // =======================================================
(PID.TID 0000.0001) // End MONITOR dynamic field statistics
(PID.TID 0000.0001) // =======================================================
 Computing Diagnostic #     81  oceTAUX      Counter:       1   Parms: UU      U1      
           Vector  Mate for  oceTAUX      Diagnostic #     82  oceTAUY  exists 
 Computing Diagnostic #     82  oceTAUY      Counter:       1   Parms: VV      U1      
           Vector  Mate for  oceTAUY      Diagnostic #     81  oceTAUX  exists 
 Computing Diagnostic #     85  oceFWflx     Counter:       1   Parms: SM      U1      
 Computing Diagnostic #     86  oceSflux     Counter:       1   Parms: SM      U1      
 Computing Diagnostic #     87  oceQnet      Counter:       1   Parms: SM      U1      
 Computing Diagnostic #     88  oceQsw       Counter:       1   Parms: SM      U1      
 Computing Diagnostic #     27  SALT         Counter:       1   Parms: SMR     MR      
 Computing Diagnostic #     26  THETA        Counter:       1   Parms: SMR     MR      
 Computing Diagnostic #     45  UVELMASS     Counter:       1   Parms: UUr     MR      
           Vector  Mate for  UVELMASS     Diagnostic #     46  VVELMASS exists 
 Computing Diagnostic #     46  VVELMASS     Counter:       1   Parms: VVr     MR      
           Vector  Mate for  VVELMASS     Diagnostic #     45  UVELMASS exists 
 cg2d: Sum(rhs),rhsMax =  -8.36284806325043E+01  3.62911151126106E+01
(PID.TID 0000.0001)      cg2d_init_res =   1.58292987482253E-01
(PID.TID 0000.0001)      cg2d_iters(min,last) =      -1      10
(PID.TID 0000.0001)      cg2d_last_res =   2.98610448952172E-08
(PID.TID 0000.0001) // =======================================================
(PID.TID 0000.0001) // Begin MONITOR dynamic field statistics
(PID.TID 0000.0001) // =======================================================
(PID.TID 0000.0001) %MON time_tsnumber                =                 72096
(PID.TID 0000.0001) %MON time_secondsf                =   6.4886400000000E+07
(PID.TID 0000.0001) %MON dynstat_eta_max              =   9.5082913118659E-01
(PID.TID 0000.0001) %MON dynstat_eta_min              =  -1.5661340162176E+00
(PID.TID 0000.0001) %MON dynstat_eta_mean             =   3.5265958549200E-02
(PID.TID 0000.0001) %MON dynstat_eta_sd               =   6.0954608012835E-01
(PID.TID 0000.0001) %MON dynstat_eta_del2             =   1.3096337799100E-03
(PID.TID 0000.0001) %MON dynstat_uvel_max             =   2.8355343462115E-01
(PID.TID 0000.0001) %MON dynstat_uvel_min             =  -5.9353450930005E-01
(PID.TID 0000.0001) %MON dynstat_uvel_mean            =  -5.4221446425771E-04
(PID.TID 0000.0001) %MON dynstat_uvel_sd              =   1.2825524038849E-02
(PID.TID 0000.0001) %MON dynstat_uvel_del2            =   8.4676756058359E-05
(PID.TID 0000.0001) %MON dynstat_vvel_max             =   4.1503873817876E-01
(PID.TID 0000.0001) %MON dynstat_vvel_min             =  -3.5357115930728E-01
(PID.TID 0000.0001) %MON dynstat_vvel_mean            =   1.5239932470459E-04
(PID.TID 0000.0001) %MON dynstat_vvel_sd              =   1.3667475989170E-02
(PID.TID 0000.0001) %MON dynstat_vvel_del2            =   8.4272539387371E-05
(PID.TID 0000.0001) %MON dynstat_wvel_max             =   1.0452135691592E-04
(PID.TID 0000.0001) %MON dynstat_wvel_min             =  -1.8221169199389E-04
(PID.TID 0000.0001) %MON dynstat_wvel_mean            =  -4.3307704698110E-08
(PID.TID 0000.0001) %MON dynstat_wvel_sd              =   7.5879055379565E-06
(PID.TID 0000.0001) %MON dynstat_wvel_del2            =   6.3086816638106E-08
(PID.TID 0000.0001) %MON dynstat_theta_max            =   3.0926785764814E+01
(PID.TID 0000.0001) %MON dynstat_theta_min            =  -3.0223509177140E+00
(PID.TID 0000.0001) %MON dynstat_theta_mean           =   3.9093334184216E+00
(PID.TID 0000.0001) %MON dynstat_theta_sd             =   4.5720641301293E+00
(PID.TID 0000.0001) %MON dynstat_theta_del2           =   2.6400126392061E-03
(PID.TID 0000.0001) %MON dynstat_salt_max             =   4.1347056223051E+01
(PID.TID 0000.0001) %MON dynstat_salt_min             =   1.8519340366592E+01
(PID.TID 0000.0001) %MON dynstat_salt_mean            =   3.4771888759375E+01
(PID.TID 0000.0001) %MON dynstat_salt_sd              =   5.3236145748878E-01
(PID.TID 0000.0001) %MON dynstat_salt_del2            =   1.1557487317256E-03
(PID.TID 0000.0001) %MON dynstat_sst_max              =   3.0926785764814E+01
(PID.TID 0000.0001) %MON dynstat_sst_min              =  -1.8968400119240E+00
(PID.TID 0000.0001) %MON dynstat_sst_mean             =   1.8116994005008E+01
(PID.TID 0000.0001) %MON dynstat_sst_sd               =   9.8152287124170E+00
(PID.TID 0000.0001) %MON dynstat_sst_del2             =   1.5027750126020E-02
(PID.TID 0000.0001) %MON dynstat_sss_max              =   4.1347056223051E+01
(PID.TID 0000.0001) %MON dynstat_sss_min              =   1.8752519773739E+01
(PID.TID 0000.0001) %MON dynstat_sss_mean             =   3.4619556452260E+01
(PID.TID 0000.0001) %MON dynstat_sss_sd               =   1.4928847194926E+00
(PID.TID 0000.0001) %MON dynstat_sss_del2             =   1.3166418342196E-02
(PID.TID 0000.0001) %MON forcing_qnet_max             =   1.2941984638538E+03
(PID.TID 0000.0001) %MON forcing_qnet_min             =  -7.4964418909546E+02
(PID.TID 0000.0001) %MON forcing_qnet_mean            =  -6.0235987821025E+01
(PID.TID 0000.0001) %MON forcing_qnet_sd              =   2.3412987185880E+02
(PID.TID 0000.0001) %MON forcing_qnet_del2            =   2.8801235457764E+00
(PID.TID 0000.0001) %MON forcing_qsw_max              =   0.0000000000000E+00
(PID.TID 0000.0001) %MON forcing_qsw_min              =  -4.1367788752065E+02
(PID.TID 0000.0001) %MON forcing_qsw_mean             =  -8.6616169533623E+01
(PID.TID 0000.0001) %MON forcing_qsw_sd               =   1.2169617223922E+02
(PID.TID 0000.0001) %MON forcing_qsw_del2             =   9.5712744277027E-01
(PID.TID 0000.0001) %MON forcing_empmr_max            =   4.1467333212495E-03
(PID.TID 0000.0001) %MON forcing_empmr_min            =  -5.9629678726196E-02
(PID.TID 0000.0001) %MON forcing_empmr_mean           =  -1.7827372886003E-04
(PID.TID 0000.0001) %MON forcing_empmr_sd             =   2.6334397562799E-03
(PID.TID 0000.0001) %MON forcing_empmr_del2           =   1.0305752798219E-04
(PID.TID 0000.0001) %MON forcing_fu_max               =   2.4145548945003E-01
(PID.TID 0000.0001) %MON forcing_fu_min               =  -3.3840984086637E-01
(PID.TID 0000.0001) %MON forcing_fu_mean              =  -4.2030947451580E-03
(PID.TID 0000.0001) %MON forcing_fu_sd                =   5.3323967709440E-02
(PID.TID 0000.0001) %MON forcing_fu_del2              =   5.4279839801789E-04
(PID.TID 0000.0001) %MON forcing_fv_max               =   2.3549382988328E-01
(PID.TID 0000.0001) %MON forcing_fv_min               =  -2.4403944849892E-01
(PID.TID 0000.0001) %MON forcing_fv_mean              =  -1.5395513710544E-02
(PID.TID 0000.0001) %MON forcing_fv_sd                =   5.7203706540737E-02
(PID.TID 0000.0001) %MON forcing_fv_del2              =   4.8956105803032E-04
(PID.TID 0000.0001) %MON trAdv_CFL_u_max              =   1.7103153698703E-03
(PID.TID 0000.0001) %MON trAdv_CFL_v_max              =   1.5219644304121E-03
(PID.TID 0000.0001) %MON trAdv_CFL_w_max              =   1.2286242827614E-03
(PID.TID 0000.0001) %MON advcfl_uvel_max              =   1.6999740143740E-03
(PID.TID 0000.0001) %MON advcfl_vvel_max              =   1.4696290317952E-03
(PID.TID 0000.0001) %MON advcfl_wvel_max              =   2.0740757817807E-03
(PID.TID 0000.0001) %MON advcfl_W_hf_max              =   1.2949588044598E-03
(PID.TID 0000.0001) %MON pe_b_mean                    =   4.9662058305758E-04
(PID.TID 0000.0001) %MON ke_max                       =   1.7568034455776E-01
(PID.TID 0000.0001) %MON ke_mean                      =   1.6238058352954E-04
(PID.TID 0000.0001) %MON ke_vol                       =   1.3398152217674E+18
(PID.TID 0000.0001) %MON vort_r_min                   =  -2.7164933664620E-06
(PID.TID 0000.0001) %MON vort_r_max                   =   2.2022835549792E-06
(PID.TID 0000.0001) %MON vort_a_mean                  =  -2.0549865324846E-05
(PID.TID 0000.0001) %MON vort_a_sd                    =   7.5259655430623E-05
(PID.TID 0000.0001) %MON vort_p_mean                  =  -2.4783228270873E-05
(PID.TID 0000.0001) %MON vort_p_sd                    =   1.2811932760039E-04
(PID.TID 0000.0001) %MON surfExpan_theta_mean         =  -3.7211017301449E-06
(PID.TID 0000.0001) %MON surfExpan_salt_mean          =   7.6927860849501E-07
(PID.TID 0000.0001) // =======================================================
(PID.TID 0000.0001) // End MONITOR dynamic field statistics
(PID.TID 0000.0001) // =======================================================
