(PID.TID 0000.0001) 
(PID.TID 0000.0001) // ======================================================
(PID.TID 0000.0001) //                      MITgcm UV
(PID.TID 0000.0001) //                      =========
(PID.TID 0000.0001) // ======================================================
(PID.TID 0000.0001) // execution environment starting up...
(PID.TID 0000.0001) 
(PID.TID 0000.0001) // MITgcmUV version:  checkpoint67b
(PID.TID 0000.0001) // Build user:        heracles
(PID.TID 0000.0001) // Build host:        heracles
(PID.TID 0000.0001) // Build date:        Thu Jun 21 11:35:58 EDT 2018
(PID.TID 0000.0001) 
(PID.TID 0000.0001) // =======================================================
(PID.TID 0000.0001) // Execution Environment parameter file "eedata"
(PID.TID 0000.0001) // =======================================================
(PID.TID 0000.0001) ># Example "eedata" file
(PID.TID 0000.0001) ># Lines beginning "#" are comments
(PID.TID 0000.0001) ># nTx - No. threads per process in X
(PID.TID 0000.0001) ># nTy - No. threads per process in Y
(PID.TID 0000.0001) > &EEPARMS
(PID.TID 0000.0001) > useCubedSphereExchange=.TRUE.,
(PID.TID 0000.0001) > nTx=1,
(PID.TID 0000.0001) > nTy=1,
(PID.TID 0000.0001) > &end
(PID.TID 0000.0001) ># Note: Some systems use & as the
(PID.TID 0000.0001) ># namelist terminator. Other systems
(PID.TID 0000.0001) ># use a / character (as shown here).
(PID.TID 0000.0001) 
(PID.TID 0000.0001) // =======================================================
(PID.TID 0000.0001) // Computational Grid Specification ( see files "SIZE.h" )
(PID.TID 0000.0001) //                                  ( and "eedata"       )
(PID.TID 0000.0001) // =======================================================
(PID.TID 0000.0001)      nPx =    6 ; /* No. processes in X */
(PID.TID 0000.0001)      nPy =    1 ; /* No. processes in Y */
(PID.TID 0000.0001)      nSx =    1 ; /* No. tiles in X per process */
(PID.TID 0000.0001)      nSy =    1 ; /* No. tiles in Y per process */
(PID.TID 0000.0001)      sNx =   32 ; /* Tile size in X */
(PID.TID 0000.0001)      sNy =   32 ; /* Tile size in Y */
(PID.TID 0000.0001)      OLx =    4 ; /* Tile overlap distance in X */
(PID.TID 0000.0001)      OLy =    4 ; /* Tile overlap distance in Y */
(PID.TID 0000.0001)      nTx =    1 ; /* No. threads in X per process */
(PID.TID 0000.0001)      nTy =    1 ; /* No. threads in Y per process */
(PID.TID 0000.0001)       Nr =   15 ; /* No. levels in the vertical   */
(PID.TID 0000.0001)       Nx =  192 ; /* Total domain size in X ( = nPx*nSx*sNx ) */
(PID.TID 0000.0001)       Ny =   32 ; /* Total domain size in Y ( = nPy*nSy*sNy ) */
(PID.TID 0000.0001)   nTiles =    1 ; /* Total no. tiles per process ( = nSx*nSy ) */
(PID.TID 0000.0001)   nProcs =    6 ; /* Total no. processes ( = nPx*nPy ) */
(PID.TID 0000.0001) nThreads =    1 ; /* Total no. threads per process ( = nTx*nTy ) */
(PID.TID 0000.0001) usingMPI =    T ; /* Flag used to control whether MPI is in use */
(PID.TID 0000.0001)                   /*  note: To execute a program with MPI calls */
(PID.TID 0000.0001)                   /*  it must be launched appropriately e.g     */
(PID.TID 0000.0001)                   /*  "mpirun -np 64 ......"                    */
(PID.TID 0000.0001) useCoupler=    F ;/* Flag used to control communications with   */
(PID.TID 0000.0001)                   /*  other model components, through a coupler */
(PID.TID 0000.0001) debugMode =    F ; /* print debug msg. (sequence of S/R calls)  */
(PID.TID 0000.0001) printMapIncludesZeros=    F ; /* print zeros in Std.Output maps */
(PID.TID 0000.0001) maxLengthPrt1D=   65 /* maxLength of 1D array printed to StdOut */
(PID.TID 0000.0001) 
(PID.TID 0000.0001) ======= Starting MPI parallel Run =========
(PID.TID 0000.0001)  My Processor Name (len:  8 ) = heracles
(PID.TID 0000.0001)  Located at (  0,  0) on processor grid (0:  5,0:  0)
(PID.TID 0000.0001)  Origin at  (     1,     1) on global grid (1:   192,1:    32)
(PID.TID 0000.0001)  North neighbor = processor 0000
(PID.TID 0000.0001)  South neighbor = processor 0000
(PID.TID 0000.0001)   East neighbor = processor 0001
(PID.TID 0000.0001)   West neighbor = processor 0005
(PID.TID 0000.0001) // ======================================================
(PID.TID 0000.0001) // Mapping of tiles to threads
(PID.TID 0000.0001) // ======================================================
(PID.TID 0000.0001) // -o- Thread   1, tiles (   1:   1,   1:   1)
(PID.TID 0000.0001) 
(PID.TID 0000.0001) W2_READPARMS: file data.exch2 not found
(PID.TID 0000.0001) => use W2_EXCH2 default: regular 6-facets Cube
(PID.TID 0000.0001) W2_useE2ioLayOut=    T ;/* T: use Exch2 glob IO map; F: use model default */
(PID.TID 0000.0001) W2_mapIO        =  -1 ; /* select option for Exch2 global-IO map */
(PID.TID 0000.0001) W2_printMsg     =  -1 ; /* select option for printing information */
(PID.TID 0000.0001) ===== Start setting W2 TOPOLOGY:
(PID.TID 0000.0001)  write to log-file: w2_tile_topology.0000.log
(PID.TID 0000.0001) =====       setting W2 TOPOLOGY: Done
(PID.TID 0000.0001) 
(PID.TID 0000.0001)  INI_PARMS: opening model parameter file "data"
(PID.TID 0000.0001)  OPEN_COPY_DATA_FILE: opening file data
(PID.TID 0000.0001) // =======================================================
(PID.TID 0000.0001) // Parameter file "data"
(PID.TID 0000.0001) // =======================================================
(PID.TID 0000.0001) ># ====================
(PID.TID 0000.0001) ># | Model parameters |
(PID.TID 0000.0001) ># ====================
(PID.TID 0000.0001) >#
(PID.TID 0000.0001) ># Continuous equation parameters
(PID.TID 0000.0001) > &PARM01
(PID.TID 0000.0001) > tRef=15*20.,
(PID.TID 0000.0001) > sRef=15*35.,
(PID.TID 0000.0001) > viscAh =3.E5,
(PID.TID 0000.0001) > viscAr =1.E-3,
(PID.TID 0000.0001) > diffKrT=3.E-5,
(PID.TID 0000.0001) > diffKrS=3.E-5,
(PID.TID 0000.0001) > ivdc_kappa=10.,
(PID.TID 0000.0001) > implicitDiffusion=.TRUE.,
(PID.TID 0000.0001) > rhonil=1035.,
(PID.TID 0000.0001) > rhoConstFresh=1000.,
(PID.TID 0000.0001) > eosType='JMD95Z',
(PID.TID 0000.0001) > staggerTimeStep=.TRUE.,
(PID.TID 0000.0001) > vectorInvariantMomentum=.TRUE.,
(PID.TID 0000.0001) > implicitFreeSurface=.TRUE.,
(PID.TID 0000.0001) > exactConserv=.TRUE.,
(PID.TID 0000.0001) > select_rStar=2,
(PID.TID 0000.0001) > nonlinFreeSurf=4,
(PID.TID 0000.0001) > useRealFreshWaterFlux=.TRUE.,
(PID.TID 0000.0001) > allowFreezing=.TRUE.,
(PID.TID 0000.0001) > hFacMin=.1,
(PID.TID 0000.0001) > hFacMinDr=20.,
(PID.TID 0000.0001) > readBinaryPrec=64,
(PID.TID 0000.0001) > useSingleCpuIo=.TRUE.,
(PID.TID 0000.0001) > &end
(PID.TID 0000.0001) >
(PID.TID 0000.0001) ># Elliptic solver parameters
(PID.TID 0000.0001) > &PARM02
(PID.TID 0000.0001) > &end
(PID.TID 0000.0001) >
(PID.TID 0000.0001) ># Time stepping parameters
(PID.TID 0000.0001) > &PARM03
(PID.TID 0000.0001) > nIter0           = 72000,
(PID.TID 0000.0001) >  nTimeSteps       = 96,
(PID.TID 0000.0001) > deltaT           = 900.,
(PID.TID 0000.0001) > monitorFreq      = 1.,
(PID.TID 0000.0001) > abEps            = 0.1,
(PID.TID 0000.0001) > tracForcingOutAB = 1,
(PID.TID 0000.0001) > &end
(PID.TID 0000.0001) >
(PID.TID 0000.0001) ># Gridding parameters
(PID.TID 0000.0001) > &PARM04
(PID.TID 0000.0001) > usingCurvilinearGrid=.TRUE.,
(PID.TID 0000.0001) > horizGridFile='grid_cs32',
(PID.TID 0000.0001) > delR= 50., 70., 100., 140., 190.,
(PID.TID 0000.0001) >       240., 290., 340., 390., 440.,
(PID.TID 0000.0001) >       490., 540., 590., 640., 690.,
(PID.TID 0000.0001) > &end
(PID.TID 0000.0001) >
(PID.TID 0000.0001) ># Input datasets
(PID.TID 0000.0001) > &PARM05
(PID.TID 0000.0001) > bathyFile      ='bathy_Hmin50.bin',
(PID.TID 0000.0001) > &end
(PID.TID 0000.0001) 
(PID.TID 0000.0001)  INI_PARMS ; starts to read PARM01
(PID.TID 0000.0001)  INI_PARMS ; read PARM01 : OK
(PID.TID 0000.0001)  INI_PARMS ; starts to read PARM02
(PID.TID 0000.0001)  INI_PARMS ; read PARM02 : OK
(PID.TID 0000.0001)  INI_PARMS ; starts to read PARM03
(PID.TID 0000.0001)  INI_PARMS ; read PARM03 : OK
(PID.TID 0000.0001)  INI_PARMS ; starts to read PARM04
(PID.TID 0000.0001)  INI_PARMS ; read PARM04 : OK
(PID.TID 0000.0001)  INI_PARMS ; starts to read PARM05
(PID.TID 0000.0001)  INI_PARMS ; read PARM05 : OK
(PID.TID 0000.0001)  INI_PARMS: finished reading file "data"
(PID.TID 0000.0001)  PACKAGES_BOOT: opening data.pkg
(PID.TID 0000.0001)  OPEN_COPY_DATA_FILE: opening file data.pkg
(PID.TID 0000.0001) // =======================================================
(PID.TID 0000.0001) // Parameter file "data.pkg"
(PID.TID 0000.0001) // =======================================================
(PID.TID 0000.0001) ># Packages
(PID.TID 0000.0001) > &PACKAGES
(PID.TID 0000.0001) > useGMRedi=.TRUE.,
(PID.TID 0000.0001) > useDiagnostics=.TRUE.,
(PID.TID 0000.0001) > &end
(PID.TID 0000.0001) 
(PID.TID 0000.0001)  PACKAGES_BOOT: finished reading data.pkg
(PID.TID 0000.0001)  PACKAGES_BOOT: On/Off package Summary
 --------  pkgs with a standard "usePKG" On/Off switch in "data.pkg":  --------
 pkg/gmredi               compiled   and   used ( useGMRedi                = T )
 pkg/bulk_force           compiled but not used ( useBulkForce             = F )
 pkg/diagnostics          compiled   and   used ( useDiagnostics           = T )
 -------- pkgs without standard "usePKG" On/Off switch in "data.pkg":  --------
 pkg/generic_advdiff      compiled   and   used ( useGAD                   = T )
 pkg/mom_common           compiled   and   used ( momStepping              = T )
 pkg/mom_vecinv           compiled   and   used ( +vectorInvariantMomentum = T )
 pkg/mom_fluxform         compiled but not used ( & not vectorInvariantMom = F )
 pkg/monitor              compiled   and   used ( monitorFreq > 0.         = T )
 pkg/timeave              compiled but not used ( taveFreq > 0.            = F )
 pkg/debug                compiled but not used ( debugMode                = F )
 pkg/exch2                compiled   and   used
 pkg/rw                   compiled   and   used
 pkg/mdsio                compiled   and   used
(PID.TID 0000.0001)  PACKAGES_BOOT: End of package Summary
(PID.TID 0000.0001) 
(PID.TID 0000.0001)  GM_READPARMS: opening data.gmredi
(PID.TID 0000.0001)  OPEN_COPY_DATA_FILE: opening file data.gmredi
(PID.TID 0000.0001) // =======================================================
(PID.TID 0000.0001) // Parameter file "data.gmredi"
(PID.TID 0000.0001) // =======================================================
(PID.TID 0000.0001) ># GM+Redi package parameters:
(PID.TID 0000.0001) >
(PID.TID 0000.0001) >#-from MOM :
(PID.TID 0000.0001) ># GM_background_K: 	G & Mc.W  diffusion coefficient
(PID.TID 0000.0001) ># GM_maxSlope    :	max slope of isopycnals
(PID.TID 0000.0001) ># GM_Scrit       :	transition for scaling diffusion coefficient
(PID.TID 0000.0001) ># GM_Sd          :	half width scaling for diffusion coefficient
(PID.TID 0000.0001) ># GM_taper_scheme:	slope clipping or one of the tapering schemes
(PID.TID 0000.0001) ># GM_Kmin_horiz  :	horizontal diffusion minimum value
(PID.TID 0000.0001) >
(PID.TID 0000.0001) >#-Option parameters (needs to "define" options in GMREDI_OPTIONS.h")
(PID.TID 0000.0001) ># GM_isopycK     :	isopycnal diffusion coefficient (default=GM_background_K)
(PID.TID 0000.0001) ># GM_AdvForm     :	turn on GM Advective form       (default=Skew flux form)
(PID.TID 0000.0001) >
(PID.TID 0000.0001) > &GM_PARM01
(PID.TID 0000.0001) >  GM_background_K    = 800.,
(PID.TID 0000.0001) >  GM_taper_scheme    = 'gkw91',
(PID.TID 0000.0001) >  GM_maxSlope        = 1.e-2,
(PID.TID 0000.0001) >  GM_Kmin_horiz      = 50.,
(PID.TID 0000.0001) >  GM_Scrit           = 4.e-3,
(PID.TID 0000.0001) >  GM_Sd              = 1.e-3,
(PID.TID 0000.0001) ># GM_Visbeck_alpha   = 0.,
(PID.TID 0000.0001) ># GM_Visbeck_length  = 2.e+5,
(PID.TID 0000.0001) ># GM_Visbeck_depth   = 1.e+3,
(PID.TID 0000.0001) ># GM_Visbeck_maxval_K= 2.5e+3,
(PID.TID 0000.0001) > &end
(PID.TID 0000.0001) >
(PID.TID 0000.0001) >
(PID.TID 0000.0001) 
(PID.TID 0000.0001)  GM_READPARMS: finished reading data.gmredi
(PID.TID 0000.0001)  DIAGNOSTICS_READPARMS: opening data.diagnostics
(PID.TID 0000.0001)  OPEN_COPY_DATA_FILE: opening file data.diagnostics
(PID.TID 0000.0001) // =======================================================
(PID.TID 0000.0001) // Parameter file "data.diagnostics"
(PID.TID 0000.0001) // =======================================================
(PID.TID 0000.0001) ># Diagnostic Package Choices
(PID.TID 0000.0001) >#--------------------
(PID.TID 0000.0001) >#  dumpAtLast (logical): always write output at the end of simulation (default=F)
(PID.TID 0000.0001) >#  diag_mnc   (logical): write to NetCDF files (default=useMNC)
(PID.TID 0000.0001) >#--for each output-stream:
(PID.TID 0000.0001) >#  fileName(n) : prefix of the output file name (max 80c long) for outp.stream n
(PID.TID 0000.0001) >#  frequency(n):< 0 : write snap-shot output every |frequency| seconds
(PID.TID 0000.0001) >#               > 0 : write time-average output every frequency seconds
(PID.TID 0000.0001) >#  timePhase(n)     : write at time = timePhase + multiple of |frequency|
(PID.TID 0000.0001) >#    averagingFreq  : frequency (in s) for periodic averaging interval
(PID.TID 0000.0001) >#    averagingPhase : phase     (in s) for periodic averaging interval
(PID.TID 0000.0001) >#    repeatCycle    : number of averaging intervals in 1 cycle
(PID.TID 0000.0001) >#  levels(:,n) : list of levels to write to file (Notes: declared as REAL)
(PID.TID 0000.0001) >#                when this entry is missing, select all common levels of this list
(PID.TID 0000.0001) >#  fields(:,n) : list of selected diagnostics fields (8.c) in outp.stream n
(PID.TID 0000.0001) >#                (see "available_diagnostics.log" file for the full list of diags)
(PID.TID 0000.0001) >#  missing_value(n) : missing value for real-type fields in output file "n"
(PID.TID 0000.0001) >#  fileFlags(n)     : specific code (8c string) for output file "n"
(PID.TID 0000.0001) >#--------------------
(PID.TID 0000.0001) ># oceTAUX  zonal surface wind stress, >0 increases uVel (N/m^2)
(PID.TID 0000.0001) ># oceTAUY  meridional surf. wind stress, >0 increases vVel (N/m^2)
(PID.TID 0000.0001) ># oceFWflx net surface Fresh-Water flux into ocean, >0 decreases salinity (kg/m^2/s)
(PID.TID 0000.0001) ># oceSflux net surface Salt flux into the ocean, >0 increases salinity (g/m^2/s)
(PID.TID 0000.0001) ># oceQnet  net surface heat flux into the ocean, >0 increases theta (W/m^2)
(PID.TID 0000.0001) ># oceQsw   net Short-Wave radiation (+=down), >0 increases theta (W/m^2)
(PID.TID 0000.0001) ># SSS      Sea Surface Salinity (g/kg)
(PID.TID 0000.0001) ># SST      Sea Surface Temperature (degC)
(PID.TID 0000.0001) ># UVEL1    Zonal Surface Velocity (m/s)
(PID.TID 0000.0001) ># VVEL1    Meridional Surface Velocity (m/s)
(PID.TID 0000.0001) >
(PID.TID 0000.0001) > &DIAGNOSTICS_LIST
(PID.TID 0000.0001) >   frequency(1)  = -3600.,
(PID.TID 0000.0001) >    fields(1,1)  = 'oceTAUX ',
(PID.TID 0000.0001) >    filename(1)  = 'oceTAUX',
(PID.TID 0000.0001) >   frequency(2)  = -3600.,
(PID.TID 0000.0001) >    fields(1,2)  = 'oceTAUY ',
(PID.TID 0000.0001) >    filename(2)  = 'oceTAUY',
(PID.TID 0000.0001) >   frequency(3)  = -3600.,
(PID.TID 0000.0001) >    fields(1,3)  = 'oceFWflx',
(PID.TID 0000.0001) >    filename(3)  = 'oceFWflx',
(PID.TID 0000.0001) >   frequency(4)  = -3600.,
(PID.TID 0000.0001) >    fields(1,4)  = 'oceSflux',
(PID.TID 0000.0001) >    filename(4)  = 'oceSflux',
(PID.TID 0000.0001) >   frequency(5)  = -3600.,
(PID.TID 0000.0001) >    fields(1,5)  = 'oceQnet ',
(PID.TID 0000.0001) >    filename(5)  = 'oceQnet',
(PID.TID 0000.0001) >   frequency(6)  = -3600.,
(PID.TID 0000.0001) >    fields(1,6)  = 'oceQsw  ',
(PID.TID 0000.0001) >    filename(6)  = 'oceQsw',
(PID.TID 0000.0001) >   frequency(7)  = -3600.,
(PID.TID 0000.0001) >    fields(1,7)  = 'SALT    ',
(PID.TID 0000.0001) >    levels(1,7)  = 1.,
(PID.TID 0000.0001) >    filename(7)  = 'SSS',
(PID.TID 0000.0001) >   frequency(8)  = -3600.,
(PID.TID 0000.0001) >    fields(1,8)  = 'THETA   ',
(PID.TID 0000.0001) >    levels(1,8)  = 1.,
(PID.TID 0000.0001) >    filename(8)  = 'SST',
(PID.TID 0000.0001) >   frequency(9)  = -3600.,
(PID.TID 0000.0001) >    fields(1,9)  = 'UVELMASS',
(PID.TID 0000.0001) >    levels(1,9)  = 1.,
(PID.TID 0000.0001) >    filename(9)  = 'UVEL1',
(PID.TID 0000.0001) >   frequency(10) = -3600.,
(PID.TID 0000.0001) >    fields(1,10) = 'VVELMASS',
(PID.TID 0000.0001) >    levels(1,10) = 1.,
(PID.TID 0000.0001) >    filename(10) = 'VVEL1',
(PID.TID 0000.0001) > /
(PID.TID 0000.0001) >
(PID.TID 0000.0001) > &DIAG_STATIS_PARMS
(PID.TID 0000.0001) > /
(PID.TID 0000.0001) 
(PID.TID 0000.0001) S/R DIAGNOSTICS_READPARMS, read namelist "diagnostics_list": start
(PID.TID 0000.0001) S/R DIAGNOSTICS_READPARMS, read namelist "diagnostics_list": OK
(PID.TID 0000.0001) S/R DIAGNOSTICS_READPARMS, read namelist "DIAG_STATIS_PARMS": start
(PID.TID 0000.0001) S/R DIAGNOSTICS_READPARMS, read namelist "DIAG_STATIS_PARMS": OK
(PID.TID 0000.0001)  DIAGNOSTICS_READPARMS: global parameter summary:
(PID.TID 0000.0001)  dumpAtLast = /* always write time-ave diags at the end */
(PID.TID 0000.0001)                   F
(PID.TID 0000.0001)     ;
(PID.TID 0000.0001)  diag_mnc =   /* write NetCDF output files */
(PID.TID 0000.0001)                   F
(PID.TID 0000.0001)     ;
(PID.TID 0000.0001)  useMissingValue = /* put MissingValue where mask = 0 */
(PID.TID 0000.0001)                   F
(PID.TID 0000.0001)     ;
(PID.TID 0000.0001)  diagCG_maxIters = /* max number of iters in diag_cg2d */
(PID.TID 0000.0001)                     150
(PID.TID 0000.0001)     ;
(PID.TID 0000.0001)  diagCG_resTarget = /* residual target for diag_cg2d */
(PID.TID 0000.0001)                 1.000000000000000E-07
(PID.TID 0000.0001)     ;
(PID.TID 0000.0001)  diagCG_pcOffDFac = /* preconditioner off-diagonal factor */
(PID.TID 0000.0001)                 9.611687812379854E-01
(PID.TID 0000.0001)     ;
(PID.TID 0000.0001) -----------------------------------------------------
(PID.TID 0000.0001)  DIAGNOSTICS_READPARMS: active diagnostics summary:
(PID.TID 0000.0001) -----------------------------------------------------
(PID.TID 0000.0001) Creating Output Stream: oceTAUX
(PID.TID 0000.0001) Output Frequency:      -3600.000000 ; Phase:        1800.000000
(PID.TID 0000.0001)  Averaging Freq.:          0.000000 , Phase:           0.000000 , Cycle:   1
(PID.TID 0000.0001)  missing value: -9.990000000000E+02
(PID.TID 0000.0001)  Levels:    will be set later
(PID.TID 0000.0001)  Fields:    oceTAUX
(PID.TID 0000.0001) Creating Output Stream: oceTAUY
(PID.TID 0000.0001) Output Frequency:      -3600.000000 ; Phase:        1800.000000
(PID.TID 0000.0001)  Averaging Freq.:          0.000000 , Phase:           0.000000 , Cycle:   1
(PID.TID 0000.0001)  missing value: -9.990000000000E+02
(PID.TID 0000.0001)  Levels:    will be set later
(PID.TID 0000.0001)  Fields:    oceTAUY
(PID.TID 0000.0001) Creating Output Stream: oceFWflx
(PID.TID 0000.0001) Output Frequency:      -3600.000000 ; Phase:        1800.000000
(PID.TID 0000.0001)  Averaging Freq.:          0.000000 , Phase:           0.000000 , Cycle:   1
(PID.TID 0000.0001)  missing value: -9.990000000000E+02
(PID.TID 0000.0001)  Levels:    will be set later
(PID.TID 0000.0001)  Fields:    oceFWflx
(PID.TID 0000.0001) Creating Output Stream: oceSflux
(PID.TID 0000.0001) Output Frequency:      -3600.000000 ; Phase:        1800.000000
(PID.TID 0000.0001)  Averaging Freq.:          0.000000 , Phase:           0.000000 , Cycle:   1
(PID.TID 0000.0001)  missing value: -9.990000000000E+02
(PID.TID 0000.0001)  Levels:    will be set later
(PID.TID 0000.0001)  Fields:    oceSflux
(PID.TID 0000.0001) Creating Output Stream: oceQnet
(PID.TID 0000.0001) Output Frequency:      -3600.000000 ; Phase:        1800.000000
(PID.TID 0000.0001)  Averaging Freq.:          0.000000 , Phase:           0.000000 , Cycle:   1
(PID.TID 0000.0001)  missing value: -9.990000000000E+02
(PID.TID 0000.0001)  Levels:    will be set later
(PID.TID 0000.0001)  Fields:    oceQnet
(PID.TID 0000.0001) Creating Output Stream: oceQsw
(PID.TID 0000.0001) Output Frequency:      -3600.000000 ; Phase:        1800.000000
(PID.TID 0000.0001)  Averaging Freq.:          0.000000 , Phase:           0.000000 , Cycle:   1
(PID.TID 0000.0001)  missing value: -9.990000000000E+02
(PID.TID 0000.0001)  Levels:    will be set later
(PID.TID 0000.0001)  Fields:    oceQsw
(PID.TID 0000.0001) Creating Output Stream: SSS
(PID.TID 0000.0001) Output Frequency:      -3600.000000 ; Phase:        1800.000000
(PID.TID 0000.0001)  Averaging Freq.:          0.000000 , Phase:           0.000000 , Cycle:   1
(PID.TID 0000.0001)  missing value: -9.990000000000E+02
(PID.TID 0000.0001)  Levels:       1.
(PID.TID 0000.0001)  Fields:    SALT
(PID.TID 0000.0001) Creating Output Stream: SST
(PID.TID 0000.0001) Output Frequency:      -3600.000000 ; Phase:        1800.000000
(PID.TID 0000.0001)  Averaging Freq.:          0.000000 , Phase:           0.000000 , Cycle:   1
(PID.TID 0000.0001)  missing value: -9.990000000000E+02
(PID.TID 0000.0001)  Levels:       1.
(PID.TID 0000.0001)  Fields:    THETA
(PID.TID 0000.0001) Creating Output Stream: UVEL1
(PID.TID 0000.0001) Output Frequency:      -3600.000000 ; Phase:        1800.000000
(PID.TID 0000.0001)  Averaging Freq.:          0.000000 , Phase:           0.000000 , Cycle:   1
(PID.TID 0000.0001)  missing value: -9.990000000000E+02
(PID.TID 0000.0001)  Levels:       1.
(PID.TID 0000.0001)  Fields:    UVELMASS
(PID.TID 0000.0001) Creating Output Stream: VVEL1
(PID.TID 0000.0001) Output Frequency:      -3600.000000 ; Phase:        1800.000000
(PID.TID 0000.0001)  Averaging Freq.:          0.000000 , Phase:           0.000000 , Cycle:   1
(PID.TID 0000.0001)  missing value: -9.990000000000E+02
(PID.TID 0000.0001)  Levels:       1.
(PID.TID 0000.0001)  Fields:    VVELMASS
(PID.TID 0000.0001) -----------------------------------------------------
(PID.TID 0000.0001)  DIAGNOSTICS_READPARMS: statistics diags. summary:
(PID.TID 0000.0001) -----------------------------------------------------
(PID.TID 0000.0001) 
(PID.TID 0000.0001) SET_PARMS: done
(PID.TID 0000.0001) Enter INI_VERTICAL_GRID: setInterFDr=    T ; setCenterDr=    F
(PID.TID 0000.0001) tile:   1 ; Read from file grid_cs32.face001.bin
(PID.TID 0000.0001)   => xC yC dxF dyF rA xG yG dxV dyU rAz dxC dyC rAw rAs dxG dyG AngleCS AngleSN
(PID.TID 0000.0001) %MON XC_max                       =   1.7854351589505E+02
(PID.TID 0000.0001) %MON XC_min                       =  -1.7854351589505E+02
(PID.TID 0000.0001) %MON XC_mean                      =  -4.6999441375798E-15
(PID.TID 0000.0001) %MON XC_sd                        =   1.0355545336287E+02
(PID.TID 0000.0001) %MON XG_max                       =   1.8000000000000E+02
(PID.TID 0000.0001) %MON XG_min                       =  -1.7708797161002E+02
(PID.TID 0000.0001) %MON XG_mean                      =   1.8603515625000E+00
(PID.TID 0000.0001) %MON XG_sd                        =   1.0357130300504E+02
(PID.TID 0000.0001) %MON DXC_max                      =   3.2375185836900E+05
(PID.TID 0000.0001) %MON DXC_min                      =   1.1142031410131E+05
(PID.TID 0000.0001) %MON DXC_mean                     =   2.8605689051214E+05
(PID.TID 0000.0001) %MON DXC_sd                       =   3.4042087138252E+04
(PID.TID 0000.0001) %MON DXF_max                      =   3.2369947500827E+05
(PID.TID 0000.0001) %MON DXF_min                      =   1.2020820513318E+05
(PID.TID 0000.0001) %MON DXF_mean                     =   2.8605437324820E+05
(PID.TID 0000.0001) %MON DXF_sd                       =   3.4050524252539E+04
(PID.TID 0000.0001) %MON DXG_max                      =   3.2375195872773E+05
(PID.TID 0000.0001) %MON DXG_min                      =   1.0098378008791E+05
(PID.TID 0000.0001) %MON DXG_mean                     =   2.8603818508931E+05
(PID.TID 0000.0001) %MON DXG_sd                       =   3.4140406908005E+04
(PID.TID 0000.0001) %MON DXV_max                      =   3.2380418162750E+05
(PID.TID 0000.0001) %MON DXV_min                      =   8.0152299824136E+04
(PID.TID 0000.0001) %MON DXV_mean                     =   2.8603970633619E+05
(PID.TID 0000.0001) %MON DXV_sd                       =   3.4145142117723E+04
(PID.TID 0000.0001) %MON YC_max                       =   8.7940663871962E+01
(PID.TID 0000.0001) %MON YC_min                       =  -8.7940663871962E+01
(PID.TID 0000.0001) %MON YC_mean                      =   0.0000000000000E+00
(PID.TID 0000.0001) %MON YC_sd                        =   3.8676242969072E+01
(PID.TID 0000.0001) %MON YG_max                       =   9.0000000000000E+01
(PID.TID 0000.0001) %MON YG_min                       =  -9.0000000000000E+01
(PID.TID 0000.0001) %MON YG_mean                      =  -1.1842378929335E-15
(PID.TID 0000.0001) %MON YG_sd                        =   3.8676895860710E+01
(PID.TID 0000.0001) %MON DYC_max                      =   3.2375185836900E+05
(PID.TID 0000.0001) %MON DYC_min                      =   1.1142031410131E+05
(PID.TID 0000.0001) %MON DYC_mean                     =   2.8605689051214E+05
(PID.TID 0000.0001) %MON DYC_sd                       =   3.4042087138252E+04
(PID.TID 0000.0001) %MON DYF_max                      =   3.2369947500827E+05
(PID.TID 0000.0001) %MON DYF_min                      =   1.2020820513318E+05
(PID.TID 0000.0001) %MON DYF_mean                     =   2.8605437324820E+05
(PID.TID 0000.0001) %MON DYF_sd                       =   3.4050524252539E+04
(PID.TID 0000.0001) %MON DYG_max                      =   3.2375195872773E+05
(PID.TID 0000.0001) %MON DYG_min                      =   1.0098378008791E+05
(PID.TID 0000.0001) %MON DYG_mean                     =   2.8603818508931E+05
(PID.TID 0000.0001) %MON DYG_sd                       =   3.4140406908005E+04
(PID.TID 0000.0001) %MON DYU_max                      =   3.2380418162750E+05
(PID.TID 0000.0001) %MON DYU_min                      =   8.0152299824136E+04
(PID.TID 0000.0001) %MON DYU_mean                     =   2.8603970633619E+05
(PID.TID 0000.0001) %MON DYU_sd                       =   3.4145142117723E+04
(PID.TID 0000.0001) %MON RA_max                       =   1.0479260248419E+11
(PID.TID 0000.0001) %MON RA_min                       =   1.4019007022556E+10
(PID.TID 0000.0001) %MON RA_mean                      =   8.2992246709265E+10
(PID.TID 0000.0001) %MON RA_sd                        =   1.7509089299457E+10
(PID.TID 0000.0001) %MON RAW_max                      =   1.0480965274559E+11
(PID.TID 0000.0001) %MON RAW_min                      =   1.2166903467143E+10
(PID.TID 0000.0001) %MON RAW_mean                     =   8.2992246709235E+10
(PID.TID 0000.0001) %MON RAW_sd                       =   1.7481917919656E+10
(PID.TID 0000.0001) %MON RAS_max                      =   1.0480965274559E+11
(PID.TID 0000.0001) %MON RAS_min                      =   1.2166903467143E+10
(PID.TID 0000.0001) %MON RAS_mean                     =   8.2992246709235E+10
(PID.TID 0000.0001) %MON RAS_sd                       =   1.7481917919656E+10
(PID.TID 0000.0001) %MON RAZ_max                      =   1.0484349334619E+11
(PID.TID 0000.0001) %MON RAZ_min                      =   8.8317900612505E+09
(PID.TID 0000.0001) %MON RAZ_mean                     =   8.2992246709235E+10
(PID.TID 0000.0001) %MON RAZ_sd                       =   1.7482297311044E+10
(PID.TID 0000.0001) %MON AngleCS_max                  =   9.9999994756719E-01
(PID.TID 0000.0001) %MON AngleCS_min                  =  -9.9968286884824E-01
(PID.TID 0000.0001) %MON AngleCS_mean                 =   3.3078922539000E-01
(PID.TID 0000.0001) %MON AngleCS_sd                   =   6.2496278958502E-01
(PID.TID 0000.0001) %MON AngleSN_max                  =   9.9968286884824E-01
(PID.TID 0000.0001) %MON AngleSN_min                  =  -9.9999994756719E-01
(PID.TID 0000.0001) %MON AngleSN_mean                 =  -3.3078922539000E-01
(PID.TID 0000.0001) %MON AngleSN_sd                   =   6.2496278958502E-01
(PID.TID 0000.0001)  MDS_READ_FIELD: opening global file: bathy_Hmin50.bin
(PID.TID 0000.0001) // =======================================================
(PID.TID 0000.0001) // Field Model R_low (ini_masks_etc)
(PID.TID 0000.0001) // CMIN =         -5.200000000000000E+03
(PID.TID 0000.0001) // CMAX =         -5.000000000000000E+01
(PID.TID 0000.0001) // CINT =          1.907407407407407E+02
(PID.TID 0000.0001) // SYMBOLS (CMIN->CMAX): -abcdefghijklmnopqrstuvwxyz+
(PID.TID 0000.0001) //                  0.0: .
(PID.TID 0000.0001) // RANGE I (Lo:Hi:Step):(    -3:    36:     1)
(PID.TID 0000.0001) // RANGE J (Lo:Hi:Step):(    36:    -3:    -1)
(PID.TID 0000.0001) // RANGE K (Lo:Hi:Step):(   1:   1:   1)
(PID.TID 0000.0001) // =======================================================
(PID.TID 0000.0001) K =   1
(PID.TID 0000.0001) //                I=6       I=16      I=26      I=36
(PID.TID 0000.0001) // |--J--|321012345|789012345|789012345|789012345|
(PID.TID 0000.0001) //     36 cbbc-ddcbcdehkhhmn..++..................
(PID.TID 0000.0001) //     35 dcac--cbbeefjkfefw+..........zpu........
(PID.TID 0000.0001) //     34 d--ba-abcehjnldcclz+........spps........
(PID.TID 0000.0001) //     33 --abbbccceiomkfdbbc+.......+s...........
(PID.TID 0000.0001) //     32 --bddefhhkqqlgfaakqz..v.+..+............
(PID.TID 0000.0001) //     31 abbcffijnpnqneaaat..umrr+s.z............
(PID.TID 0000.0001) //     30 --adgillkkkifcadcx.ymmqzqikvnnps........
(PID.TID 0000.0001) //     29 --cfiljigfjd--efdozy...+ximpnnuz........
(PID.TID 0000.0001) //     28 -abgkhfcccea-bdei........t..............
(PID.TID 0000.0001) //     27 -acghfbaaaa-achmy......................+
(PID.TID 0000.0001) //     26 -adhfca-----bfiv.......................+
(PID.TID 0000.0001) //     25 -achfa------ch+..................w......
(PID.TID 0000.0001) //     24 aaeifa--acbcei...................w......
(PID.TID 0000.0001) //     23 abfida-aabchjk...................zz.....
(PID.TID 0000.0001) //     22 -afhfaa---bfgi....................zz..rn
(PID.TID 0000.0001) //     21 babcgca----abe.....................ysstl
(PID.TID 0000.0001) //     20 fbbbcgfcaa-aae+.......................lc
(PID.TID 0000.0001) //     19 zmfeccdghfeegcbt......................aa
(PID.TID 0000.0001) //     18 ..wifedfkhfegbbcivlqfoz..............jaa
(PID.TID 0000.0001) //     17 ..+wfeefikhgcbbccaaacgn.............icaa
(PID.TID 0000.0001) //     16 ....wiheddeccdfhfbabdfl............jdbad
(PID.TID 0000.0001) //     15 ......ylea--acfihebcbbes..........sfcbbn
(PID.TID 0000.0001) //     14 ........c---acgkhdcc--di..........ofddch
(PID.TID 0000.0001) //     13 .......+b----cfkhec---afz.........nhfdff
(PID.TID 0000.0001) //     12 .......ec----chjhec---ag..........skiqdd
(PID.TID 0000.0001) //     11 ......pdca--achlheba--ai..........nkn.fd
(PID.TID 0000.0001) //     10 ......wfdb--achlhea---an.........uos..dc
(PID.TID 0000.0001) //      9 ......vgec---bfikca--cjl+.......+nnv.+cc
(PID.TID 0000.0001) //      8 .....zleca---afjfca--hdfz.......vkky.jce
(PID.TID 0000.0001) //      7 ...+zohec--abcfkhecbchbdx.......qiht.faa
(PID.TID 0000.0001) //      6 ..+yomfddcaabefkifdchaadt......uqdeisc--
(PID.TID 0000.0001) //      5 ..+nhgffkghccfhkhffgdaackz....uoibcimlaa
(PID.TID 0000.0001) //      4 .+ujhgfllfhdffhkfffca-aady...llnabdopfcb
(PID.TID 0000.0001) //      3 +vjggfcceeffffjlkjgaa---bfvheeln-aesphfd
(PID.TID 0000.0001) //      2 qifeecbbccddefilihecbaacbaajfega-aesqhff
(PID.TID 0000.0001) //      1 ebbbbaaaaaccdfhlhfefdcccaabjefbaaafonhgl
(PID.TID 0000.0001) //      0 -aaaaaaa-aacccfikkhecccbbbaaabaadfkllilm
(PID.TID 0000.0001) //     -1 --aaaaa----aacffiljgfffcca--adfikkiikimi
(PID.TID 0000.0001) //     -2 --aaa-------acdefinmlgiieb-chnnnmlmlfklk
(PID.TID 0000.0001) //     -3 a--a---aa---aedeegknmlgiigcdfhpokkimdkmk
(PID.TID 0000.0001) // =======================================================
(PID.TID 0000.0001) // END OF FIELD                                          =
(PID.TID 0000.0001) // =======================================================
(PID.TID 0000.0001) 
(PID.TID 0000.0001) // =======================================================
(PID.TID 0000.0001) // Field Model Ro_surf (ini_masks_etc)
(PID.TID 0000.0001) // CMIN =          1.000000000000000E+32
(PID.TID 0000.0001) // CMAX =         -1.000000000000000E+32
(PID.TID 0000.0001) // CINT =          0.000000000000000E+00
(PID.TID 0000.0001) // SYMBOLS (CMIN->CMAX): -abcdefghijklmnopqrstuvwxyz+
(PID.TID 0000.0001) //                  0.0: .
(PID.TID 0000.0001) // RANGE I (Lo:Hi:Step):(    -3:    36:     1)
(PID.TID 0000.0001) // RANGE J (Lo:Hi:Step):(    36:    -3:    -1)
(PID.TID 0000.0001) // RANGE K (Lo:Hi:Step):(   1:   1:   1)
(PID.TID 0000.0001) // =======================================================
(PID.TID 0000.0001) // =======================================================
(PID.TID 0000.0001) // END OF FIELD                                          =
(PID.TID 0000.0001) // =======================================================
(PID.TID 0000.0001) 
(PID.TID 0000.0001) // =======================================================
(PID.TID 0000.0001) // Field hFacC at iteration          0
(PID.TID 0000.0001) // CMIN =          1.000000000000000E+00
(PID.TID 0000.0001) // CMAX =          1.000000000000000E+00
(PID.TID 0000.0001) // CINT =          0.000000000000000E+00
(PID.TID 0000.0001) // SYMBOLS (CMIN->CMAX): -abcdefghijklmnopqrstuvwxyz+
(PID.TID 0000.0001) //                  0.0: .
(PID.TID 0000.0001) // RANGE I (Lo:Hi:Step):(    -3:    36:     1)
(PID.TID 0000.0001) // RANGE J (Lo:Hi:Step):(    36:    -3:    -1)
(PID.TID 0000.0001) // RANGE K (Lo:Hi:Step):(   1:   1:   1)
(PID.TID 0000.0001) // =======================================================
(PID.TID 0000.0001) // =======================================================
(PID.TID 0000.0001) // END OF FIELD                                          =
(PID.TID 0000.0001) // =======================================================
(PID.TID 0000.0001) 
(PID.TID 0000.0001) // =======================================================
(PID.TID 0000.0001) // Field hFacW at iteration          0
(PID.TID 0000.0001) // CMIN =          1.000000000000000E+00
(PID.TID 0000.0001) // CMAX =          1.000000000000000E+00
(PID.TID 0000.0001) // CINT =          0.000000000000000E+00
(PID.TID 0000.0001) // SYMBOLS (CMIN->CMAX): -abcdefghijklmnopqrstuvwxyz+
(PID.TID 0000.0001) //                  0.0: .
(PID.TID 0000.0001) // RANGE I (Lo:Hi:Step):(    -3:    36:     1)
(PID.TID 0000.0001) // RANGE J (Lo:Hi:Step):(    36:    -3:    -1)
(PID.TID 0000.0001) // RANGE K (Lo:Hi:Step):(   1:   1:   1)
(PID.TID 0000.0001) // =======================================================
(PID.TID 0000.0001) // =======================================================
(PID.TID 0000.0001) // END OF FIELD                                          =
(PID.TID 0000.0001) // =======================================================
(PID.TID 0000.0001) 
(PID.TID 0000.0001) // =======================================================
(PID.TID 0000.0001) // Field hFacS at iteration          0
(PID.TID 0000.0001) // CMIN =          1.000000000000000E+00
(PID.TID 0000.0001) // CMAX =          1.000000000000000E+00
(PID.TID 0000.0001) // CINT =          0.000000000000000E+00
(PID.TID 0000.0001) // SYMBOLS (CMIN->CMAX): -abcdefghijklmnopqrstuvwxyz+
(PID.TID 0000.0001) //                  0.0: .
(PID.TID 0000.0001) // RANGE I (Lo:Hi:Step):(    -3:    36:     1)
(PID.TID 0000.0001) // RANGE J (Lo:Hi:Step):(    36:    -3:    -1)
(PID.TID 0000.0001) // RANGE K (Lo:Hi:Step):(   1:   1:   1)
(PID.TID 0000.0001) // =======================================================
(PID.TID 0000.0001) // =======================================================
(PID.TID 0000.0001) // END OF FIELD                                          =
(PID.TID 0000.0001) // =======================================================
(PID.TID 0000.0001) 
(PID.TID 0000.0001) GAD_INIT_FIXED: GAD_OlMinSize=  1  0  1
(PID.TID 0000.0001) 
(PID.TID 0000.0001) // ===================================
(PID.TID 0000.0001) // GAD parameters :
(PID.TID 0000.0001) // ===================================
(PID.TID 0000.0001) tempAdvScheme =   /* Temp. Horiz.Advection scheme selector */
(PID.TID 0000.0001)                       2
(PID.TID 0000.0001)     ;
(PID.TID 0000.0001) tempVertAdvScheme =   /* Temp. Vert. Advection scheme selector */
(PID.TID 0000.0001)                       2
(PID.TID 0000.0001)     ;
(PID.TID 0000.0001) tempMultiDimAdvec =   /* use Muti-Dim Advec method for Temp */
(PID.TID 0000.0001)                   F
(PID.TID 0000.0001)     ;
(PID.TID 0000.0001) tempSOM_Advection = /* use 2nd Order Moment Advection for Temp */
(PID.TID 0000.0001)                   F
(PID.TID 0000.0001)     ;
(PID.TID 0000.0001) AdamsBashforthGt = /* apply Adams-Bashforth extrapolation on Gt */
(PID.TID 0000.0001)                   T
(PID.TID 0000.0001)     ;
(PID.TID 0000.0001) AdamsBashforth_T = /* apply Adams-Bashforth extrapolation on Temp */
(PID.TID 0000.0001)                   F
(PID.TID 0000.0001)     ;
(PID.TID 0000.0001) saltAdvScheme =   /* Salt. Horiz.advection scheme selector */
(PID.TID 0000.0001)                       2
(PID.TID 0000.0001)     ;
(PID.TID 0000.0001) saltVertAdvScheme =   /* Salt. Vert. Advection scheme selector */
(PID.TID 0000.0001)                       2
(PID.TID 0000.0001)     ;
(PID.TID 0000.0001) saltMultiDimAdvec =   /* use Muti-Dim Advec method for Salt */
(PID.TID 0000.0001)                   F
(PID.TID 0000.0001)     ;
(PID.TID 0000.0001) saltSOM_Advection = /* use 2nd Order Moment Advection for Salt */
(PID.TID 0000.0001)                   F
(PID.TID 0000.0001)     ;
(PID.TID 0000.0001) AdamsBashforthGs = /* apply Adams-Bashforth extrapolation on Gs */
(PID.TID 0000.0001)                   T
(PID.TID 0000.0001)     ;
(PID.TID 0000.0001) AdamsBashforth_S = /* apply Adams-Bashforth extrapolation on Salt */
(PID.TID 0000.0001)                   F
(PID.TID 0000.0001)     ;
(PID.TID 0000.0001) // ===================================
(PID.TID 0000.0001) ------------------------------------------------------------
(PID.TID 0000.0001) DIAGNOSTICS_SET_LEVELS: done
(PID.TID 0000.0001)  Total Nb of available Diagnostics: ndiagt=   215
(PID.TID 0000.0001)  write list of available Diagnostics to file: available_diagnostics.log
(PID.TID 0000.0001) SETDIAG: Allocate  1 x  1 Levels for Diagnostic #    81 oceTAUX
(PID.TID 0000.0001) SETDIAG: Allocate  1 x  1 Levels for Diagnostic #    82 oceTAUY
(PID.TID 0000.0001) SETDIAG: Allocate  1 x  1 Levels for Diagnostic #    85 oceFWflx
(PID.TID 0000.0001) SETDIAG: Allocate  1 x  1 Levels for Diagnostic #    86 oceSflux
(PID.TID 0000.0001) SETDIAG: Allocate  1 x  1 Levels for Diagnostic #    87 oceQnet
(PID.TID 0000.0001) SETDIAG: Allocate  1 x  1 Levels for Diagnostic #    88 oceQsw
(PID.TID 0000.0001) SETDIAG: Allocate 15 x  1 Levels for Diagnostic #    27 SALT
(PID.TID 0000.0001) SETDIAG: Allocate 15 x  1 Levels for Diagnostic #    26 THETA
(PID.TID 0000.0001) SETDIAG: Allocate 15 x  1 Levels for Diagnostic #    45 UVELMASS
(PID.TID 0000.0001) SETDIAG: Allocate 15 x  1 Levels for Diagnostic #    46 VVELMASS
(PID.TID 0000.0001)   space allocated for all diagnostics:      66 levels
(PID.TID 0000.0001)   set mate pointer for diag #    81  oceTAUX  , Parms: UU      U1 , mate:    82
(PID.TID 0000.0001)   set mate pointer for diag #    82  oceTAUY  , Parms: VV      U1 , mate:    81
(PID.TID 0000.0001)   set mate pointer for diag #    45  UVELMASS , Parms: UUr     MR , mate:    46
(PID.TID 0000.0001)   set mate pointer for diag #    46  VVELMASS , Parms: VVr     MR , mate:    45
(PID.TID 0000.0001) DIAGNOSTICS_SET_POINTERS: Set levels for Outp.Stream: oceTAUX
(PID.TID 0000.0001)  Levels:       1.
(PID.TID 0000.0001) DIAGNOSTICS_SET_POINTERS: Set levels for Outp.Stream: oceTAUY
(PID.TID 0000.0001)  Levels:       1.
(PID.TID 0000.0001) DIAGNOSTICS_SET_POINTERS: Set levels for Outp.Stream: oceFWflx
(PID.TID 0000.0001)  Levels:       1.
(PID.TID 0000.0001) DIAGNOSTICS_SET_POINTERS: Set levels for Outp.Stream: oceSflux
(PID.TID 0000.0001)  Levels:       1.
(PID.TID 0000.0001) DIAGNOSTICS_SET_POINTERS: Set levels for Outp.Stream: oceQnet
(PID.TID 0000.0001)  Levels:       1.
(PID.TID 0000.0001) DIAGNOSTICS_SET_POINTERS: Set levels for Outp.Stream: oceQsw
(PID.TID 0000.0001)  Levels:       1.
(PID.TID 0000.0001) DIAGNOSTICS_SET_POINTERS: done
(PID.TID 0000.0001) ------------------------------------------------------------
(PID.TID 0000.0001) DIAGSTATS_SET_REGIONS: define   0 regions:
(PID.TID 0000.0001) ------------------------------------------------------------
(PID.TID 0000.0001)   space allocated for all stats-diags:       0 levels
(PID.TID 0000.0001) DIAGSTATS_SET_POINTERS: done
(PID.TID 0000.0001) ------------------------------------------------------------
(PID.TID 0000.0001) INI_GLOBAL_DOMAIN: Found  19 CS-corner Pts in the domain
(PID.TID 0000.0001) %MON fCori_max                    =   1.4574827780704E-04
(PID.TID 0000.0001) %MON fCori_min                    =  -1.4574827780704E-04
(PID.TID 0000.0001) %MON fCori_mean                   =   0.0000000000000E+00
(PID.TID 0000.0001) %MON fCori_sd                     =   8.4202189509968E-05
(PID.TID 0000.0001) %MON fCoriG_max                   =   1.4584247033981E-04
(PID.TID 0000.0001) %MON fCoriG_min                   =  -1.4584247033981E-04
(PID.TID 0000.0001) %MON fCoriG_mean                  =   2.2587545260115E-21
(PID.TID 0000.0001) %MON fCoriG_sd                    =   8.4202189509968E-05
(PID.TID 0000.0001) %MON fCoriCos_max                 =   1.4580166994612E-04
(PID.TID 0000.0001) %MON fCoriCos_min                 =   5.2407700865903E-06
(PID.TID 0000.0001) %MON fCoriCos_mean                =   1.1514045869113E-04
(PID.TID 0000.0001) %MON fCoriCos_sd                  =   3.0375849106513E-05
(PID.TID 0000.0001) INI_CG2D: CG2D normalisation factor =  1.9156564154949553E-04
(PID.TID 0000.0001) 
(PID.TID 0000.0001) // =======================================================
(PID.TID 0000.0001) // Model configuration
(PID.TID 0000.0001) // =======================================================
(PID.TID 0000.0001) //
(PID.TID 0000.0001) // "Physical" paramters ( PARM01 in namelist )
(PID.TID 0000.0001) //
(PID.TID 0000.0001) buoyancyRelation = /* Type of relation to get Buoyancy */
(PID.TID 0000.0001)               'OCEANIC'
(PID.TID 0000.0001)     ;
(PID.TID 0000.0001) fluidIsAir   =  /* fluid major constituent is Air */
(PID.TID 0000.0001)                   F
(PID.TID 0000.0001)     ;
(PID.TID 0000.0001) fluidIsWater =  /* fluid major constituent is Water */
(PID.TID 0000.0001)                   T
(PID.TID 0000.0001)     ;
(PID.TID 0000.0001) usingPCoords =  /* use p (or p*) vertical coordinate */
(PID.TID 0000.0001)                   F
(PID.TID 0000.0001)     ;
(PID.TID 0000.0001) usingZCoords =  /* use z (or z*) vertical coordinate */
(PID.TID 0000.0001)                   T
(PID.TID 0000.0001)     ;
(PID.TID 0000.0001) tRef =   /* Reference temperature profile ( oC or K ) */
(PID.TID 0000.0001)    15 @  2.000000000000000E+01              /* K =  1: 15 */
(PID.TID 0000.0001)     ;
(PID.TID 0000.0001) sRef =   /* Reference salinity profile ( psu ) */
(PID.TID 0000.0001)    15 @  3.500000000000000E+01              /* K =  1: 15 */
(PID.TID 0000.0001)     ;
(PID.TID 0000.0001) useStrainTensionVisc= /* Use StrainTension Form of Viscous Operator */
(PID.TID 0000.0001)                   F
(PID.TID 0000.0001)     ;
(PID.TID 0000.0001) useVariableVisc = /* Use variable horizontal viscosity */
(PID.TID 0000.0001)                   F
(PID.TID 0000.0001)     ;
(PID.TID 0000.0001) useHarmonicVisc = /* Use harmonic horizontal viscosity */
(PID.TID 0000.0001)                   T
(PID.TID 0000.0001)     ;
(PID.TID 0000.0001) useBiharmonicVisc= /* Use biharmonic horiz.  viscosity */
(PID.TID 0000.0001)                   F
(PID.TID 0000.0001)     ;
(PID.TID 0000.0001) useSmag3D = /* Use isotropic 3-D Smagorinsky viscosity */
(PID.TID 0000.0001)                   F
(PID.TID 0000.0001)     ;
(PID.TID 0000.0001) viscAh  =   /* Lateral harmonic viscosity ( m^2/s ) */
(PID.TID 0000.0001)                 3.000000000000000E+05
(PID.TID 0000.0001)     ;
(PID.TID 0000.0001) viscA4  =   /* Lateral biharmonic viscosity ( m^4/s ) */
(PID.TID 0000.0001)                 0.000000000000000E+00
(PID.TID 0000.0001)     ;
(PID.TID 0000.0001) no_slip_sides =  /* Viscous BCs: No-slip sides */
(PID.TID 0000.0001)                   T
(PID.TID 0000.0001)     ;
(PID.TID 0000.0001) sideDragFactor = /* side-drag scaling factor (non-dim) */
(PID.TID 0000.0001)                 2.000000000000000E+00
(PID.TID 0000.0001)     ;
(PID.TID 0000.0001) viscArNr = /* vertical profile of vertical viscosity ( m^2/s )*/
(PID.TID 0000.0001)    15 @  1.000000000000000E-03              /* K =  1: 15 */
(PID.TID 0000.0001)     ;
(PID.TID 0000.0001) no_slip_bottom =  /* Viscous BCs: No-slip bottom */
(PID.TID 0000.0001)                   T
(PID.TID 0000.0001)     ;
(PID.TID 0000.0001) bottomVisc_pCell = /* Partial-cell in bottom Visc. BC */
(PID.TID 0000.0001)                   F
(PID.TID 0000.0001)     ;
(PID.TID 0000.0001) bottomDragLinear = /* linear bottom-drag coefficient ( m/s ) */
(PID.TID 0000.0001)                 0.000000000000000E+00
(PID.TID 0000.0001)     ;
(PID.TID 0000.0001) bottomDragQuadratic = /* quadratic bottom-drag coefficient (-) */
(PID.TID 0000.0001)                 0.000000000000000E+00
(PID.TID 0000.0001)     ;
(PID.TID 0000.0001) selectBotDragQuadr = /* select quadratic bottom drag options */
(PID.TID 0000.0001)                      -1
(PID.TID 0000.0001)     ;
(PID.TID 0000.0001) diffKhT =   /* Laplacian diffusion of heat laterally ( m^2/s ) */
(PID.TID 0000.0001)                 0.000000000000000E+00
(PID.TID 0000.0001)     ;
(PID.TID 0000.0001) diffK4T =   /* Biharmonic diffusion of heat laterally ( m^4/s ) */
(PID.TID 0000.0001)                 0.000000000000000E+00
(PID.TID 0000.0001)     ;
(PID.TID 0000.0001) diffKhS =   /* Laplacian diffusion of salt laterally ( m^2/s ) */
(PID.TID 0000.0001)                 0.000000000000000E+00
(PID.TID 0000.0001)     ;
(PID.TID 0000.0001) diffK4S =   /* Biharmonic diffusion of salt laterally ( m^4/s ) */
(PID.TID 0000.0001)                 0.000000000000000E+00
(PID.TID 0000.0001)     ;
(PID.TID 0000.0001) diffKrNrT = /* vertical profile of vertical diffusion of Temp ( m^2/s )*/
(PID.TID 0000.0001)    15 @  3.000000000000000E-05              /* K =  1: 15 */
(PID.TID 0000.0001)     ;
(PID.TID 0000.0001) diffKrNrS = /* vertical profile of vertical diffusion of Salt ( m^2/s )*/
(PID.TID 0000.0001)    15 @  3.000000000000000E-05              /* K =  1: 15 */
(PID.TID 0000.0001)     ;
(PID.TID 0000.0001) diffKrBL79surf = /* Surface diffusion for Bryan and Lewis 79 ( m^2/s ) */
(PID.TID 0000.0001)                 0.000000000000000E+00
(PID.TID 0000.0001)     ;
(PID.TID 0000.0001) diffKrBL79deep = /* Deep diffusion for Bryan and Lewis 1979 ( m^2/s ) */
(PID.TID 0000.0001)                 0.000000000000000E+00
(PID.TID 0000.0001)     ;
(PID.TID 0000.0001) diffKrBL79scl = /* Depth scale for Bryan and Lewis 1979 ( m ) */
(PID.TID 0000.0001)                 2.000000000000000E+02
(PID.TID 0000.0001)     ;
(PID.TID 0000.0001) diffKrBL79Ho = /* Turning depth for Bryan and Lewis 1979 ( m ) */
(PID.TID 0000.0001)                -2.000000000000000E+03
(PID.TID 0000.0001)     ;
(PID.TID 0000.0001) ivdc_kappa = /* Implicit Vertical Diffusivity for Convection ( m^2/s) */
(PID.TID 0000.0001)                 1.000000000000000E+01
(PID.TID 0000.0001)     ;
(PID.TID 0000.0001) hMixCriteria=  /* Criteria for mixed-layer diagnostic */
(PID.TID 0000.0001)                -8.000000000000000E-01
(PID.TID 0000.0001)     ;
(PID.TID 0000.0001) dRhoSmall =  /* Parameter for mixed-layer diagnostic */
(PID.TID 0000.0001)                 1.000000000000000E-06
(PID.TID 0000.0001)     ;
(PID.TID 0000.0001) hMixSmooth=  /* Smoothing parameter for mixed-layer diagnostic */
(PID.TID 0000.0001)                 0.000000000000000E+00
(PID.TID 0000.0001)     ;
(PID.TID 0000.0001) eosType =  /* Type of Equation of State */
(PID.TID 0000.0001)               'JMD95Z'
(PID.TID 0000.0001)     ;
(PID.TID 0000.0001) selectP_inEOS_Zc = /* select pressure to use in EOS (0,1,2,3) */
(PID.TID 0000.0001)                       0
(PID.TID 0000.0001)     0= -g*rhoConst*z ; 1= pRef (from tRef,sRef); 2= Hyd P ; 3= Hyd+NH P
(PID.TID 0000.0001)     ;
(PID.TID 0000.0001) HeatCapacity_Cp =  /* Specific heat capacity ( J/kg/K ) */
(PID.TID 0000.0001)                 3.994000000000000E+03
(PID.TID 0000.0001)     ;
(PID.TID 0000.0001) celsius2K = /* 0 degree Celsius converted to Kelvin ( K ) */
(PID.TID 0000.0001)                 2.731500000000000E+02
(PID.TID 0000.0001)     ;
(PID.TID 0000.0001) rhoConst  = /* Reference density (Boussinesq)  ( kg/m^3 ) */
(PID.TID 0000.0001)                 1.035000000000000E+03
(PID.TID 0000.0001)     ;
(PID.TID 0000.0001) rhoFacC = /* normalized Reference density @ cell-Center (-) */
(PID.TID 0000.0001)    15 @  1.000000000000000E+00              /* K =  1: 15 */
(PID.TID 0000.0001)     ;
(PID.TID 0000.0001) rhoFacF = /* normalized Reference density @ W-Interface (-) */
(PID.TID 0000.0001)    16 @  1.000000000000000E+00              /* K =  1: 16 */
(PID.TID 0000.0001)     ;
(PID.TID 0000.0001) rhoConstFresh = /* Fresh-water reference density ( kg/m^3 ) */
(PID.TID 0000.0001)                 1.000000000000000E+03
(PID.TID 0000.0001)     ;
(PID.TID 0000.0001) gravity =   /* Gravitational acceleration ( m/s^2 ) */
(PID.TID 0000.0001)                 9.810000000000000E+00
(PID.TID 0000.0001)     ;
(PID.TID 0000.0001) gBaro =   /* Barotropic gravity ( m/s^2 ) */
(PID.TID 0000.0001)                 9.810000000000000E+00
(PID.TID 0000.0001)     ;
(PID.TID 0000.0001) gravFacC = /* gravity factor (vs surf.) @ cell-Center (-) */
(PID.TID 0000.0001)    15 @  1.000000000000000E+00              /* K =  1: 15 */
(PID.TID 0000.0001)     ;
(PID.TID 0000.0001) gravFacF = /* gravity factor (vs surf.) @ W-Interface (-) */
(PID.TID 0000.0001)    16 @  1.000000000000000E+00              /* K =  1: 16 */
(PID.TID 0000.0001)     ;
(PID.TID 0000.0001) rotationPeriod =   /* Rotation Period ( s ) */
(PID.TID 0000.0001)                 8.616400000000000E+04
(PID.TID 0000.0001)     ;
(PID.TID 0000.0001) omega =   /* Angular velocity ( rad/s ) */
(PID.TID 0000.0001)                 7.292123516990375E-05
(PID.TID 0000.0001)     ;
(PID.TID 0000.0001) f0 =   /* Reference coriolis parameter ( 1/s ) */
(PID.TID 0000.0001)                 1.000000000000000E-04
(PID.TID 0000.0001)     ;
(PID.TID 0000.0001) beta =   /* Beta ( 1/(m.s) ) */
(PID.TID 0000.0001)                 9.999999999999999E-12
(PID.TID 0000.0001)     ;
(PID.TID 0000.0001) fPrime =   /* Second coriolis parameter ( 1/s ) */
(PID.TID 0000.0001)                 0.000000000000000E+00
(PID.TID 0000.0001)     ;
(PID.TID 0000.0001) rigidLid =   /* Rigid lid on/off flag */
(PID.TID 0000.0001)                   F
(PID.TID 0000.0001)     ;
(PID.TID 0000.0001) implicitFreeSurface =   /* Implicit free surface on/off flag */
(PID.TID 0000.0001)                   T
(PID.TID 0000.0001)     ;
(PID.TID 0000.0001) freeSurfFac =   /* Implicit free surface factor */
(PID.TID 0000.0001)                 1.000000000000000E+00
(PID.TID 0000.0001)     ;
(PID.TID 0000.0001) implicSurfPress =  /* Surface Pressure implicit factor (0-1)*/
(PID.TID 0000.0001)                 1.000000000000000E+00
(PID.TID 0000.0001)     ;
(PID.TID 0000.0001) implicDiv2DFlow =  /* Barot. Flow Div. implicit factor (0-1)*/
(PID.TID 0000.0001)                 1.000000000000000E+00
(PID.TID 0000.0001)     ;
(PID.TID 0000.0001) uniformLin_PhiSurf = /* use uniform Bo_surf on/off flag*/
(PID.TID 0000.0001)                   T
(PID.TID 0000.0001)     ;
(PID.TID 0000.0001) uniformFreeSurfLev = /* free-surface level-index is uniform */
(PID.TID 0000.0001)                   T
(PID.TID 0000.0001)     ;
(PID.TID 0000.0001) hFacMin =   /* minimum partial cell factor (hFac) */
(PID.TID 0000.0001)                 1.000000000000000E-01
(PID.TID 0000.0001)     ;
(PID.TID 0000.0001) hFacMinDr = /* minimum partial cell thickness ( m) */
(PID.TID 0000.0001)                 2.000000000000000E+01
(PID.TID 0000.0001)     ;
(PID.TID 0000.0001) exactConserv =  /* Exact Volume Conservation on/off flag*/
(PID.TID 0000.0001)                   T
(PID.TID 0000.0001)     ;
(PID.TID 0000.0001) linFSConserveTr = /* Tracer correction for Lin Free Surface on/off flag*/
(PID.TID 0000.0001)                   F
(PID.TID 0000.0001)     ;
(PID.TID 0000.0001) nonlinFreeSurf = /* Non-linear Free Surf. options (-1,0,1,2,3)*/
(PID.TID 0000.0001)                       4
(PID.TID 0000.0001)      -1,0= Off ; 1,2,3= On, 2=+rescale gU,gV, 3=+update cg2d solv.
(PID.TID 0000.0001)     ;
(PID.TID 0000.0001) hFacInf =   /* lower threshold for hFac (nonlinFreeSurf only)*/
(PID.TID 0000.0001)                 2.000000000000000E-01
(PID.TID 0000.0001)     ;
(PID.TID 0000.0001) hFacSup =   /* upper threshold for hFac (nonlinFreeSurf only)*/
(PID.TID 0000.0001)                 2.000000000000000E+00
(PID.TID 0000.0001)     ;
(PID.TID 0000.0001) select_rStar = /* r* Vertical coord. options (=0 r coord.; >0 uses r*)*/
(PID.TID 0000.0001)                       2
(PID.TID 0000.0001)     ;
(PID.TID 0000.0001) useRealFreshWaterFlux = /* Real Fresh Water Flux on/off flag*/
(PID.TID 0000.0001)                   T
(PID.TID 0000.0001)     ;
(PID.TID 0000.0001) temp_EvPrRn = /* Temp. of Evap/Prec/R (UNSET=use local T)(oC)*/
(PID.TID 0000.0001)                 1.234567000000000E+05
(PID.TID 0000.0001)     ;
(PID.TID 0000.0001) salt_EvPrRn = /* Salin. of Evap/Prec/R (UNSET=use local S)(psu)*/
(PID.TID 0000.0001)                 0.000000000000000E+00
(PID.TID 0000.0001)     ;
(PID.TID 0000.0001) selectAddFluid = /* option for mass source/sink of fluid (=0: off) */
(PID.TID 0000.0001)                       0
(PID.TID 0000.0001)     ;
(PID.TID 0000.0001) temp_addMass = /* Temp. of addMass array (UNSET=use local T)(oC)*/
(PID.TID 0000.0001)                 1.234567000000000E+05
(PID.TID 0000.0001)     ;
(PID.TID 0000.0001) salt_addMass = /* Salin. of addMass array (UNSET=use local S)(psu)*/
(PID.TID 0000.0001)                 0.000000000000000E+00
(PID.TID 0000.0001)     ;
(PID.TID 0000.0001) use3Dsolver = /* use 3-D pressure solver on/off flag */
(PID.TID 0000.0001)                   F
(PID.TID 0000.0001)     ;
(PID.TID 0000.0001) nonHydrostatic =  /* Non-Hydrostatic on/off flag */
(PID.TID 0000.0001)                   F
(PID.TID 0000.0001)     ;
(PID.TID 0000.0001) nh_Am2 = /* Non-Hydrostatic terms scaling factor */
(PID.TID 0000.0001)                 1.000000000000000E+00
(PID.TID 0000.0001)     ;
(PID.TID 0000.0001) implicitNHPress = /* Non-Hyd Pressure implicit factor (0-1)*/
(PID.TID 0000.0001)                 1.000000000000000E+00
(PID.TID 0000.0001)     ;
(PID.TID 0000.0001) selectNHfreeSurf = /* Non-Hyd (free-)Surface option */
(PID.TID 0000.0001)                       0
(PID.TID 0000.0001)     ;
(PID.TID 0000.0001) quasiHydrostatic = /* Quasi-Hydrostatic on/off flag */
(PID.TID 0000.0001)                   F
(PID.TID 0000.0001)     ;
(PID.TID 0000.0001) calc_wVelocity = /* vertical velocity calculation on/off flag */
(PID.TID 0000.0001)                   T
(PID.TID 0000.0001)     ;
(PID.TID 0000.0001) momStepping =  /* Momentum equation on/off flag */
(PID.TID 0000.0001)                   T
(PID.TID 0000.0001)     ;
(PID.TID 0000.0001) vectorInvariantMomentum= /* Vector-Invariant Momentum on/off */
(PID.TID 0000.0001)                   T
(PID.TID 0000.0001)     ;
(PID.TID 0000.0001) momAdvection =  /* Momentum advection on/off flag */
(PID.TID 0000.0001)                   T
(PID.TID 0000.0001)     ;
(PID.TID 0000.0001) momViscosity =  /* Momentum viscosity on/off flag */
(PID.TID 0000.0001)                   T
(PID.TID 0000.0001)     ;
(PID.TID 0000.0001) momImplVertAdv= /* Momentum implicit vert. advection on/off*/
(PID.TID 0000.0001)                   F
(PID.TID 0000.0001)     ;
(PID.TID 0000.0001) implicitViscosity = /* Implicit viscosity on/off flag */
(PID.TID 0000.0001)                   F
(PID.TID 0000.0001)     ;
(PID.TID 0000.0001) selectImplicitDrag= /* Implicit bot Drag options (0,1,2)*/
(PID.TID 0000.0001)                       0
(PID.TID 0000.0001)     0= Expl. ; 1= Impl. on provis. Vel ; 2= Fully Impl (with surf.P)
(PID.TID 0000.0001)     ;
(PID.TID 0000.0001) metricTerms =  /* metric-Terms on/off flag */
(PID.TID 0000.0001)                   F
(PID.TID 0000.0001)     ;
(PID.TID 0000.0001) useNHMTerms = /* Non-Hydrostatic Metric-Terms on/off */
(PID.TID 0000.0001)                   F
(PID.TID 0000.0001)     ;
(PID.TID 0000.0001) selectCoriMap = /* Coriolis Map options (0,1,2,3)*/
(PID.TID 0000.0001)                       2
(PID.TID 0000.0001)     0= f-Plane ; 1= Beta-Plane ; 2= Spherical ; 3= read from file
(PID.TID 0000.0001)     ;
(PID.TID 0000.0001) use3dCoriolis = /* 3-D Coriolis on/off flag */
(PID.TID 0000.0001)                   F
(PID.TID 0000.0001)     ;
(PID.TID 0000.0001) useCoriolis =  /* Coriolis on/off flag */
(PID.TID 0000.0001)                   T
(PID.TID 0000.0001)     ;
(PID.TID 0000.0001) useCDscheme =  /* CD scheme on/off flag */
(PID.TID 0000.0001)                   F
(PID.TID 0000.0001)     ;
(PID.TID 0000.0001) useEnergyConservingCoriolis= /* Flx-Form Coriolis scheme flag */
(PID.TID 0000.0001)                   F
(PID.TID 0000.0001)     ;
(PID.TID 0000.0001) useJamartWetPoints= /* Coriolis WetPoints method flag */
(PID.TID 0000.0001)                   F
(PID.TID 0000.0001)     ;
(PID.TID 0000.0001) useJamartMomAdv= /* V.I Non-linear terms Jamart flag */
(PID.TID 0000.0001)                   F
(PID.TID 0000.0001)     ;
(PID.TID 0000.0001) useAbsVorticity= /* V.I Works with f+zeta in Coriolis */
(PID.TID 0000.0001)                   F
(PID.TID 0000.0001)     ;
(PID.TID 0000.0001) selectVortScheme= /* V.I Scheme selector for Vorticity-Term */
(PID.TID 0000.0001)                       1
(PID.TID 0000.0001)    = 0 : enstrophy (Shallow-Water Eq.) conserving scheme by Sadourny, JAS 75
(PID.TID 0000.0001)    = 1 : same as 0 with modified hFac
(PID.TID 0000.0001)    = 2 : energy conserving scheme (used by Sadourny in JAS 75 paper)
(PID.TID 0000.0001)    = 3 : energy (general) and enstrophy (2D, nonDiv.) conserving scheme
(PID.TID 0000.0001)          from Sadourny (Burridge & Haseler, ECMWF Rep.4, 1977)
(PID.TID 0000.0001)     ;
(PID.TID 0000.0001) upwindVorticity= /* V.I Upwind bias vorticity flag */
(PID.TID 0000.0001)                   F
(PID.TID 0000.0001)     ;
(PID.TID 0000.0001) highOrderVorticity= /* V.I High order vort. advect. flag */
(PID.TID 0000.0001)                   F
(PID.TID 0000.0001)     ;
(PID.TID 0000.0001) upwindShear= /* V.I Upwind vertical Shear advection flag */
(PID.TID 0000.0001)                   F
(PID.TID 0000.0001)     ;
(PID.TID 0000.0001) selectKEscheme= /* V.I Kinetic Energy scheme selector */
(PID.TID 0000.0001)                       0
(PID.TID 0000.0001)     ;
(PID.TID 0000.0001) momForcing =  /* Momentum forcing on/off flag */
(PID.TID 0000.0001)                   T
(PID.TID 0000.0001)     ;
(PID.TID 0000.0001) momTidalForcing = /* Momentum Tidal forcing on/off flag */
(PID.TID 0000.0001)                   T
(PID.TID 0000.0001)     ;
(PID.TID 0000.0001) momPressureForcing =  /* Momentum pressure term on/off flag */
(PID.TID 0000.0001)                   T
(PID.TID 0000.0001)     ;
(PID.TID 0000.0001) implicitIntGravWave= /* Implicit Internal Gravity Wave flag */
(PID.TID 0000.0001)                   F
(PID.TID 0000.0001)     ;
(PID.TID 0000.0001) staggerTimeStep =    /* Stagger time stepping on/off flag */
(PID.TID 0000.0001)                   T
(PID.TID 0000.0001)     ;
(PID.TID 0000.0001) doResetHFactors = /* reset thickness factors @ each time-step */
(PID.TID 0000.0001)                   F
(PID.TID 0000.0001)     ;
(PID.TID 0000.0001) multiDimAdvection =  /* enable/disable Multi-Dim Advection */
(PID.TID 0000.0001)                   T
(PID.TID 0000.0001)     ;
(PID.TID 0000.0001) useMultiDimAdvec =   /* Multi-Dim Advection is/is-not used */
(PID.TID 0000.0001)                   F
(PID.TID 0000.0001)     ;
(PID.TID 0000.0001) implicitDiffusion = /* Implicit Diffusion on/off flag */
(PID.TID 0000.0001)                   T
(PID.TID 0000.0001)     ;
(PID.TID 0000.0001) tempStepping =  /* Temperature equation on/off flag */
(PID.TID 0000.0001)                   T
(PID.TID 0000.0001)     ;
(PID.TID 0000.0001) tempAdvection = /* Temperature advection on/off flag */
(PID.TID 0000.0001)                   T
(PID.TID 0000.0001)     ;
(PID.TID 0000.0001) tempImplVertAdv = /* Temp. implicit vert. advection on/off */
(PID.TID 0000.0001)                   F
(PID.TID 0000.0001)     ;
(PID.TID 0000.0001) tempForcing  =  /* Temperature forcing on/off flag */
(PID.TID 0000.0001)                   T
(PID.TID 0000.0001)     ;
(PID.TID 0000.0001) balanceQnet  =  /* balance net heat-flux on/off flag */
(PID.TID 0000.0001)                   F
(PID.TID 0000.0001)     ;
(PID.TID 0000.0001) doThetaClimRelax = /* apply SST relaxation on/off flag */
(PID.TID 0000.0001)                   F
(PID.TID 0000.0001)     ;
(PID.TID 0000.0001) balanceThetaClimRelax= /* balance SST relaxation on/off flag */
(PID.TID 0000.0001)                   F
(PID.TID 0000.0001)     ;
(PID.TID 0000.0001) tempIsActiveTr = /* Temp. is a dynamically Active Tracer */
(PID.TID 0000.0001)                   T
(PID.TID 0000.0001)     ;
(PID.TID 0000.0001) saltStepping =  /* Salinity equation on/off flag */
(PID.TID 0000.0001)                   T
(PID.TID 0000.0001)     ;
(PID.TID 0000.0001) saltAdvection = /* Salinity advection on/off flag */
(PID.TID 0000.0001)                   T
(PID.TID 0000.0001)     ;
(PID.TID 0000.0001) saltImplVertAdv = /* Sali. implicit vert. advection on/off */
(PID.TID 0000.0001)                   F
(PID.TID 0000.0001)     ;
(PID.TID 0000.0001) saltForcing  =  /* Salinity forcing on/off flag */
(PID.TID 0000.0001)                   T
(PID.TID 0000.0001)     ;
(PID.TID 0000.0001) balanceEmPmR =  /* balance net fresh-water flux on/off flag */
(PID.TID 0000.0001)                   F
(PID.TID 0000.0001)     ;
(PID.TID 0000.0001) doSaltClimRelax = /* apply SSS relaxation on/off flag */
(PID.TID 0000.0001)                   F
(PID.TID 0000.0001)     ;
(PID.TID 0000.0001) balanceSaltClimRelax= /* balance SSS relaxation on/off flag */
(PID.TID 0000.0001)                   F
(PID.TID 0000.0001)     ;
(PID.TID 0000.0001) saltIsActiveTr = /* Salt  is a dynamically Active Tracer */
(PID.TID 0000.0001)                   T
(PID.TID 0000.0001)     ;
(PID.TID 0000.0001)  readBinaryPrec = /* Precision used for reading binary files */
(PID.TID 0000.0001)                      64
(PID.TID 0000.0001)     ;
(PID.TID 0000.0001) writeBinaryPrec = /* Precision used for writing binary files */
(PID.TID 0000.0001)                      32
(PID.TID 0000.0001)     ;
(PID.TID 0000.0001)  rwSuffixType =   /* select format of mds file suffix */
(PID.TID 0000.0001)                       0
(PID.TID 0000.0001)    = 0 : myIter (I10.10) ;   = 1 : 100*myTime (100th sec) ;
(PID.TID 0000.0001)    = 2 : myTime (seconds);   = 3 : myTime/360 (10th of hr);
(PID.TID 0000.0001)    = 4 : myTime/3600 (hours)
(PID.TID 0000.0001)     ;
(PID.TID 0000.0001)  globalFiles = /* write "global" (=not per tile) files */
(PID.TID 0000.0001)                   F
(PID.TID 0000.0001)     ;
(PID.TID 0000.0001)  useSingleCpuIO = /* only master MPI process does I/O */
(PID.TID 0000.0001)                   T
(PID.TID 0000.0001)     ;
(PID.TID 0000.0001)  useSingleCpuInput = /* only master process reads input */
(PID.TID 0000.0001)                   T
(PID.TID 0000.0001)     ;
(PID.TID 0000.0001) /* debLev[*]  : level of debug & auxiliary message printing */
(PID.TID 0000.0001) debLevZero =  0 ; /* level of disabled aux. msg printing */
(PID.TID 0000.0001)    debLevA =  1 ; /* level of minimum  aux. msg printing */
(PID.TID 0000.0001)    debLevB =  2 ; /* level of low aux. print (report read-file opening)*/
(PID.TID 0000.0001)    debLevC =  3 ; /* level of moderate debug prt (most pkgs debug msg) */
(PID.TID 0000.0001)    debLevD =  4 ; /* level of enhanced debug prt (add DEBUG_STATS prt) */
(PID.TID 0000.0001)    debLevE =  5 ; /* level of extensive debug printing */
(PID.TID 0000.0001) debugLevel =  /* select debug printing level */
(PID.TID 0000.0001)                       2
(PID.TID 0000.0001)     ;
(PID.TID 0000.0001)  plotLevel =  /* select PLOT_FIELD printing level */
(PID.TID 0000.0001)                       2
(PID.TID 0000.0001)     ;
(PID.TID 0000.0001) //
(PID.TID 0000.0001) // Elliptic solver(s) paramters ( PARM02 in namelist )
(PID.TID 0000.0001) //
(PID.TID 0000.0001) cg2dMaxIters =   /* Upper limit on 2d con. grad iterations  */
(PID.TID 0000.0001)                     150
(PID.TID 0000.0001)     ;
(PID.TID 0000.0001) cg2dChkResFreq =   /* 2d con. grad convergence test frequency */
(PID.TID 0000.0001)                       1
(PID.TID 0000.0001)     ;
(PID.TID 0000.0001) cg2dUseMinResSol= /* use cg2d last-iter(=0) / min-resid.(=1) solution */
(PID.TID 0000.0001)                       0
(PID.TID 0000.0001)     ;
(PID.TID 0000.0001) cg2dTargetResidual =   /* 2d con. grad target residual  */
(PID.TID 0000.0001)                 1.000000000000000E-07
(PID.TID 0000.0001)     ;
(PID.TID 0000.0001) cg2dTargetResWunit =   /* CG2d target residual [W units] */
(PID.TID 0000.0001)                -1.000000000000000E+00
(PID.TID 0000.0001)     ;
(PID.TID 0000.0001) cg2dPreCondFreq =   /* Freq. for updating cg2d preconditioner */
(PID.TID 0000.0001)                       1
(PID.TID 0000.0001)     ;
(PID.TID 0000.0001) useSRCGSolver =  /* use single reduction CG solver(s) */
(PID.TID 0000.0001)                   F
(PID.TID 0000.0001)     ;
(PID.TID 0000.0001) printResidualFreq = /* Freq. for printing CG residual */
(PID.TID 0000.0001)                       0
(PID.TID 0000.0001)     ;
(PID.TID 0000.0001) //
(PID.TID 0000.0001) // Time stepping paramters ( PARM03 in namelist )
(PID.TID 0000.0001) //
(PID.TID 0000.0001) deltaTMom =   /* Momentum equation timestep ( s ) */
(PID.TID 0000.0001)                 9.000000000000000E+02
(PID.TID 0000.0001)     ;
(PID.TID 0000.0001) deltaTFreeSurf = /* FreeSurface equation timestep ( s ) */
(PID.TID 0000.0001)                 9.000000000000000E+02
(PID.TID 0000.0001)     ;
(PID.TID 0000.0001) dTtracerLev =  /* Tracer equation timestep ( s ) */
(PID.TID 0000.0001)    15 @  9.000000000000000E+02              /* K =  1: 15 */
(PID.TID 0000.0001)     ;
(PID.TID 0000.0001) deltaTClock  =   /* Model clock timestep ( s ) */
(PID.TID 0000.0001)                 9.000000000000000E+02
(PID.TID 0000.0001)     ;
(PID.TID 0000.0001) cAdjFreq =   /* Convective adjustment interval ( s ) */
(PID.TID 0000.0001)                 0.000000000000000E+00
(PID.TID 0000.0001)     ;
(PID.TID 0000.0001) momForcingOutAB = /* =1: take Momentum Forcing out of Adams-Bash. stepping */
(PID.TID 0000.0001)                       0
(PID.TID 0000.0001)     ;
(PID.TID 0000.0001) tracForcingOutAB = /* =1: take T,S,pTr Forcing out of Adams-Bash. stepping */
(PID.TID 0000.0001)                       1
(PID.TID 0000.0001)     ;
(PID.TID 0000.0001) momDissip_In_AB = /* put Dissipation Tendency in Adams-Bash. stepping */
(PID.TID 0000.0001)                   T
(PID.TID 0000.0001)     ;
(PID.TID 0000.0001) doAB_onGtGs = /* apply AB on Tendencies (rather than on T,S)*/
(PID.TID 0000.0001)                   T
(PID.TID 0000.0001)     ;
(PID.TID 0000.0001) abEps =   /* Adams-Bashforth-2 stabilizing weight */
(PID.TID 0000.0001)                 1.000000000000000E-01
(PID.TID 0000.0001)     ;
(PID.TID 0000.0001) applyExchUV_early = /* Apply EXCH to U,V earlier in time-step */
(PID.TID 0000.0001)                   F
(PID.TID 0000.0001)     ;
(PID.TID 0000.0001) pickupStrictlyMatch= /* stop if pickup do not strictly match */
(PID.TID 0000.0001)                   T
(PID.TID 0000.0001)     ;
(PID.TID 0000.0001) nIter0   =   /* Run starting timestep number */
(PID.TID 0000.0001)                   72000
(PID.TID 0000.0001)     ;
(PID.TID 0000.0001) nTimeSteps = /* Number of timesteps */
(PID.TID 0000.0001)                      96
(PID.TID 0000.0001)     ;
(PID.TID 0000.0001) nEndIter =   /* Run ending timestep number */
(PID.TID 0000.0001)                   72096
(PID.TID 0000.0001)     ;
(PID.TID 0000.0001) baseTime =   /* Model base time ( s ) */
(PID.TID 0000.0001)                 0.000000000000000E+00
(PID.TID 0000.0001)     ;
(PID.TID 0000.0001) startTime =  /* Run start time ( s ) */
(PID.TID 0000.0001)                 6.480000000000000E+07
(PID.TID 0000.0001)     ;
(PID.TID 0000.0001) endTime  =   /* Integration ending time ( s ) */
(PID.TID 0000.0001)                 6.488640000000000E+07
(PID.TID 0000.0001)     ;
(PID.TID 0000.0001) pChkPtFreq = /* Permanent restart/pickup file interval ( s ) */
(PID.TID 0000.0001)                 0.000000000000000E+00
(PID.TID 0000.0001)     ;
(PID.TID 0000.0001) chkPtFreq  = /* Rolling restart/pickup file interval ( s ) */
(PID.TID 0000.0001)                 0.000000000000000E+00
(PID.TID 0000.0001)     ;
(PID.TID 0000.0001) pickup_write_mdsio =   /* Model IO flag. */
(PID.TID 0000.0001)                   T
(PID.TID 0000.0001)     ;
(PID.TID 0000.0001) pickup_read_mdsio =   /* Model IO flag. */
(PID.TID 0000.0001)                   T
(PID.TID 0000.0001)     ;
(PID.TID 0000.0001) writePickupAtEnd =   /* Model IO flag. */
(PID.TID 0000.0001)                   T
(PID.TID 0000.0001)     ;
(PID.TID 0000.0001) dumpFreq =   /* Model state write out interval ( s ). */
(PID.TID 0000.0001)                 0.000000000000000E+00
(PID.TID 0000.0001)     ;
(PID.TID 0000.0001) dumpInitAndLast= /* write out Initial & Last iter. model state */
(PID.TID 0000.0001)                   T
(PID.TID 0000.0001)     ;
(PID.TID 0000.0001) snapshot_mdsio =   /* Model IO flag. */
(PID.TID 0000.0001)                   T
(PID.TID 0000.0001)     ;
(PID.TID 0000.0001) monitorFreq =   /* Monitor output interval ( s ). */
(PID.TID 0000.0001)                 1.000000000000000E+00
(PID.TID 0000.0001)     ;
(PID.TID 0000.0001) monitorSelect = /* select group of variables to monitor */
(PID.TID 0000.0001)                       3
(PID.TID 0000.0001)     ;
(PID.TID 0000.0001) monitor_stdio =   /* Model IO flag. */
(PID.TID 0000.0001)                   T
(PID.TID 0000.0001)     ;
(PID.TID 0000.0001) externForcingPeriod =   /* forcing period (s) */
(PID.TID 0000.0001)                 0.000000000000000E+00
(PID.TID 0000.0001)     ;
(PID.TID 0000.0001) externForcingCycle =   /* period of the cyle (s). */
(PID.TID 0000.0001)                 0.000000000000000E+00
(PID.TID 0000.0001)     ;
(PID.TID 0000.0001) tauThetaClimRelax =   /* relaxation time scale (s) */
(PID.TID 0000.0001)                 0.000000000000000E+00
(PID.TID 0000.0001)     ;
(PID.TID 0000.0001) tauSaltClimRelax =   /* relaxation time scale (s) */
(PID.TID 0000.0001)                 0.000000000000000E+00
(PID.TID 0000.0001)     ;
(PID.TID 0000.0001) latBandClimRelax =   /* max. Lat. where relaxation */
(PID.TID 0000.0001)                 1.800000000000000E+02
(PID.TID 0000.0001)     ;
(PID.TID 0000.0001) //
(PID.TID 0000.0001) // Gridding paramters ( PARM04 in namelist )
(PID.TID 0000.0001) //
(PID.TID 0000.0001) usingCartesianGrid = /* Cartesian coordinates flag ( True/False ) */
(PID.TID 0000.0001)                   F
(PID.TID 0000.0001)     ;
(PID.TID 0000.0001) usingCylindricalGrid = /* Cylindrical coordinates flag ( True/False ) */
(PID.TID 0000.0001)                   F
(PID.TID 0000.0001)     ;
(PID.TID 0000.0001) usingSphericalPolarGrid = /* Spherical coordinates flag ( True/False ) */
(PID.TID 0000.0001)                   F
(PID.TID 0000.0001)     ;
(PID.TID 0000.0001) usingCurvilinearGrid = /* Curvilinear coordinates flag ( True/False ) */
(PID.TID 0000.0001)                   T
(PID.TID 0000.0001)     ;
(PID.TID 0000.0001) useMin4hFacEdges = /* set hFacW,S as minimum of adjacent hFacC factor */
(PID.TID 0000.0001)                   F
(PID.TID 0000.0001)     ;
(PID.TID 0000.0001) interViscAr_pCell = /* account for partial-cell in interior vert. viscosity */
(PID.TID 0000.0001)                   F
(PID.TID 0000.0001)     ;
(PID.TID 0000.0001) interDiffKr_pCell = /* account for partial-cell in interior vert. diffusion */
(PID.TID 0000.0001)                   F
(PID.TID 0000.0001)     ;
(PID.TID 0000.0001) pCellMix_select = /* option to enhance mixing near surface & bottom */
(PID.TID 0000.0001)                       0
(PID.TID 0000.0001)     ;
(PID.TID 0000.0001) selectSigmaCoord = /* Hybrid-Sigma Vert. Coordinate option */
(PID.TID 0000.0001)                       0
(PID.TID 0000.0001)     ;
(PID.TID 0000.0001) rSigmaBnd = /* r/sigma transition ( units of r ==  m ) */
(PID.TID 0000.0001)                 1.234567000000000E+05
(PID.TID 0000.0001)     ;
(PID.TID 0000.0001) rkSign =   /* index orientation relative to vertical coordinate */
(PID.TID 0000.0001)                -1.000000000000000E+00
(PID.TID 0000.0001)     ;
(PID.TID 0000.0001) gravitySign = /* gravity orientation relative to vertical coordinate */
(PID.TID 0000.0001)                -1.000000000000000E+00
(PID.TID 0000.0001)     ;
(PID.TID 0000.0001) seaLev_Z =  /* reference height of sea-level [m] */
(PID.TID 0000.0001)                 0.000000000000000E+00
(PID.TID 0000.0001)     ;
(PID.TID 0000.0001) top_Pres =  /* reference pressure at the top [Pa] */
(PID.TID 0000.0001)                 0.000000000000000E+00
(PID.TID 0000.0001)     ;
(PID.TID 0000.0001) mass2rUnit = /* convert mass per unit area [kg/m2] to r-units [m] */
(PID.TID 0000.0001)                 9.661835748792270E-04
(PID.TID 0000.0001)     ;
(PID.TID 0000.0001) rUnit2mass = /* convert r-units [m] to mass per unit area [kg/m2] */
(PID.TID 0000.0001)                 1.035000000000000E+03
(PID.TID 0000.0001)     ;
(PID.TID 0000.0001) drC =   /* C spacing ( units of r ) */
(PID.TID 0000.0001)                 2.500000000000000E+01,      /* K =  1 */
(PID.TID 0000.0001)                 6.000000000000000E+01,      /* K =  2 */
(PID.TID 0000.0001)                 8.500000000000000E+01,      /* K =  3 */
(PID.TID 0000.0001)                 1.200000000000000E+02,      /* K =  4 */
(PID.TID 0000.0001)                 1.650000000000000E+02,      /* K =  5 */
(PID.TID 0000.0001)                 2.150000000000000E+02,      /* K =  6 */
(PID.TID 0000.0001)                 2.650000000000000E+02,      /* K =  7 */
(PID.TID 0000.0001)                 3.150000000000000E+02,      /* K =  8 */
(PID.TID 0000.0001)                 3.650000000000000E+02,      /* K =  9 */
(PID.TID 0000.0001)                 4.150000000000000E+02,      /* K = 10 */
(PID.TID 0000.0001)                 4.650000000000000E+02,      /* K = 11 */
(PID.TID 0000.0001)                 5.150000000000000E+02,      /* K = 12 */
(PID.TID 0000.0001)                 5.650000000000000E+02,      /* K = 13 */
(PID.TID 0000.0001)                 6.150000000000000E+02,      /* K = 14 */
(PID.TID 0000.0001)                 6.650000000000000E+02,      /* K = 15 */
(PID.TID 0000.0001)                 3.450000000000000E+02       /* K = 16 */
(PID.TID 0000.0001)     ;
(PID.TID 0000.0001) drF =   /* W spacing ( units of r ) */
(PID.TID 0000.0001)                 5.000000000000000E+01,      /* K =  1 */
(PID.TID 0000.0001)                 7.000000000000000E+01,      /* K =  2 */
(PID.TID 0000.0001)                 1.000000000000000E+02,      /* K =  3 */
(PID.TID 0000.0001)                 1.400000000000000E+02,      /* K =  4 */
(PID.TID 0000.0001)                 1.900000000000000E+02,      /* K =  5 */
(PID.TID 0000.0001)                 2.400000000000000E+02,      /* K =  6 */
(PID.TID 0000.0001)                 2.900000000000000E+02,      /* K =  7 */
(PID.TID 0000.0001)                 3.400000000000000E+02,      /* K =  8 */
(PID.TID 0000.0001)                 3.900000000000000E+02,      /* K =  9 */
(PID.TID 0000.0001)                 4.400000000000000E+02,      /* K = 10 */
(PID.TID 0000.0001)                 4.900000000000000E+02,      /* K = 11 */
(PID.TID 0000.0001)                 5.400000000000000E+02,      /* K = 12 */
(PID.TID 0000.0001)                 5.900000000000000E+02,      /* K = 13 */
(PID.TID 0000.0001)                 6.400000000000000E+02,      /* K = 14 */
(PID.TID 0000.0001)                 6.900000000000000E+02       /* K = 15 */
(PID.TID 0000.0001)     ;
(PID.TID 0000.0001) radius_fromHorizGrid = /* sphere Radius of input horiz. grid */
(PID.TID 0000.0001)                 6.370000000000000E+06
(PID.TID 0000.0001)     ;
(PID.TID 0000.0001) rSphere =  /* Radius ( ignored - cartesian, m - spherical ) */
(PID.TID 0000.0001)                 6.370000000000000E+06
(PID.TID 0000.0001)     ;
(PID.TID 0000.0001) deepAtmosphere = /* Deep/Shallow Atmosphere flag (True/False) */
(PID.TID 0000.0001)                   F
(PID.TID 0000.0001)     ;
(PID.TID 0000.0001) xC =  /* xC(:,1,:,1) : P-point X coord ( deg. or m if cartesian) */
(PID.TID 0000.0001)                -4.439521994760536E+01,      /* I =  1 */
(PID.TID 0000.0001)                -4.295641272275883E+01,      /* I =  2 */
(PID.TID 0000.0001)                -4.122055553388957E+01,      /* I =  3 */
(PID.TID 0000.0001)                -3.923446288487304E+01,      /* I =  4 */
(PID.TID 0000.0001)                -3.702585158682200E+01,      /* I =  5 */
(PID.TID 0000.0001)                -3.461179367094151E+01,      /* I =  6 */
(PID.TID 0000.0001)                -3.200434569041793E+01,      /* I =  7 */
(PID.TID 0000.0001)                -2.921355965632675E+01,      /* I =  8 */
(PID.TID 0000.0001)                -2.624932223028290E+01,      /* I =  9 */
(PID.TID 0000.0001)                -2.312261250426344E+01,      /* I = 10 */
(PID.TID 0000.0001)                -1.984640717127058E+01,      /* I = 11 */
(PID.TID 0000.0001)                -1.643630800555134E+01,      /* I = 12 */
(PID.TID 0000.0001)                -1.291089806302069E+01,      /* I = 13 */
(PID.TID 0000.0001)                -9.291807802719402E+00,      /* I = 14 */
(PID.TID 0000.0001)                -5.603475335822332E+00,      /* I = 15 */
(PID.TID 0000.0001)                -1.872608513033445E+00,      /* I = 16 */
(PID.TID 0000.0001)                 1.872608513033445E+00,      /* I = 17 */
(PID.TID 0000.0001)                 5.603475335822332E+00,      /* I = 18 */
(PID.TID 0000.0001)                 9.291807802719402E+00,      /* I = 19 */
(PID.TID 0000.0001)                 1.291089806302069E+01,      /* I = 20 */
(PID.TID 0000.0001)                 1.643630800555134E+01,      /* I = 21 */
(PID.TID 0000.0001)                 1.984640717127058E+01,      /* I = 22 */
(PID.TID 0000.0001)                 2.312261250426344E+01,      /* I = 23 */
(PID.TID 0000.0001)                 2.624932223028290E+01,      /* I = 24 */
(PID.TID 0000.0001)                 2.921355965632675E+01,      /* I = 25 */
(PID.TID 0000.0001)                 3.200434569041793E+01,      /* I = 26 */
(PID.TID 0000.0001)                 3.461179367094151E+01,      /* I = 27 */
(PID.TID 0000.0001)                 3.702585158682200E+01,      /* I = 28 */
(PID.TID 0000.0001)                 3.923446288487304E+01,      /* I = 29 */
(PID.TID 0000.0001)                 4.122055553388957E+01,      /* I = 30 */
(PID.TID 0000.0001)                 4.295641272275883E+01,      /* I = 31 */
(PID.TID 0000.0001)                 4.439521994760536E+01       /* I = 32 */
(PID.TID 0000.0001)     ;
(PID.TID 0000.0001) yC =  /* yC(1,:,1,:) : P-point Y coord ( deg. or m if cartesian) */
(PID.TID 0000.0001)                -3.497677942598243E+01,      /* J =  1 */
(PID.TID 0000.0001)                -3.374005967394886E+01,      /* J =  2 */
(PID.TID 0000.0001)                -3.220655175667454E+01,      /* J =  3 */
(PID.TID 0000.0001)                -3.045756348838641E+01,      /* J =  4 */
(PID.TID 0000.0001)                -2.853728129852918E+01,      /* J =  5 */
(PID.TID 0000.0001)                -2.647426640173173E+01,      /* J =  6 */
(PID.TID 0000.0001)                -2.428936657094636E+01,      /* J =  7 */
(PID.TID 0000.0001)                -2.199915808312262E+01,      /* J =  8 */
(PID.TID 0000.0001)                -1.961768597440146E+01,      /* J =  9 */
(PID.TID 0000.0001)                -1.715743888281371E+01,      /* J = 10 */
(PID.TID 0000.0001)                -1.462993396899330E+01,      /* J = 11 */
(PID.TID 0000.0001)                -1.204608340464756E+01,      /* J = 12 */
(PID.TID 0000.0001)                -9.416429130284818E+00,      /* J = 13 */
(PID.TID 0000.0001)                -6.751293662992216E+00,      /* J = 14 */
(PID.TID 0000.0001)                -4.060875511835959E+00,      /* J = 15 */
(PID.TID 0000.0001)                -1.355307764409121E+00,      /* J = 16 */
(PID.TID 0000.0001)                 1.355307764409121E+00,      /* J = 17 */
(PID.TID 0000.0001)                 4.060875511835959E+00,      /* J = 18 */
(PID.TID 0000.0001)                 6.751293662992216E+00,      /* J = 19 */
(PID.TID 0000.0001)                 9.416429130284818E+00,      /* J = 20 */
(PID.TID 0000.0001)                 1.204608340464756E+01,      /* J = 21 */
(PID.TID 0000.0001)                 1.462993396899330E+01,      /* J = 22 */
(PID.TID 0000.0001)                 1.715743888281371E+01,      /* J = 23 */
(PID.TID 0000.0001)                 1.961768597440146E+01,      /* J = 24 */
(PID.TID 0000.0001)                 2.199915808312262E+01,      /* J = 25 */
(PID.TID 0000.0001)                 2.428936657094636E+01,      /* J = 26 */
(PID.TID 0000.0001)                 2.647426640173173E+01,      /* J = 27 */
(PID.TID 0000.0001)                 2.853728129852918E+01,      /* J = 28 */
(PID.TID 0000.0001)                 3.045756348838641E+01,      /* J = 29 */
(PID.TID 0000.0001)                 3.220655175667454E+01,      /* J = 30 */
(PID.TID 0000.0001)                 3.374005967394886E+01,      /* J = 31 */
(PID.TID 0000.0001)                 3.497677942598243E+01       /* J = 32 */
(PID.TID 0000.0001)     ;
(PID.TID 0000.0001) rcoord = /* P-point R coordinate (  units of r ) */
(PID.TID 0000.0001)                -2.500000000000000E+01,      /* K =  1 */
(PID.TID 0000.0001)                -8.500000000000000E+01,      /* K =  2 */
(PID.TID 0000.0001)                -1.700000000000000E+02,      /* K =  3 */
(PID.TID 0000.0001)                -2.900000000000000E+02,      /* K =  4 */
(PID.TID 0000.0001)                -4.550000000000000E+02,      /* K =  5 */
(PID.TID 0000.0001)                -6.700000000000000E+02,      /* K =  6 */
(PID.TID 0000.0001)                -9.350000000000000E+02,      /* K =  7 */
(PID.TID 0000.0001)                -1.250000000000000E+03,      /* K =  8 */
(PID.TID 0000.0001)                -1.615000000000000E+03,      /* K =  9 */
(PID.TID 0000.0001)                -2.030000000000000E+03,      /* K = 10 */
(PID.TID 0000.0001)                -2.495000000000000E+03,      /* K = 11 */
(PID.TID 0000.0001)                -3.010000000000000E+03,      /* K = 12 */
(PID.TID 0000.0001)                -3.575000000000000E+03,      /* K = 13 */
(PID.TID 0000.0001)                -4.190000000000000E+03,      /* K = 14 */
(PID.TID 0000.0001)                -4.855000000000000E+03       /* K = 15 */
(PID.TID 0000.0001)     ;
(PID.TID 0000.0001) rF =   /* W-Interf. R coordinate (  units of r ) */
(PID.TID 0000.0001)                 0.000000000000000E+00,      /* K =  1 */
(PID.TID 0000.0001)                -5.000000000000000E+01,      /* K =  2 */
(PID.TID 0000.0001)                -1.200000000000000E+02,      /* K =  3 */
(PID.TID 0000.0001)                -2.200000000000000E+02,      /* K =  4 */
(PID.TID 0000.0001)                -3.600000000000000E+02,      /* K =  5 */
(PID.TID 0000.0001)                -5.500000000000000E+02,      /* K =  6 */
(PID.TID 0000.0001)                -7.900000000000000E+02,      /* K =  7 */
(PID.TID 0000.0001)                -1.080000000000000E+03,      /* K =  8 */
(PID.TID 0000.0001)                -1.420000000000000E+03,      /* K =  9 */
(PID.TID 0000.0001)                -1.810000000000000E+03,      /* K = 10 */
(PID.TID 0000.0001)                -2.250000000000000E+03,      /* K = 11 */
(PID.TID 0000.0001)                -2.740000000000000E+03,      /* K = 12 */
(PID.TID 0000.0001)                -3.280000000000000E+03,      /* K = 13 */
(PID.TID 0000.0001)                -3.870000000000000E+03,      /* K = 14 */
(PID.TID 0000.0001)                -4.510000000000000E+03,      /* K = 15 */
(PID.TID 0000.0001)                -5.200000000000000E+03       /* K = 16 */
(PID.TID 0000.0001)     ;
(PID.TID 0000.0001) deepFacC = /* deep-model grid factor @ cell-Center (-) */
(PID.TID 0000.0001)    15 @  1.000000000000000E+00              /* K =  1: 15 */
(PID.TID 0000.0001)     ;
(PID.TID 0000.0001) deepFacF = /* deep-model grid factor @ W-Interface (-) */
(PID.TID 0000.0001)    16 @  1.000000000000000E+00              /* K =  1: 16 */
(PID.TID 0000.0001)     ;
(PID.TID 0000.0001) rVel2wUnit = /* convert units: rVel -> wSpeed (=1 if z-coord)*/
(PID.TID 0000.0001)    16 @  1.000000000000000E+00              /* K =  1: 16 */
(PID.TID 0000.0001)     ;
(PID.TID 0000.0001) wUnit2rVel = /* convert units: wSpeed -> rVel (=1 if z-coord)*/
(PID.TID 0000.0001)    16 @  1.000000000000000E+00              /* K =  1: 16 */
(PID.TID 0000.0001)     ;
(PID.TID 0000.0001) dBdrRef = /* Vertical grad. of reference buoyancy [(m/s/r)^2] */
(PID.TID 0000.0001)    15 @  0.000000000000000E+00              /* K =  1: 15 */
(PID.TID 0000.0001)     ;
(PID.TID 0000.0001) rotateGrid = /* use rotated grid ( True/False ) */
(PID.TID 0000.0001)                   F
(PID.TID 0000.0001)     ;
(PID.TID 0000.0001) phiEuler = /* Euler angle, rotation about original z-coordinate [rad] */
(PID.TID 0000.0001)                 0.000000000000000E+00
(PID.TID 0000.0001)     ;
(PID.TID 0000.0001) thetaEuler = /* Euler angle, rotation about new x-coordinate [rad] */
(PID.TID 0000.0001)                 0.000000000000000E+00
(PID.TID 0000.0001)     ;
(PID.TID 0000.0001) psiEuler = /* Euler angle, rotation about new z-coordinate [rad] */
(PID.TID 0000.0001)                 0.000000000000000E+00
(PID.TID 0000.0001)     ;
(PID.TID 0000.0001) dxF =  /* dxF(:,1,:,1) ( units: m ) */
(PID.TID 0000.0001)                 1.202082051331828E+05,      /* I =  1 */
(PID.TID 0000.0001)                 1.563594089971120E+05,      /* I =  2 */
(PID.TID 0000.0001)                 1.835530058121492E+05,      /* I =  3 */
(PID.TID 0000.0001)                 2.045883481718707E+05,      /* I =  4 */
(PID.TID 0000.0001)                 2.218350349844185E+05,      /* I =  5 */
(PID.TID 0000.0001)                 2.364352994647058E+05,      /* I =  6 */
(PID.TID 0000.0001)                 2.490022710862746E+05,      /* I =  7 */
(PID.TID 0000.0001)                 2.598919724358304E+05,      /* I =  8 */
(PID.TID 0000.0001)                 2.693210245495156E+05,      /* I =  9 */
(PID.TID 0000.0001)                 2.774243179696503E+05,      /* I = 10 */
(PID.TID 0000.0001)                 2.842862532064524E+05,      /* I = 11 */
(PID.TID 0000.0001)                 2.899590699694043E+05,      /* I = 12 */
(PID.TID 0000.0001)                 2.944742915095688E+05,      /* I = 13 */
(PID.TID 0000.0001)                 2.978501920522794E+05,      /* I = 14 */
(PID.TID 0000.0001)                 3.000967749619962E+05,      /* I = 15 */
(PID.TID 0000.0001)     2 @  3.012190981969055E+05,             /* I = 16: 17 */
(PID.TID 0000.0001)                 3.000967749619962E+05,      /* I = 18 */
(PID.TID 0000.0001)                 2.978501920522794E+05,      /* I = 19 */
(PID.TID 0000.0001)                 2.944742915095688E+05,      /* I = 20 */
(PID.TID 0000.0001)                 2.899590699694043E+05,      /* I = 21 */
(PID.TID 0000.0001)                 2.842862532064524E+05,      /* I = 22 */
(PID.TID 0000.0001)                 2.774243179696503E+05,      /* I = 23 */
(PID.TID 0000.0001)                 2.693210245495156E+05,      /* I = 24 */
(PID.TID 0000.0001)                 2.598919724358304E+05,      /* I = 25 */
(PID.TID 0000.0001)                 2.490022710862746E+05,      /* I = 26 */
(PID.TID 0000.0001)                 2.364352994647058E+05,      /* I = 27 */
(PID.TID 0000.0001)                 2.218350349844185E+05,      /* I = 28 */
(PID.TID 0000.0001)                 2.045883481718707E+05,      /* I = 29 */
(PID.TID 0000.0001)                 1.835530058121492E+05,      /* I = 30 */
(PID.TID 0000.0001)                 1.563594089971120E+05,      /* I = 31 */
(PID.TID 0000.0001)                 1.202082051331828E+05       /* I = 32 */
(PID.TID 0000.0001)     ;
(PID.TID 0000.0001) dxF =  /* dxF(1,:,1,:) ( units: m ) */
(PID.TID 0000.0001)                 1.202082051331828E+05,      /* J =  1 */
(PID.TID 0000.0001)                 1.572908084538706E+05,      /* J =  2 */
(PID.TID 0000.0001)                 1.840412227747703E+05,      /* J =  3 */
(PID.TID 0000.0001)                 2.048868197919576E+05,      /* J =  4 */
(PID.TID 0000.0001)                 2.220405216043041E+05,      /* J =  5 */
(PID.TID 0000.0001)                 2.365892017348392E+05,      /* J =  6 */
(PID.TID 0000.0001)                 2.491250781852558E+05,      /* J =  7 */
(PID.TID 0000.0001)                 2.599949918261881E+05,      /* J =  8 */
(PID.TID 0000.0001)                 2.694110134598581E+05,      /* J =  9 */
(PID.TID 0000.0001)                 2.775055554645015E+05,      /* J = 10 */
(PID.TID 0000.0001)                 2.843615645344775E+05,      /* J = 11 */
(PID.TID 0000.0001)                 2.900303768613599E+05,      /* J = 12 */
(PID.TID 0000.0001)                 2.945429307892709E+05,      /* J = 13 */
(PID.TID 0000.0001)                 2.979171143158405E+05,      /* J = 14 */
(PID.TID 0000.0001)                 3.001626787528886E+05,      /* J = 15 */
(PID.TID 0000.0001)     2 @  3.012844832048790E+05,             /* J = 16: 17 */
(PID.TID 0000.0001)                 3.001626787528886E+05,      /* J = 18 */
(PID.TID 0000.0001)                 2.979171143158405E+05,      /* J = 19 */
(PID.TID 0000.0001)                 2.945429307892709E+05,      /* J = 20 */
(PID.TID 0000.0001)                 2.900303768613599E+05,      /* J = 21 */
(PID.TID 0000.0001)                 2.843615645344775E+05,      /* J = 22 */
(PID.TID 0000.0001)                 2.775055554645015E+05,      /* J = 23 */
(PID.TID 0000.0001)                 2.694110134598581E+05,      /* J = 24 */
(PID.TID 0000.0001)                 2.599949918261881E+05,      /* J = 25 */
(PID.TID 0000.0001)                 2.491250781852558E+05,      /* J = 26 */
(PID.TID 0000.0001)                 2.365892017348392E+05,      /* J = 27 */
(PID.TID 0000.0001)                 2.220405216043041E+05,      /* J = 28 */
(PID.TID 0000.0001)                 2.048868197919576E+05,      /* J = 29 */
(PID.TID 0000.0001)                 1.840412227747703E+05,      /* J = 30 */
(PID.TID 0000.0001)                 1.572908084538706E+05,      /* J = 31 */
(PID.TID 0000.0001)                 1.202082051331828E+05       /* J = 32 */
(PID.TID 0000.0001)     ;
(PID.TID 0000.0001) dyF =  /* dyF(:,1,:,1) ( units: m ) */
(PID.TID 0000.0001)                 1.202082051331828E+05,      /* I =  1 */
(PID.TID 0000.0001)                 1.572908084538706E+05,      /* I =  2 */
(PID.TID 0000.0001)                 1.840412227747703E+05,      /* I =  3 */
(PID.TID 0000.0001)                 2.048868197919576E+05,      /* I =  4 */
(PID.TID 0000.0001)                 2.220405216043041E+05,      /* I =  5 */
(PID.TID 0000.0001)                 2.365892017348392E+05,      /* I =  6 */
(PID.TID 0000.0001)                 2.491250781852558E+05,      /* I =  7 */
(PID.TID 0000.0001)                 2.599949918261881E+05,      /* I =  8 */
(PID.TID 0000.0001)                 2.694110134598581E+05,      /* I =  9 */
(PID.TID 0000.0001)                 2.775055554645015E+05,      /* I = 10 */
(PID.TID 0000.0001)                 2.843615645344775E+05,      /* I = 11 */
(PID.TID 0000.0001)                 2.900303768613599E+05,      /* I = 12 */
(PID.TID 0000.0001)                 2.945429307892709E+05,      /* I = 13 */
(PID.TID 0000.0001)                 2.979171143158405E+05,      /* I = 14 */
(PID.TID 0000.0001)                 3.001626787528886E+05,      /* I = 15 */
(PID.TID 0000.0001)     2 @  3.012844832048790E+05,             /* I = 16: 17 */
(PID.TID 0000.0001)                 3.001626787528886E+05,      /* I = 18 */
(PID.TID 0000.0001)                 2.979171143158405E+05,      /* I = 19 */
(PID.TID 0000.0001)                 2.945429307892709E+05,      /* I = 20 */
(PID.TID 0000.0001)                 2.900303768613599E+05,      /* I = 21 */
(PID.TID 0000.0001)                 2.843615645344775E+05,      /* I = 22 */
(PID.TID 0000.0001)                 2.775055554645015E+05,      /* I = 23 */
(PID.TID 0000.0001)                 2.694110134598581E+05,      /* I = 24 */
(PID.TID 0000.0001)                 2.599949918261881E+05,      /* I = 25 */
(PID.TID 0000.0001)                 2.491250781852558E+05,      /* I = 26 */
(PID.TID 0000.0001)                 2.365892017348392E+05,      /* I = 27 */
(PID.TID 0000.0001)                 2.220405216043041E+05,      /* I = 28 */
(PID.TID 0000.0001)                 2.048868197919576E+05,      /* I = 29 */
(PID.TID 0000.0001)                 1.840412227747703E+05,      /* I = 30 */
(PID.TID 0000.0001)                 1.572908084538706E+05,      /* I = 31 */
(PID.TID 0000.0001)                 1.202082051331828E+05       /* I = 32 */
(PID.TID 0000.0001)     ;
(PID.TID 0000.0001) dyF =  /* dyF(1,:,1,:) ( units: m ) */
(PID.TID 0000.0001)                 1.202082051331828E+05,      /* J =  1 */
(PID.TID 0000.0001)                 1.563594089971120E+05,      /* J =  2 */
(PID.TID 0000.0001)                 1.835530058121492E+05,      /* J =  3 */
(PID.TID 0000.0001)                 2.045883481718707E+05,      /* J =  4 */
(PID.TID 0000.0001)                 2.218350349844185E+05,      /* J =  5 */
(PID.TID 0000.0001)                 2.364352994647058E+05,      /* J =  6 */
(PID.TID 0000.0001)                 2.490022710862746E+05,      /* J =  7 */
(PID.TID 0000.0001)                 2.598919724358304E+05,      /* J =  8 */
(PID.TID 0000.0001)                 2.693210245495156E+05,      /* J =  9 */
(PID.TID 0000.0001)                 2.774243179696503E+05,      /* J = 10 */
(PID.TID 0000.0001)                 2.842862532064524E+05,      /* J = 11 */
(PID.TID 0000.0001)                 2.899590699694043E+05,      /* J = 12 */
(PID.TID 0000.0001)                 2.944742915095688E+05,      /* J = 13 */
(PID.TID 0000.0001)                 2.978501920522794E+05,      /* J = 14 */
(PID.TID 0000.0001)                 3.000967749619962E+05,      /* J = 15 */
(PID.TID 0000.0001)     2 @  3.012190981969055E+05,             /* J = 16: 17 */
(PID.TID 0000.0001)                 3.000967749619962E+05,      /* J = 18 */
(PID.TID 0000.0001)                 2.978501920522794E+05,      /* J = 19 */
(PID.TID 0000.0001)                 2.944742915095688E+05,      /* J = 20 */
(PID.TID 0000.0001)                 2.899590699694043E+05,      /* J = 21 */
(PID.TID 0000.0001)                 2.842862532064524E+05,      /* J = 22 */
(PID.TID 0000.0001)                 2.774243179696503E+05,      /* J = 23 */
(PID.TID 0000.0001)                 2.693210245495156E+05,      /* J = 24 */
(PID.TID 0000.0001)                 2.598919724358304E+05,      /* J = 25 */
(PID.TID 0000.0001)                 2.490022710862746E+05,      /* J = 26 */
(PID.TID 0000.0001)                 2.364352994647058E+05,      /* J = 27 */
(PID.TID 0000.0001)                 2.218350349844185E+05,      /* J = 28 */
(PID.TID 0000.0001)                 2.045883481718707E+05,      /* J = 29 */
(PID.TID 0000.0001)                 1.835530058121492E+05,      /* J = 30 */
(PID.TID 0000.0001)                 1.563594089971120E+05,      /* J = 31 */
(PID.TID 0000.0001)                 1.202082051331828E+05       /* J = 32 */
(PID.TID 0000.0001)     ;
(PID.TID 0000.0001) dxG =  /* dxG(:,1,:,1) ( units: m ) */
(PID.TID 0000.0001)                 1.009837800879055E+05,      /* I =  1 */
(PID.TID 0000.0001)                 1.534505834330338E+05,      /* I =  2 */
(PID.TID 0000.0001)                 1.823321598773926E+05,      /* I =  3 */
(PID.TID 0000.0001)                 2.038999045536999E+05,      /* I =  4 */
(PID.TID 0000.0001)                 2.213884732245467E+05,      /* I =  5 */
(PID.TID 0000.0001)                 2.361211699596122E+05,      /* I =  6 */
(PID.TID 0000.0001)                 2.487693460283865E+05,      /* I =  7 */
(PID.TID 0000.0001)                 2.597126963772147E+05,      /* I =  8 */
(PID.TID 0000.0001)                 2.691790288994575E+05,      /* I =  9 */
(PID.TID 0000.0001)                 2.773091043277394E+05,      /* I = 10 */
(PID.TID 0000.0001)                 2.841906470085516E+05,      /* I = 11 */
(PID.TID 0000.0001)                 2.898778860929753E+05,      /* I = 12 */
(PID.TID 0000.0001)                 2.944035815526416E+05,      /* I = 13 */
(PID.TID 0000.0001)                 2.977867909042096E+05,      /* I = 14 */
(PID.TID 0000.0001)                 3.000380090330854E+05,      /* I = 15 */
(PID.TID 0000.0001)     2 @  3.011625828699101E+05,             /* I = 16: 17 */
(PID.TID 0000.0001)                 3.000380090330854E+05,      /* I = 18 */
(PID.TID 0000.0001)                 2.977867909042096E+05,      /* I = 19 */
(PID.TID 0000.0001)                 2.944035815526416E+05,      /* I = 20 */
(PID.TID 0000.0001)                 2.898778860929753E+05,      /* I = 21 */
(PID.TID 0000.0001)                 2.841906470085516E+05,      /* I = 22 */
(PID.TID 0000.0001)                 2.773091043277394E+05,      /* I = 23 */
(PID.TID 0000.0001)                 2.691790288994575E+05,      /* I = 24 */
(PID.TID 0000.0001)                 2.597126963772147E+05,      /* I = 25 */
(PID.TID 0000.0001)                 2.487693460283865E+05,      /* I = 26 */
(PID.TID 0000.0001)                 2.361211699596122E+05,      /* I = 27 */
(PID.TID 0000.0001)                 2.213884732245467E+05,      /* I = 28 */
(PID.TID 0000.0001)                 2.038999045536999E+05,      /* I = 29 */
(PID.TID 0000.0001)                 1.823321598773926E+05,      /* I = 30 */
(PID.TID 0000.0001)                 1.534505834330338E+05,      /* I = 31 */
(PID.TID 0000.0001)                 1.009837800879055E+05       /* I = 32 */
(PID.TID 0000.0001)     ;
(PID.TID 0000.0001) dxG =  /* dxG(1,:,1,:) ( units: m ) */
(PID.TID 0000.0001)                 1.009837800879055E+05,      /* J =  1 */
(PID.TID 0000.0001)                 1.403701524205398E+05,      /* J =  2 */
(PID.TID 0000.0001)                 1.716197227386011E+05,      /* J =  3 */
(PID.TID 0000.0001)                 1.950254041626018E+05,      /* J =  4 */
(PID.TID 0000.0001)                 2.138410773065497E+05,      /* J =  5 */
(PID.TID 0000.0001)                 2.295958105911512E+05,      /* J =  6 */
(PID.TID 0000.0001)                 2.430829951739083E+05,      /* J =  7 */
(PID.TID 0000.0001)                 2.547526806712889E+05,      /* J =  8 */
(PID.TID 0000.0001)                 2.648750305193301E+05,      /* J =  9 */
(PID.TID 0000.0001)                 2.736173771018112E+05,      /* J = 10 */
(PID.TID 0000.0001)                 2.810845823202647E+05,      /* J = 11 */
(PID.TID 0000.0001)                 2.873420591008078E+05,      /* J = 12 */
(PID.TID 0000.0001)                 2.924298293668651E+05,      /* J = 13 */
(PID.TID 0000.0001)                 2.963715635865306E+05,      /* J = 14 */
(PID.TID 0000.0001)                 2.991805843171258E+05,      /* J = 15 */
(PID.TID 0000.0001)                 3.008638765647886E+05,      /* J = 16 */
(PID.TID 0000.0001)                 3.014246674484008E+05,      /* J = 17 */
(PID.TID 0000.0001)                 3.008638765647886E+05,      /* J = 18 */
(PID.TID 0000.0001)                 2.991805843171258E+05,      /* J = 19 */
(PID.TID 0000.0001)                 2.963715635865306E+05,      /* J = 20 */
(PID.TID 0000.0001)                 2.924298293668651E+05,      /* J = 21 */
(PID.TID 0000.0001)                 2.873420591008078E+05,      /* J = 22 */
(PID.TID 0000.0001)                 2.810845823202647E+05,      /* J = 23 */
(PID.TID 0000.0001)                 2.736173771018112E+05,      /* J = 24 */
(PID.TID 0000.0001)                 2.648750305193301E+05,      /* J = 25 */
(PID.TID 0000.0001)                 2.547526806712889E+05,      /* J = 26 */
(PID.TID 0000.0001)                 2.430829951739083E+05,      /* J = 27 */
(PID.TID 0000.0001)                 2.295958105911512E+05,      /* J = 28 */
(PID.TID 0000.0001)                 2.138410773065497E+05,      /* J = 29 */
(PID.TID 0000.0001)                 1.950254041626018E+05,      /* J = 30 */
(PID.TID 0000.0001)                 1.716197227386011E+05,      /* J = 31 */
(PID.TID 0000.0001)                 1.403701524205398E+05       /* J = 32 */
(PID.TID 0000.0001)     ;
(PID.TID 0000.0001) dyG =  /* dyG(:,1,:,1) ( units: m ) */
(PID.TID 0000.0001)                 1.009837800879055E+05,      /* I =  1 */
(PID.TID 0000.0001)                 1.403701524205398E+05,      /* I =  2 */
(PID.TID 0000.0001)                 1.716197227386011E+05,      /* I =  3 */
(PID.TID 0000.0001)                 1.950254041626018E+05,      /* I =  4 */
(PID.TID 0000.0001)                 2.138410773065497E+05,      /* I =  5 */
(PID.TID 0000.0001)                 2.295958105911512E+05,      /* I =  6 */
(PID.TID 0000.0001)                 2.430829951739083E+05,      /* I =  7 */
(PID.TID 0000.0001)                 2.547526806712889E+05,      /* I =  8 */
(PID.TID 0000.0001)                 2.648750305193301E+05,      /* I =  9 */
(PID.TID 0000.0001)                 2.736173771018112E+05,      /* I = 10 */
(PID.TID 0000.0001)                 2.810845823202647E+05,      /* I = 11 */
(PID.TID 0000.0001)                 2.873420591008078E+05,      /* I = 12 */
(PID.TID 0000.0001)                 2.924298293668651E+05,      /* I = 13 */
(PID.TID 0000.0001)                 2.963715635865306E+05,      /* I = 14 */
(PID.TID 0000.0001)                 2.991805843171258E+05,      /* I = 15 */
(PID.TID 0000.0001)                 3.008638765647886E+05,      /* I = 16 */
(PID.TID 0000.0001)                 3.014246674484008E+05,      /* I = 17 */
(PID.TID 0000.0001)                 3.008638765647886E+05,      /* I = 18 */
(PID.TID 0000.0001)                 2.991805843171258E+05,      /* I = 19 */
(PID.TID 0000.0001)                 2.963715635865306E+05,      /* I = 20 */
(PID.TID 0000.0001)                 2.924298293668651E+05,      /* I = 21 */
(PID.TID 0000.0001)                 2.873420591008078E+05,      /* I = 22 */
(PID.TID 0000.0001)                 2.810845823202647E+05,      /* I = 23 */
(PID.TID 0000.0001)                 2.736173771018112E+05,      /* I = 24 */
(PID.TID 0000.0001)                 2.648750305193301E+05,      /* I = 25 */
(PID.TID 0000.0001)                 2.547526806712889E+05,      /* I = 26 */
(PID.TID 0000.0001)                 2.430829951739083E+05,      /* I = 27 */
(PID.TID 0000.0001)                 2.295958105911512E+05,      /* I = 28 */
(PID.TID 0000.0001)                 2.138410773065497E+05,      /* I = 29 */
(PID.TID 0000.0001)                 1.950254041626018E+05,      /* I = 30 */
(PID.TID 0000.0001)                 1.716197227386011E+05,      /* I = 31 */
(PID.TID 0000.0001)                 1.403701524205398E+05       /* I = 32 */
(PID.TID 0000.0001)     ;
(PID.TID 0000.0001) dyG =  /* dyG(1,:,1,:) ( units: m ) */
(PID.TID 0000.0001)                 1.009837800879055E+05,      /* J =  1 */
(PID.TID 0000.0001)                 1.534505834330338E+05,      /* J =  2 */
(PID.TID 0000.0001)                 1.823321598773926E+05,      /* J =  3 */
(PID.TID 0000.0001)                 2.038999045536999E+05,      /* J =  4 */
(PID.TID 0000.0001)                 2.213884732245467E+05,      /* J =  5 */
(PID.TID 0000.0001)                 2.361211699596122E+05,      /* J =  6 */
(PID.TID 0000.0001)                 2.487693460283865E+05,      /* J =  7 */
(PID.TID 0000.0001)                 2.597126963772147E+05,      /* J =  8 */
(PID.TID 0000.0001)                 2.691790288994575E+05,      /* J =  9 */
(PID.TID 0000.0001)                 2.773091043277394E+05,      /* J = 10 */
(PID.TID 0000.0001)                 2.841906470085516E+05,      /* J = 11 */
(PID.TID 0000.0001)                 2.898778860929753E+05,      /* J = 12 */
(PID.TID 0000.0001)                 2.944035815526416E+05,      /* J = 13 */
(PID.TID 0000.0001)                 2.977867909042096E+05,      /* J = 14 */
(PID.TID 0000.0001)                 3.000380090330854E+05,      /* J = 15 */
(PID.TID 0000.0001)     2 @  3.011625828699101E+05,             /* J = 16: 17 */
(PID.TID 0000.0001)                 3.000380090330854E+05,      /* J = 18 */
(PID.TID 0000.0001)                 2.977867909042096E+05,      /* J = 19 */
(PID.TID 0000.0001)                 2.944035815526416E+05,      /* J = 20 */
(PID.TID 0000.0001)                 2.898778860929753E+05,      /* J = 21 */
(PID.TID 0000.0001)                 2.841906470085516E+05,      /* J = 22 */
(PID.TID 0000.0001)                 2.773091043277394E+05,      /* J = 23 */
(PID.TID 0000.0001)                 2.691790288994575E+05,      /* J = 24 */
(PID.TID 0000.0001)                 2.597126963772147E+05,      /* J = 25 */
(PID.TID 0000.0001)                 2.487693460283865E+05,      /* J = 26 */
(PID.TID 0000.0001)                 2.361211699596122E+05,      /* J = 27 */
(PID.TID 0000.0001)                 2.213884732245467E+05,      /* J = 28 */
(PID.TID 0000.0001)                 2.038999045536999E+05,      /* J = 29 */
(PID.TID 0000.0001)                 1.823321598773926E+05,      /* J = 30 */
(PID.TID 0000.0001)                 1.534505834330338E+05,      /* J = 31 */
(PID.TID 0000.0001)                 1.009837800879055E+05       /* J = 32 */
(PID.TID 0000.0001)     ;
(PID.TID 0000.0001) dxC =  /* dxC(:,1,:,1) ( units: m ) */
(PID.TID 0000.0001)                 1.114203141013064E+05,      /* I =  1 */
(PID.TID 0000.0001)                 1.391343389937106E+05,      /* I =  2 */
(PID.TID 0000.0001)                 1.709574999026266E+05,      /* I =  3 */
(PID.TID 0000.0001)                 1.946503699269892E+05,      /* I =  4 */
(PID.TID 0000.0001)                 2.135964483342134E+05,      /* I =  5 */
(PID.TID 0000.0001)                 2.294195678257306E+05,      /* I =  6 */
(PID.TID 0000.0001)                 2.429464709770498E+05,      /* I =  7 */
(PID.TID 0000.0001)                 2.546408290696998E+05,      /* I =  8 */
(PID.TID 0000.0001)                 2.647791839299727E+05,      /* I =  9 */
(PID.TID 0000.0001)                 2.735321911346108E+05,      /* I = 10 */
(PID.TID 0000.0001)                 2.810065951609633E+05,      /* I = 11 */
(PID.TID 0000.0001)                 2.872689479506990E+05,      /* I = 12 */
(PID.TID 0000.0001)                 2.923599955312932E+05,      /* I = 13 */
(PID.TID 0000.0001)                 2.963038832565530E+05,      /* I = 14 */
(PID.TID 0000.0001)                 2.991142470004740E+05,      /* I = 15 */
(PID.TID 0000.0001)                 3.007982711627968E+05,      /* I = 16 */
(PID.TID 0000.0001)                 3.013593857228136E+05,      /* I = 17 */
(PID.TID 0000.0001)                 3.007982711627968E+05,      /* I = 18 */
(PID.TID 0000.0001)                 2.991142470004740E+05,      /* I = 19 */
(PID.TID 0000.0001)                 2.963038832565530E+05,      /* I = 20 */
(PID.TID 0000.0001)                 2.923599955312932E+05,      /* I = 21 */
(PID.TID 0000.0001)                 2.872689479506990E+05,      /* I = 22 */
(PID.TID 0000.0001)                 2.810065951609633E+05,      /* I = 23 */
(PID.TID 0000.0001)                 2.735321911346108E+05,      /* I = 24 */
(PID.TID 0000.0001)                 2.647791839299727E+05,      /* I = 25 */
(PID.TID 0000.0001)                 2.546408290696998E+05,      /* I = 26 */
(PID.TID 0000.0001)                 2.429464709770498E+05,      /* I = 27 */
(PID.TID 0000.0001)                 2.294195678257306E+05,      /* I = 28 */
(PID.TID 0000.0001)                 2.135964483342134E+05,      /* I = 29 */
(PID.TID 0000.0001)                 1.946503699269892E+05,      /* I = 30 */
(PID.TID 0000.0001)                 1.709574999026266E+05,      /* I = 31 */
(PID.TID 0000.0001)                 1.391343389937106E+05       /* I = 32 */
(PID.TID 0000.0001)     ;
(PID.TID 0000.0001) dxC =  /* dxC(1,:,1,:) ( units: m ) */
(PID.TID 0000.0001)                 1.114203141013064E+05,      /* J =  1 */
(PID.TID 0000.0001)                 1.549545757850771E+05,      /* J =  2 */
(PID.TID 0000.0001)                 1.829777599966776E+05,      /* J =  3 */
(PID.TID 0000.0001)                 2.042717761866506E+05,      /* J =  4 */
(PID.TID 0000.0001)                 2.216367828252819E+05,      /* J =  5 */
(PID.TID 0000.0001)                 2.363029564123586E+05,      /* J =  6 */
(PID.TID 0000.0001)                 2.489113743322025E+05,      /* J =  7 */
(PID.TID 0000.0001)                 2.598293319150326E+05,      /* J =  8 */
(PID.TID 0000.0001)                 2.692787333338535E+05,      /* J =  9 */
(PID.TID 0000.0001)                 2.773972106720365E+05,      /* J = 10 */
(PID.TID 0000.0001)                 2.842706922224557E+05,      /* J = 11 */
(PID.TID 0000.0001)                 2.899523122489403E+05,      /* J = 12 */
(PID.TID 0000.0001)                 2.944741346384699E+05,      /* J = 13 */
(PID.TID 0000.0001)                 2.978547649292580E+05,      /* J = 14 */
(PID.TID 0000.0001)                 3.001044073506459E+05,      /* J = 15 */
(PID.TID 0000.0001)     2 @  3.012281885409289E+05,             /* J = 16: 17 */
(PID.TID 0000.0001)                 3.001044073506459E+05,      /* J = 18 */
(PID.TID 0000.0001)                 2.978547649292580E+05,      /* J = 19 */
(PID.TID 0000.0001)                 2.944741346384699E+05,      /* J = 20 */
(PID.TID 0000.0001)                 2.899523122489403E+05,      /* J = 21 */
(PID.TID 0000.0001)                 2.842706922224557E+05,      /* J = 22 */
(PID.TID 0000.0001)                 2.773972106720365E+05,      /* J = 23 */
(PID.TID 0000.0001)                 2.692787333338535E+05,      /* J = 24 */
(PID.TID 0000.0001)                 2.598293319150326E+05,      /* J = 25 */
(PID.TID 0000.0001)                 2.489113743322025E+05,      /* J = 26 */
(PID.TID 0000.0001)                 2.363029564123586E+05,      /* J = 27 */
(PID.TID 0000.0001)                 2.216367828252819E+05,      /* J = 28 */
(PID.TID 0000.0001)                 2.042717761866506E+05,      /* J = 29 */
(PID.TID 0000.0001)                 1.829777599966776E+05,      /* J = 30 */
(PID.TID 0000.0001)                 1.549545757850771E+05,      /* J = 31 */
(PID.TID 0000.0001)                 1.114203141013064E+05       /* J = 32 */
(PID.TID 0000.0001)     ;
(PID.TID 0000.0001) dyC =  /* dyC(:,1,:,1) ( units: m ) */
(PID.TID 0000.0001)                 1.114203141013064E+05,      /* I =  1 */
(PID.TID 0000.0001)                 1.549545757850771E+05,      /* I =  2 */
(PID.TID 0000.0001)                 1.829777599966776E+05,      /* I =  3 */
(PID.TID 0000.0001)                 2.042717761866506E+05,      /* I =  4 */
(PID.TID 0000.0001)                 2.216367828252819E+05,      /* I =  5 */
(PID.TID 0000.0001)                 2.363029564123586E+05,      /* I =  6 */
(PID.TID 0000.0001)                 2.489113743322025E+05,      /* I =  7 */
(PID.TID 0000.0001)                 2.598293319150326E+05,      /* I =  8 */
(PID.TID 0000.0001)                 2.692787333338535E+05,      /* I =  9 */
(PID.TID 0000.0001)                 2.773972106720365E+05,      /* I = 10 */
(PID.TID 0000.0001)                 2.842706922224557E+05,      /* I = 11 */
(PID.TID 0000.0001)                 2.899523122489403E+05,      /* I = 12 */
(PID.TID 0000.0001)                 2.944741346384699E+05,      /* I = 13 */
(PID.TID 0000.0001)                 2.978547649292580E+05,      /* I = 14 */
(PID.TID 0000.0001)                 3.001044073506459E+05,      /* I = 15 */
(PID.TID 0000.0001)     2 @  3.012281885409289E+05,             /* I = 16: 17 */
(PID.TID 0000.0001)                 3.001044073506459E+05,      /* I = 18 */
(PID.TID 0000.0001)                 2.978547649292580E+05,      /* I = 19 */
(PID.TID 0000.0001)                 2.944741346384699E+05,      /* I = 20 */
(PID.TID 0000.0001)                 2.899523122489403E+05,      /* I = 21 */
(PID.TID 0000.0001)                 2.842706922224557E+05,      /* I = 22 */
(PID.TID 0000.0001)                 2.773972106720365E+05,      /* I = 23 */
(PID.TID 0000.0001)                 2.692787333338535E+05,      /* I = 24 */
(PID.TID 0000.0001)                 2.598293319150326E+05,      /* I = 25 */
(PID.TID 0000.0001)                 2.489113743322025E+05,      /* I = 26 */
(PID.TID 0000.0001)                 2.363029564123586E+05,      /* I = 27 */
(PID.TID 0000.0001)                 2.216367828252819E+05,      /* I = 28 */
(PID.TID 0000.0001)                 2.042717761866506E+05,      /* I = 29 */
(PID.TID 0000.0001)                 1.829777599966776E+05,      /* I = 30 */
(PID.TID 0000.0001)                 1.549545757850771E+05,      /* I = 31 */
(PID.TID 0000.0001)                 1.114203141013064E+05       /* I = 32 */
(PID.TID 0000.0001)     ;
(PID.TID 0000.0001) dyC =  /* dyC(1,:,1,:) ( units: m ) */
(PID.TID 0000.0001)                 1.114203141013064E+05,      /* J =  1 */
(PID.TID 0000.0001)                 1.391343389937106E+05,      /* J =  2 */
(PID.TID 0000.0001)                 1.709574999026266E+05,      /* J =  3 */
(PID.TID 0000.0001)                 1.946503699269892E+05,      /* J =  4 */
(PID.TID 0000.0001)                 2.135964483342134E+05,      /* J =  5 */
(PID.TID 0000.0001)                 2.294195678257306E+05,      /* J =  6 */
(PID.TID 0000.0001)                 2.429464709770498E+05,      /* J =  7 */
(PID.TID 0000.0001)                 2.546408290696998E+05,      /* J =  8 */
(PID.TID 0000.0001)                 2.647791839299727E+05,      /* J =  9 */
(PID.TID 0000.0001)                 2.735321911346108E+05,      /* J = 10 */
(PID.TID 0000.0001)                 2.810065951609633E+05,      /* J = 11 */
(PID.TID 0000.0001)                 2.872689479506990E+05,      /* J = 12 */
(PID.TID 0000.0001)                 2.923599955312932E+05,      /* J = 13 */
(PID.TID 0000.0001)                 2.963038832565530E+05,      /* J = 14 */
(PID.TID 0000.0001)                 2.991142470004740E+05,      /* J = 15 */
(PID.TID 0000.0001)                 3.007982711627968E+05,      /* J = 16 */
(PID.TID 0000.0001)                 3.013593857228136E+05,      /* J = 17 */
(PID.TID 0000.0001)                 3.007982711627968E+05,      /* J = 18 */
(PID.TID 0000.0001)                 2.991142470004740E+05,      /* J = 19 */
(PID.TID 0000.0001)                 2.963038832565530E+05,      /* J = 20 */
(PID.TID 0000.0001)                 2.923599955312932E+05,      /* J = 21 */
(PID.TID 0000.0001)                 2.872689479506990E+05,      /* J = 22 */
(PID.TID 0000.0001)                 2.810065951609633E+05,      /* J = 23 */
(PID.TID 0000.0001)                 2.735321911346108E+05,      /* J = 24 */
(PID.TID 0000.0001)                 2.647791839299727E+05,      /* J = 25 */
(PID.TID 0000.0001)                 2.546408290696998E+05,      /* J = 26 */
(PID.TID 0000.0001)                 2.429464709770498E+05,      /* J = 27 */
(PID.TID 0000.0001)                 2.294195678257306E+05,      /* J = 28 */
(PID.TID 0000.0001)                 2.135964483342134E+05,      /* J = 29 */
(PID.TID 0000.0001)                 1.946503699269892E+05,      /* J = 30 */
(PID.TID 0000.0001)                 1.709574999026266E+05,      /* J = 31 */
(PID.TID 0000.0001)                 1.391343389937106E+05       /* J = 32 */
(PID.TID 0000.0001)     ;
(PID.TID 0000.0001) dxV =  /* dxV(:,1,:,1) ( units: m ) */
(PID.TID 0000.0001)                 8.015229982413632E+04,      /* I =  1 */
(PID.TID 0000.0001)                 1.333130744933864E+05,      /* I =  2 */
(PID.TID 0000.0001)                 1.691744868129062E+05,      /* I =  3 */
(PID.TID 0000.0001)                 1.937548202849060E+05,      /* I =  4 */
(PID.TID 0000.0001)                 2.130490056267208E+05,      /* I =  5 */
(PID.TID 0000.0001)                 2.290479919481738E+05,      /* I =  6 */
(PID.TID 0000.0001)                 2.426774358027003E+05,      /* I =  7 */
(PID.TID 0000.0001)                 2.544372984215561E+05,      /* I =  8 */
(PID.TID 0000.0001)                 2.646201463834826E+05,      /* I =  9 */
(PID.TID 0000.0001)                 2.734046499619031E+05,      /* I = 10 */
(PID.TID 0000.0001)                 2.809019351693761E+05,      /* I = 11 */
(PID.TID 0000.0001)                 2.871811105274442E+05,      /* I = 12 */
(PID.TID 0000.0001)                 2.922844849381675E+05,      /* I = 13 */
(PID.TID 0000.0001)                 2.962371870847826E+05,      /* I = 14 */
(PID.TID 0000.0001)                 2.990534755671296E+05,      /* I = 15 */
(PID.TID 0000.0001)                 3.007409169495504E+05,      /* I = 16 */
(PID.TID 0000.0001)                 3.013031486919771E+05,      /* I = 17 */
(PID.TID 0000.0001)                 3.007409169495504E+05,      /* I = 18 */
(PID.TID 0000.0001)                 2.990534755671296E+05,      /* I = 19 */
(PID.TID 0000.0001)                 2.962371870847826E+05,      /* I = 20 */
(PID.TID 0000.0001)                 2.922844849381675E+05,      /* I = 21 */
(PID.TID 0000.0001)                 2.871811105274442E+05,      /* I = 22 */
(PID.TID 0000.0001)                 2.809019351693761E+05,      /* I = 23 */
(PID.TID 0000.0001)                 2.734046499619031E+05,      /* I = 24 */
(PID.TID 0000.0001)                 2.646201463834826E+05,      /* I = 25 */
(PID.TID 0000.0001)                 2.544372984215561E+05,      /* I = 26 */
(PID.TID 0000.0001)                 2.426774358027003E+05,      /* I = 27 */
(PID.TID 0000.0001)                 2.290479919481738E+05,      /* I = 28 */
(PID.TID 0000.0001)                 2.130490056267208E+05,      /* I = 29 */
(PID.TID 0000.0001)                 1.937548202849060E+05,      /* I = 30 */
(PID.TID 0000.0001)                 1.691744868129062E+05,      /* I = 31 */
(PID.TID 0000.0001)                 1.333130744933864E+05       /* I = 32 */
(PID.TID 0000.0001)     ;
(PID.TID 0000.0001) dxV =  /* dxV(1,:,1,:) ( units: m ) */
(PID.TID 0000.0001)                 8.015229982413632E+04,      /* J =  1 */
(PID.TID 0000.0001)                 1.362652340208229E+05,      /* J =  2 */
(PID.TID 0000.0001)                 1.701080315742101E+05,      /* J =  3 */
(PID.TID 0000.0001)                 1.942331448101592E+05,      /* J =  4 */
(PID.TID 0000.0001)                 2.133486626971531E+05,      /* J =  5 */
(PID.TID 0000.0001)                 2.292584591272880E+05,      /* J =  6 */
(PID.TID 0000.0001)                 2.428369969078989E+05,      /* J =  7 */
(PID.TID 0000.0001)                 2.545652950875683E+05,      /* J =  8 */
(PID.TID 0000.0001)                 2.647274964828301E+05,      /* J =  9 */
(PID.TID 0000.0001)                 2.734980225206389E+05,      /* J = 10 */
(PID.TID 0000.0001)                 2.809856491525217E+05,      /* J = 11 */
(PID.TID 0000.0001)                 2.872580915202295E+05,      /* J = 12 */
(PID.TID 0000.0001)                 2.923567890694162E+05,      /* J = 13 */
(PID.TID 0000.0001)                 2.963063101754721E+05,      /* J = 14 */
(PID.TID 0000.0001)                 2.991205495886625E+05,      /* J = 15 */
(PID.TID 0000.0001)                 3.008068453676764E+05,      /* J = 16 */
(PID.TID 0000.0001)                 3.013686170436881E+05,      /* J = 17 */
(PID.TID 0000.0001)                 3.008068453676764E+05,      /* J = 18 */
(PID.TID 0000.0001)                 2.991205495886625E+05,      /* J = 19 */
(PID.TID 0000.0001)                 2.963063101754721E+05,      /* J = 20 */
(PID.TID 0000.0001)                 2.923567890694162E+05,      /* J = 21 */
(PID.TID 0000.0001)                 2.872580915202295E+05,      /* J = 22 */
(PID.TID 0000.0001)                 2.809856491525217E+05,      /* J = 23 */
(PID.TID 0000.0001)                 2.734980225206389E+05,      /* J = 24 */
(PID.TID 0000.0001)                 2.647274964828301E+05,      /* J = 25 */
(PID.TID 0000.0001)                 2.545652950875683E+05,      /* J = 26 */
(PID.TID 0000.0001)                 2.428369969078989E+05,      /* J = 27 */
(PID.TID 0000.0001)                 2.292584591272880E+05,      /* J = 28 */
(PID.TID 0000.0001)                 2.133486626971531E+05,      /* J = 29 */
(PID.TID 0000.0001)                 1.942331448101592E+05,      /* J = 30 */
(PID.TID 0000.0001)                 1.701080315742101E+05,      /* J = 31 */
(PID.TID 0000.0001)                 1.362652340208229E+05       /* J = 32 */
(PID.TID 0000.0001)     ;
(PID.TID 0000.0001) dyU =  /* dyU(:,1,:,1) ( units: m ) */
(PID.TID 0000.0001)                 8.015229982413632E+04,      /* I =  1 */
(PID.TID 0000.0001)                 1.362652340208229E+05,      /* I =  2 */
(PID.TID 0000.0001)                 1.701080315742101E+05,      /* I =  3 */
(PID.TID 0000.0001)                 1.942331448101592E+05,      /* I =  4 */
(PID.TID 0000.0001)                 2.133486626971531E+05,      /* I =  5 */
(PID.TID 0000.0001)                 2.292584591272880E+05,      /* I =  6 */
(PID.TID 0000.0001)                 2.428369969078989E+05,      /* I =  7 */
(PID.TID 0000.0001)                 2.545652950875683E+05,      /* I =  8 */
(PID.TID 0000.0001)                 2.647274964828301E+05,      /* I =  9 */
(PID.TID 0000.0001)                 2.734980225206389E+05,      /* I = 10 */
(PID.TID 0000.0001)                 2.809856491525217E+05,      /* I = 11 */
(PID.TID 0000.0001)                 2.872580915202295E+05,      /* I = 12 */
(PID.TID 0000.0001)                 2.923567890694162E+05,      /* I = 13 */
(PID.TID 0000.0001)                 2.963063101754721E+05,      /* I = 14 */
(PID.TID 0000.0001)                 2.991205495886625E+05,      /* I = 15 */
(PID.TID 0000.0001)                 3.008068453676764E+05,      /* I = 16 */
(PID.TID 0000.0001)                 3.013686170436881E+05,      /* I = 17 */
(PID.TID 0000.0001)                 3.008068453676764E+05,      /* I = 18 */
(PID.TID 0000.0001)                 2.991205495886625E+05,      /* I = 19 */
(PID.TID 0000.0001)                 2.963063101754721E+05,      /* I = 20 */
(PID.TID 0000.0001)                 2.923567890694162E+05,      /* I = 21 */
(PID.TID 0000.0001)                 2.872580915202295E+05,      /* I = 22 */
(PID.TID 0000.0001)                 2.809856491525217E+05,      /* I = 23 */
(PID.TID 0000.0001)                 2.734980225206389E+05,      /* I = 24 */
(PID.TID 0000.0001)                 2.647274964828301E+05,      /* I = 25 */
(PID.TID 0000.0001)                 2.545652950875683E+05,      /* I = 26 */
(PID.TID 0000.0001)                 2.428369969078989E+05,      /* I = 27 */
(PID.TID 0000.0001)                 2.292584591272880E+05,      /* I = 28 */
(PID.TID 0000.0001)                 2.133486626971531E+05,      /* I = 29 */
(PID.TID 0000.0001)                 1.942331448101592E+05,      /* I = 30 */
(PID.TID 0000.0001)                 1.701080315742101E+05,      /* I = 31 */
(PID.TID 0000.0001)                 1.362652340208229E+05       /* I = 32 */
(PID.TID 0000.0001)     ;
(PID.TID 0000.0001) dyU =  /* dyU(1,:,1,:) ( units: m ) */
(PID.TID 0000.0001)                 8.015229982413632E+04,      /* J =  1 */
(PID.TID 0000.0001)                 1.333130744933864E+05,      /* J =  2 */
(PID.TID 0000.0001)                 1.691744868129062E+05,      /* J =  3 */
(PID.TID 0000.0001)                 1.937548202849060E+05,      /* J =  4 */
(PID.TID 0000.0001)                 2.130490056267208E+05,      /* J =  5 */
(PID.TID 0000.0001)                 2.290479919481738E+05,      /* J =  6 */
(PID.TID 0000.0001)                 2.426774358027003E+05,      /* J =  7 */
(PID.TID 0000.0001)                 2.544372984215561E+05,      /* J =  8 */
(PID.TID 0000.0001)                 2.646201463834826E+05,      /* J =  9 */
(PID.TID 0000.0001)                 2.734046499619031E+05,      /* J = 10 */
(PID.TID 0000.0001)                 2.809019351693761E+05,      /* J = 11 */
(PID.TID 0000.0001)                 2.871811105274442E+05,      /* J = 12 */
(PID.TID 0000.0001)                 2.922844849381675E+05,      /* J = 13 */
(PID.TID 0000.0001)                 2.962371870847826E+05,      /* J = 14 */
(PID.TID 0000.0001)                 2.990534755671296E+05,      /* J = 15 */
(PID.TID 0000.0001)                 3.007409169495504E+05,      /* J = 16 */
(PID.TID 0000.0001)                 3.013031486919771E+05,      /* J = 17 */
(PID.TID 0000.0001)                 3.007409169495504E+05,      /* J = 18 */
(PID.TID 0000.0001)                 2.990534755671296E+05,      /* J = 19 */
(PID.TID 0000.0001)                 2.962371870847826E+05,      /* J = 20 */
(PID.TID 0000.0001)                 2.922844849381675E+05,      /* J = 21 */
(PID.TID 0000.0001)                 2.871811105274442E+05,      /* J = 22 */
(PID.TID 0000.0001)                 2.809019351693761E+05,      /* J = 23 */
(PID.TID 0000.0001)                 2.734046499619031E+05,      /* J = 24 */
(PID.TID 0000.0001)                 2.646201463834826E+05,      /* J = 25 */
(PID.TID 0000.0001)                 2.544372984215561E+05,      /* J = 26 */
(PID.TID 0000.0001)                 2.426774358027003E+05,      /* J = 27 */
(PID.TID 0000.0001)                 2.290479919481738E+05,      /* J = 28 */
(PID.TID 0000.0001)                 2.130490056267208E+05,      /* J = 29 */
(PID.TID 0000.0001)                 1.937548202849060E+05,      /* J = 30 */
(PID.TID 0000.0001)                 1.691744868129062E+05,      /* J = 31 */
(PID.TID 0000.0001)                 1.333130744933864E+05       /* J = 32 */
(PID.TID 0000.0001)     ;
(PID.TID 0000.0001) rA  =  /* rA (:,1,:,1) ( units: m^2 ) */
(PID.TID 0000.0001)                 1.401900702255611E+10,      /* I =  1 */
(PID.TID 0000.0001)                 2.459906945574446E+10,      /* I =  2 */
(PID.TID 0000.0001)                 3.378518544307869E+10,      /* I =  3 */
(PID.TID 0000.0001)                 4.192037169898667E+10,      /* I =  4 */
(PID.TID 0000.0001)                 4.925938996118163E+10,      /* I =  5 */
(PID.TID 0000.0001)                 5.594154126607553E+10,      /* I =  6 */
(PID.TID 0000.0001)                 6.203683527772523E+10,      /* I =  7 */
(PID.TID 0000.0001)                 6.757541173817516E+10,      /* I =  8 */
(PID.TID 0000.0001)                 7.256353271748119E+10,      /* I =  9 */
(PID.TID 0000.0001)                 7.699293007098555E+10,      /* I = 10 */
(PID.TID 0000.0001)                 8.084683449728902E+10,      /* I = 11 */
(PID.TID 0000.0001)                 8.410423102796223E+10,      /* I = 12 */
(PID.TID 0000.0001)                 8.674306976737517E+10,      /* I = 13 */
(PID.TID 0000.0001)                 8.874277443041928E+10,      /* I = 14 */
(PID.TID 0000.0001)                 9.008620045350865E+10,      /* I = 15 */
(PID.TID 0000.0001)                 9.076111290418457E+10,      /* I = 16 */
(PID.TID 0000.0001)                 9.076111290422060E+10,      /* I = 17 */
(PID.TID 0000.0001)                 9.008620045354469E+10,      /* I = 18 */
(PID.TID 0000.0001)                 8.874277443041928E+10,      /* I = 19 */
(PID.TID 0000.0001)                 8.674306976741121E+10,      /* I = 20 */
(PID.TID 0000.0001)                 8.410423102799828E+10,      /* I = 21 */
(PID.TID 0000.0001)                 8.084683449728902E+10,      /* I = 22 */
(PID.TID 0000.0001)                 7.699293007098555E+10,      /* I = 23 */
(PID.TID 0000.0001)                 7.256353271748119E+10,      /* I = 24 */
(PID.TID 0000.0001)                 6.757541173817516E+10,      /* I = 25 */
(PID.TID 0000.0001)                 6.203683527772523E+10,      /* I = 26 */
(PID.TID 0000.0001)                 5.594154126611156E+10,      /* I = 27 */
(PID.TID 0000.0001)                 4.925938996118163E+10,      /* I = 28 */
(PID.TID 0000.0001)                 4.192037169898667E+10,      /* I = 29 */
(PID.TID 0000.0001)                 3.378518544304265E+10,      /* I = 30 */
(PID.TID 0000.0001)                 2.459906945574446E+10,      /* I = 31 */
(PID.TID 0000.0001)                 1.401900702259215E+10       /* I = 32 */
(PID.TID 0000.0001)     ;
(PID.TID 0000.0001) rA  =  /* rA (1,:,1,:) ( units: m^2 ) */
(PID.TID 0000.0001)                 1.401900702255611E+10,      /* J =  1 */
(PID.TID 0000.0001)                 2.459906945574446E+10,      /* J =  2 */
(PID.TID 0000.0001)                 3.378518544307869E+10,      /* J =  3 */
(PID.TID 0000.0001)                 4.192037169898667E+10,      /* J =  4 */
(PID.TID 0000.0001)                 4.925938996118163E+10,      /* J =  5 */
(PID.TID 0000.0001)                 5.594154126607553E+10,      /* J =  6 */
(PID.TID 0000.0001)                 6.203683527776127E+10,      /* J =  7 */
(PID.TID 0000.0001)                 6.757541173817516E+10,      /* J =  8 */
(PID.TID 0000.0001)                 7.256353271748119E+10,      /* J =  9 */
(PID.TID 0000.0001)                 7.699293007098555E+10,      /* J = 10 */
(PID.TID 0000.0001)                 8.084683449728902E+10,      /* J = 11 */
(PID.TID 0000.0001)                 8.410423102799828E+10,      /* J = 12 */
(PID.TID 0000.0001)                 8.674306976737517E+10,      /* J = 13 */
(PID.TID 0000.0001)                 8.874277443041928E+10,      /* J = 14 */
(PID.TID 0000.0001)                 9.008620045350865E+10,      /* J = 15 */
(PID.TID 0000.0001)                 9.076111290418457E+10,      /* J = 16 */
(PID.TID 0000.0001)                 9.076111290422060E+10,      /* J = 17 */
(PID.TID 0000.0001)                 9.008620045354469E+10,      /* J = 18 */
(PID.TID 0000.0001)                 8.874277443041928E+10,      /* J = 19 */
(PID.TID 0000.0001)                 8.674306976737517E+10,      /* J = 20 */
(PID.TID 0000.0001)                 8.410423102799828E+10,      /* J = 21 */
(PID.TID 0000.0001)                 8.084683449728902E+10,      /* J = 22 */
(PID.TID 0000.0001)                 7.699293007098555E+10,      /* J = 23 */
(PID.TID 0000.0001)                 7.256353271748119E+10,      /* J = 24 */
(PID.TID 0000.0001)                 6.757541173817516E+10,      /* J = 25 */
(PID.TID 0000.0001)                 6.203683527772523E+10,      /* J = 26 */
(PID.TID 0000.0001)                 5.594154126607553E+10,      /* J = 27 */
(PID.TID 0000.0001)                 4.925938996118163E+10,      /* J = 28 */
(PID.TID 0000.0001)                 4.192037169898667E+10,      /* J = 29 */
(PID.TID 0000.0001)                 3.378518544307869E+10,      /* J = 30 */
(PID.TID 0000.0001)                 2.459906945574446E+10,      /* J = 31 */
(PID.TID 0000.0001)                 1.401900702259215E+10       /* J = 32 */
(PID.TID 0000.0001)     ;
(PID.TID 0000.0001) rAw =  /* rAw(:,1,:,1) ( units: m^2 ) */
(PID.TID 0000.0001)                 1.216690346714270E+10,      /* I =  1 */
(PID.TID 0000.0001)                 1.974052138506315E+10,      /* I =  2 */
(PID.TID 0000.0001)                 2.943712825252015E+10,      /* I =  3 */
(PID.TID 0000.0001)                 3.801790263324359E+10,      /* I =  4 */
(PID.TID 0000.0001)                 4.571243814189866E+10,      /* I =  5 */
(PID.TID 0000.0001)                 5.269930713599979E+10,      /* I =  6 */
(PID.TID 0000.0001)                 5.907428494299063E+10,      /* I =  7 */
(PID.TID 0000.0001)                 6.488320895111514E+10,      /* I =  8 */
(PID.TID 0000.0001)                 7.014205907741882E+10,      /* I =  9 */
(PID.TID 0000.0001)                 7.484854821847499E+10,      /* I = 10 */
(PID.TID 0000.0001)                 7.898934631431560E+10,      /* I = 11 */
(PID.TID 0000.0001)                 8.254500894894537E+10,      /* I = 12 */
(PID.TID 0000.0001)                 8.549360686473492E+10,      /* I = 13 */
(PID.TID 0000.0001)                 8.781353403175085E+10,      /* I = 14 */
(PID.TID 0000.0001)                 8.948571540392021E+10,      /* I = 15 */
(PID.TID 0000.0001)                 9.049530583086168E+10,      /* I = 16 */
(PID.TID 0000.0001)                 9.083293515008307E+10,      /* I = 17 */
(PID.TID 0000.0001)                 9.049530583087070E+10,      /* I = 18 */
(PID.TID 0000.0001)                 8.948571540391121E+10,      /* I = 19 */
(PID.TID 0000.0001)                 8.781353403174185E+10,      /* I = 20 */
(PID.TID 0000.0001)                 8.549360686467184E+10,      /* I = 21 */
(PID.TID 0000.0001)                 8.254500894890933E+10,      /* I = 22 */
(PID.TID 0000.0001)                 7.898934631434262E+10,      /* I = 23 */
(PID.TID 0000.0001)                 7.484854821844795E+10,      /* I = 24 */
(PID.TID 0000.0001)                 7.014205907742783E+10,      /* I = 25 */
(PID.TID 0000.0001)                 6.488320895111514E+10,      /* I = 26 */
(PID.TID 0000.0001)                 5.907428494299063E+10,      /* I = 27 */
(PID.TID 0000.0001)                 5.269930713599078E+10,      /* I = 28 */
(PID.TID 0000.0001)                 4.571243814190767E+10,      /* I = 29 */
(PID.TID 0000.0001)                 3.801790263325260E+10,      /* I = 30 */
(PID.TID 0000.0001)                 2.943712825251114E+10,      /* I = 31 */
(PID.TID 0000.0001)                 1.974052138509018E+10       /* I = 32 */
(PID.TID 0000.0001)     ;
(PID.TID 0000.0001) rAw =  /* rAw(1,:,1,:) ( units: m^2 ) */
(PID.TID 0000.0001)                 1.216690346714270E+10,      /* J =  1 */
(PID.TID 0000.0001)                 2.390126200743558E+10,      /* J =  2 */
(PID.TID 0000.0001)                 3.341968103208270E+10,      /* J =  3 */
(PID.TID 0000.0001)                 4.168532893152940E+10,      /* J =  4 */
(PID.TID 0000.0001)                 4.909074590409593E+10,      /* J =  5 */
(PID.TID 0000.0001)                 5.581203765722643E+10,      /* J =  6 */
(PID.TID 0000.0001)                 6.193257577506788E+10,      /* J =  7 */
(PID.TID 0000.0001)                 6.748840226738273E+10,      /* J =  8 */
(PID.TID 0000.0001)                 7.248875782324815E+10,      /* J =  9 */
(PID.TID 0000.0001)                 7.692702995909871E+10,      /* J = 10 */
(PID.TID 0000.0001)                 8.078743937057304E+10,      /* J = 11 */
(PID.TID 0000.0001)                 8.404959656062837E+10,      /* J = 12 */
(PID.TID 0000.0001)                 8.669186205742538E+10,      /* J = 13 */
(PID.TID 0000.0001)                 8.869393350723613E+10,      /* J = 14 */
(PID.TID 0000.0001)                 9.003884657168852E+10,      /* J = 15 */
(PID.TID 0000.0001)     2 @  9.071447638299399E+10,             /* J = 16: 17 */
(PID.TID 0000.0001)                 9.003884657168852E+10,      /* J = 18 */
(PID.TID 0000.0001)                 8.869393350723613E+10,      /* J = 19 */
(PID.TID 0000.0001)                 8.669186205742538E+10,      /* J = 20 */
(PID.TID 0000.0001)                 8.404959656062837E+10,      /* J = 21 */
(PID.TID 0000.0001)                 8.078743937057304E+10,      /* J = 22 */
(PID.TID 0000.0001)                 7.692702995909871E+10,      /* J = 23 */
(PID.TID 0000.0001)                 7.248875782324815E+10,      /* J = 24 */
(PID.TID 0000.0001)                 6.748840226738273E+10,      /* J = 25 */
(PID.TID 0000.0001)                 6.193257577506788E+10,      /* J = 26 */
(PID.TID 0000.0001)                 5.581203765722643E+10,      /* J = 27 */
(PID.TID 0000.0001)                 4.909074590409593E+10,      /* J = 28 */
(PID.TID 0000.0001)                 4.168532893152940E+10,      /* J = 29 */
(PID.TID 0000.0001)                 3.341968103208270E+10,      /* J = 30 */
(PID.TID 0000.0001)                 2.390126200743558E+10,      /* J = 31 */
(PID.TID 0000.0001)                 1.216690346714270E+10       /* J = 32 */
(PID.TID 0000.0001)     ;
(PID.TID 0000.0001) rAs =  /* rAs(:,1,:,1) ( units: m^2 ) */
(PID.TID 0000.0001)                 1.216690346714270E+10,      /* I =  1 */
(PID.TID 0000.0001)                 2.390126200743558E+10,      /* I =  2 */
(PID.TID 0000.0001)                 3.341968103208270E+10,      /* I =  3 */
(PID.TID 0000.0001)                 4.168532893152940E+10,      /* I =  4 */
(PID.TID 0000.0001)                 4.909074590409593E+10,      /* I =  5 */
(PID.TID 0000.0001)                 5.581203765722643E+10,      /* I =  6 */
(PID.TID 0000.0001)                 6.193257577506788E+10,      /* I =  7 */
(PID.TID 0000.0001)                 6.748840226738273E+10,      /* I =  8 */
(PID.TID 0000.0001)                 7.248875782324815E+10,      /* I =  9 */
(PID.TID 0000.0001)                 7.692702995909871E+10,      /* I = 10 */
(PID.TID 0000.0001)                 8.078743937057304E+10,      /* I = 11 */
(PID.TID 0000.0001)                 8.404959656062837E+10,      /* I = 12 */
(PID.TID 0000.0001)                 8.669186205742538E+10,      /* I = 13 */
(PID.TID 0000.0001)                 8.869393350723613E+10,      /* I = 14 */
(PID.TID 0000.0001)                 9.003884657168852E+10,      /* I = 15 */
(PID.TID 0000.0001)     2 @  9.071447638299399E+10,             /* I = 16: 17 */
(PID.TID 0000.0001)                 9.003884657168852E+10,      /* I = 18 */
(PID.TID 0000.0001)                 8.869393350723613E+10,      /* I = 19 */
(PID.TID 0000.0001)                 8.669186205742538E+10,      /* I = 20 */
(PID.TID 0000.0001)                 8.404959656062837E+10,      /* I = 21 */
(PID.TID 0000.0001)                 8.078743937057304E+10,      /* I = 22 */
(PID.TID 0000.0001)                 7.692702995909871E+10,      /* I = 23 */
(PID.TID 0000.0001)                 7.248875782324815E+10,      /* I = 24 */
(PID.TID 0000.0001)                 6.748840226738273E+10,      /* I = 25 */
(PID.TID 0000.0001)                 6.193257577506788E+10,      /* I = 26 */
(PID.TID 0000.0001)                 5.581203765722643E+10,      /* I = 27 */
(PID.TID 0000.0001)                 4.909074590409593E+10,      /* I = 28 */
(PID.TID 0000.0001)                 4.168532893152940E+10,      /* I = 29 */
(PID.TID 0000.0001)                 3.341968103208270E+10,      /* I = 30 */
(PID.TID 0000.0001)                 2.390126200743558E+10,      /* I = 31 */
(PID.TID 0000.0001)                 1.216690346714270E+10       /* I = 32 */
(PID.TID 0000.0001)     ;
(PID.TID 0000.0001) rAs =  /* rAs(1,:,1,:) ( units: m^2 ) */
(PID.TID 0000.0001)                 1.216690346714270E+10,      /* J =  1 */
(PID.TID 0000.0001)                 1.974052138506315E+10,      /* J =  2 */
(PID.TID 0000.0001)                 2.943712825252015E+10,      /* J =  3 */
(PID.TID 0000.0001)                 3.801790263324359E+10,      /* J =  4 */
(PID.TID 0000.0001)                 4.571243814189866E+10,      /* J =  5 */
(PID.TID 0000.0001)                 5.269930713599979E+10,      /* J =  6 */
(PID.TID 0000.0001)                 5.907428494299063E+10,      /* J =  7 */
(PID.TID 0000.0001)                 6.488320895111514E+10,      /* J =  8 */
(PID.TID 0000.0001)                 7.014205907741882E+10,      /* J =  9 */
(PID.TID 0000.0001)                 7.484854821847499E+10,      /* J = 10 */
(PID.TID 0000.0001)                 7.898934631431560E+10,      /* J = 11 */
(PID.TID 0000.0001)                 8.254500894894537E+10,      /* J = 12 */
(PID.TID 0000.0001)                 8.549360686473492E+10,      /* J = 13 */
(PID.TID 0000.0001)                 8.781353403175085E+10,      /* J = 14 */
(PID.TID 0000.0001)                 8.948571540392021E+10,      /* J = 15 */
(PID.TID 0000.0001)                 9.049530583086168E+10,      /* J = 16 */
(PID.TID 0000.0001)                 9.083293515008307E+10,      /* J = 17 */
(PID.TID 0000.0001)                 9.049530583087070E+10,      /* J = 18 */
(PID.TID 0000.0001)                 8.948571540391121E+10,      /* J = 19 */
(PID.TID 0000.0001)                 8.781353403174185E+10,      /* J = 20 */
(PID.TID 0000.0001)                 8.549360686467184E+10,      /* J = 21 */
(PID.TID 0000.0001)                 8.254500894890933E+10,      /* J = 22 */
(PID.TID 0000.0001)                 7.898934631434262E+10,      /* J = 23 */
(PID.TID 0000.0001)                 7.484854821844795E+10,      /* J = 24 */
(PID.TID 0000.0001)                 7.014205907742783E+10,      /* J = 25 */
(PID.TID 0000.0001)                 6.488320895111514E+10,      /* J = 26 */
(PID.TID 0000.0001)                 5.907428494299063E+10,      /* J = 27 */
(PID.TID 0000.0001)                 5.269930713599078E+10,      /* J = 28 */
(PID.TID 0000.0001)                 4.571243814190767E+10,      /* J = 29 */
(PID.TID 0000.0001)                 3.801790263325260E+10,      /* J = 30 */
(PID.TID 0000.0001)                 2.943712825251114E+10,      /* J = 31 */
(PID.TID 0000.0001)                 1.974052138509018E+10       /* J = 32 */
(PID.TID 0000.0001)     ;
(PID.TID 0000.0001) globalArea = /* Integrated horizontal Area (m^2) */
(PID.TID 0000.0001)                 3.638867375081598E+14
(PID.TID 0000.0001)     ;
(PID.TID 0000.0001) hasWetCSCorners = /* Domain contains CS corners (True/False) */
(PID.TID 0000.0001)                   T
(PID.TID 0000.0001)     ;
(PID.TID 0000.0001) // =======================================================
(PID.TID 0000.0001) // End of Model config. summary
(PID.TID 0000.0001) // =======================================================
(PID.TID 0000.0001) 
(PID.TID 0000.0001) == Packages configuration : Check & print summary ==
(PID.TID 0000.0001) 
(PID.TID 0000.0001) GMREDI_CHECK: #define GMREDI
(PID.TID 0000.0001) GM_AdvForm =     /* if FALSE => use SkewFlux Form */
(PID.TID 0000.0001)                   F
(PID.TID 0000.0001)     ;
(PID.TID 0000.0001) GM_InMomAsStress = /* if TRUE => apply as Eddy Stress */
(PID.TID 0000.0001)                   F
(PID.TID 0000.0001)     ;
(PID.TID 0000.0001) GM_AdvSeparate = /* Calc Bolus & Euler Adv. separately */
(PID.TID 0000.0001)                   F
(PID.TID 0000.0001)     ;
(PID.TID 0000.0001) GM_ExtraDiag =   /* Tensor Extra Diag (line 1&2) non 0 */
(PID.TID 0000.0001)                   F
(PID.TID 0000.0001)     ;
(PID.TID 0000.0001) GM_isopycK =    /* Background Isopyc. Diffusivity [m^2/s] */
(PID.TID 0000.0001)                 8.000000000000000E+02
(PID.TID 0000.0001)     ;
(PID.TID 0000.0001) GM_skewflx*K =  /* Background GM_SkewFlx Diffusivity [m^2/s] */
(PID.TID 0000.0001)                 8.000000000000000E+02
(PID.TID 0000.0001)     ;
(PID.TID 0000.0001) GM_advec*K =    /* Backg. GM-Advec(=Bolus) Diffusivity [m^2/s]*/
(PID.TID 0000.0001)                 0.000000000000000E+00
(PID.TID 0000.0001)     ;
(PID.TID 0000.0001) GM_Kmin_horiz = /* Minimum Horizontal Diffusivity [m^2/s] */
(PID.TID 0000.0001)                 5.000000000000000E+01
(PID.TID 0000.0001)     ;
(PID.TID 0000.0001) GM_Visbeck_alpha = /* Visbeck alpha coeff. [-] */
(PID.TID 0000.0001)                 0.000000000000000E+00
(PID.TID 0000.0001)     ;
(PID.TID 0000.0001) GM_Small_Number =  /* epsilon used in slope calc */
(PID.TID 0000.0001)                 9.999999999999999E-21
(PID.TID 0000.0001)     ;
(PID.TID 0000.0001) GM_slopeSqCutoff = /* Slope^2 cut-off value */
(PID.TID 0000.0001)                 1.000000000000000E+48
(PID.TID 0000.0001)     ;
(PID.TID 0000.0001) GM_taper_scheme =  /* Type of Tapering/Clipping scheme */
(PID.TID 0000.0001)               'gkw91                                   '
(PID.TID 0000.0001)     ;
(PID.TID 0000.0001) GM_maxSlope =  /* Maximum Slope (Tapering/Clipping) */
(PID.TID 0000.0001)                 1.000000000000000E-02
(PID.TID 0000.0001)     ;
(PID.TID 0000.0001) GM_facTrL2dz = /* Minimum Trans.Layer Thick. (factor of dz) */
(PID.TID 0000.0001)                 1.000000000000000E+00
(PID.TID 0000.0001)     ;
(PID.TID 0000.0001) GM_facTrL2ML = /* Max.Trans.Layer Thick. (factor of MxL Depth)*/
(PID.TID 0000.0001)                 5.000000000000000E+00
(PID.TID 0000.0001)     ;
(PID.TID 0000.0001) GM_maxTransLay = /* Maximum Transition Layer Thickness [m] */
(PID.TID 0000.0001)                 5.000000000000000E+02
(PID.TID 0000.0001)     ;
(PID.TID 0000.0001) GM_UseBVP = /* if TRUE => use bvp a la Ferrari et al. (2010) */
(PID.TID 0000.0001)                   F
(PID.TID 0000.0001)     ;
(PID.TID 0000.0001) GM_BVP_ModeNumber = /* Vertical mode number for BVP wave speed */
(PID.TID 0000.0001)                       1
(PID.TID 0000.0001)     ;
(PID.TID 0000.0001) GM_BVP_cMin = /* Minimum wave speed for BVP [m/s] */
(PID.TID 0000.0001)                 1.000000000000000E-01
(PID.TID 0000.0001)     ;
(PID.TID 0000.0001) GM_useSubMeso = /* if TRUE => use Sub-Meso param. (B.Fox-Kemper) */
(PID.TID 0000.0001)                   F
(PID.TID 0000.0001)     ;
(PID.TID 0000.0001) subMeso_Ceff = /* efficiency coeff. of Mixed-Layer Eddies [-] */
(PID.TID 0000.0001)                 7.000000000000001E-02
(PID.TID 0000.0001)     ;
(PID.TID 0000.0001) subMeso_invTau = /* inverse of Sub-Meso mixing time-scale [/s] */
(PID.TID 0000.0001)                 2.000000000000000E-06
(PID.TID 0000.0001)     ;
(PID.TID 0000.0001) subMeso_LfMin = /* minimum length-scale "Lf" [m] */
(PID.TID 0000.0001)                 1.000000000000000E+03
(PID.TID 0000.0001)     ;
(PID.TID 0000.0001) subMeso_Lmax = /* maximum grid-scale length [m] */
(PID.TID 0000.0001)                 1.100000000000000E+05
(PID.TID 0000.0001)     ;
(PID.TID 0000.0001) GAD_CHECK: #define ALLOW_GENERIC_ADVDIFF
(PID.TID 0000.0001) // =======================================================
(PID.TID 0000.0001) // Check Model config. (CONFIG_CHECK):
(PID.TID 0000.0001) // CONFIG_CHECK : Normal End
(PID.TID 0000.0001) // =======================================================
(PID.TID 0000.0001) 
(PID.TID 0000.0001)  MDS_READ_META: opening file: pickup.0000072000.meta
(PID.TID 0000.0001)  nRecords = 123 ; filePrec =  64 ; fileIter =     72000
(PID.TID 0000.0001)     nDims =   2 , dims:
(PID.TID 0000.0001)    1: 192   1 192
(PID.TID 0000.0001)    2:  32   1  32
(PID.TID 0000.0001)     nFlds =  11 , nFl3D =   8 , fields:
(PID.TID 0000.0001)  >Uvel    < >GuNm1   < >Vvel    < >GvNm1   < >Theta   < >GtNm1   < >Salt    < >GsNm1   < >EtaN    < >dEtaHdt < >EtaH    <
(PID.TID 0000.0001) missingVal=  1.00000000000000E+00 ; nTimRec =   0 , timeList:
(PID.TID 0000.0001) READ_MFLDS_3D_RL: read field: "Uvel    ", #   1 in fldList, rec=   1
(PID.TID 0000.0001)  MDS_READ_FIELD: opening global file: pickup.0000072000
(PID.TID 0000.0001) READ_MFLDS_3D_RL: read field: "Vvel    ", #   3 in fldList, rec=   3
(PID.TID 0000.0001)  MDS_READ_FIELD: opening global file: pickup.0000072000
(PID.TID 0000.0001) READ_MFLDS_3D_RL: read field: "Theta   ", #   5 in fldList, rec=   5
(PID.TID 0000.0001)  MDS_READ_FIELD: opening global file: pickup.0000072000
(PID.TID 0000.0001) READ_MFLDS_3D_RL: read field: "Salt    ", #   7 in fldList, rec=   7
(PID.TID 0000.0001)  MDS_READ_FIELD: opening global file: pickup.0000072000
(PID.TID 0000.0001) READ_MFLDS_3D_RL: read field: "GuNm1   ", #   2 in fldList, rec=   2
(PID.TID 0000.0001)  MDS_READ_FIELD: opening global file: pickup.0000072000
(PID.TID 0000.0001) READ_MFLDS_3D_RL: read field: "GvNm1   ", #   4 in fldList, rec=   4
(PID.TID 0000.0001)  MDS_READ_FIELD: opening global file: pickup.0000072000
(PID.TID 0000.0001) READ_MFLDS_3D_RL: read field: "GtNm1   ", #   6 in fldList, rec=   6
(PID.TID 0000.0001)  MDS_READ_FIELD: opening global file: pickup.0000072000
(PID.TID 0000.0001) READ_MFLDS_3D_RL: read field: "GsNm1   ", #   8 in fldList, rec=   8
(PID.TID 0000.0001)  MDS_READ_FIELD: opening global file: pickup.0000072000
(PID.TID 0000.0001) READ_MFLDS_3D_RL: read field: "EtaN    ", #   9 in fldList, rec= 121
(PID.TID 0000.0001)  MDS_READ_FIELD: opening global file: pickup.0000072000
(PID.TID 0000.0001) READ_MFLDS_3D_RL: read field: "dEtaHdt ", #  10 in fldList, rec= 122
(PID.TID 0000.0001)  MDS_READ_FIELD: opening global file: pickup.0000072000
(PID.TID 0000.0001) READ_MFLDS_3D_RL: read field: "EtaH    ", #  11 in fldList, rec= 123
(PID.TID 0000.0001)  MDS_READ_FIELD: opening global file: pickup.0000072000
(PID.TID 0000.0001) READ_MFLDS_CHECK: - normal end ; reset MFLDS file-name: pickup.0000072000
(PID.TID 0000.0001)  write diagnostics summary to file ioUnit:     36
Iter.Nb:     72000 ; Time(s):  6.4800000000000E+07
------------------------------------------------------------------------
2D/3D diagnostics: Number of lists:    10
------------------------------------------------------------------------
listId=    1 ; file name: oceTAUX
 nFlds, nActive,       freq     &     phase        , nLev               
    1  |    1  |     -3600.000000      1800.000000 |   1
 levels:   1
 diag# | name   |   ipt  |  iMate | kLev|   count |   mate.C|           
    81 |oceTAUX |      1 |      2 |   1 |       0 |       0 |
------------------------------------------------------------------------
listId=    2 ; file name: oceTAUY
 nFlds, nActive,       freq     &     phase        , nLev               
    1  |    1  |     -3600.000000      1800.000000 |   1
 levels:   1
 diag# | name   |   ipt  |  iMate | kLev|   count |   mate.C|           
    82 |oceTAUY |      2 |      1 |   1 |       0 |       0 |
------------------------------------------------------------------------
listId=    3 ; file name: oceFWflx
 nFlds, nActive,       freq     &     phase        , nLev               
    1  |    1  |     -3600.000000      1800.000000 |   1
 levels:   1
 diag# | name   |   ipt  |  iMate | kLev|   count |   mate.C|           
    85 |oceFWflx|      3 |      0 |   1 |       0 |
------------------------------------------------------------------------
listId=    4 ; file name: oceSflux
 nFlds, nActive,       freq     &     phase        , nLev               
    1  |    1  |     -3600.000000      1800.000000 |   1
 levels:   1
 diag# | name   |   ipt  |  iMate | kLev|   count |   mate.C|           
    86 |oceSflux|      4 |      0 |   1 |       0 |
------------------------------------------------------------------------
listId=    5 ; file name: oceQnet
 nFlds, nActive,       freq     &     phase        , nLev               
    1  |    1  |     -3600.000000      1800.000000 |   1
 levels:   1
 diag# | name   |   ipt  |  iMate | kLev|   count |   mate.C|           
    87 |oceQnet |      5 |      0 |   1 |       0 |
------------------------------------------------------------------------
listId=    6 ; file name: oceQsw
 nFlds, nActive,       freq     &     phase        , nLev               
    1  |    1  |     -3600.000000      1800.000000 |   1
 levels:   1
 diag# | name   |   ipt  |  iMate | kLev|   count |   mate.C|           
    88 |oceQsw  |      6 |      0 |   1 |       0 |
------------------------------------------------------------------------
listId=    7 ; file name: SSS
 nFlds, nActive,       freq     &     phase        , nLev               
    1  |    1  |     -3600.000000      1800.000000 |   1
 levels:   1
 diag# | name   |   ipt  |  iMate | kLev|   count |   mate.C|           
    27 |SALT    |      7 |      0 |  15 |       0 |
------------------------------------------------------------------------
listId=    8 ; file name: SST
 nFlds, nActive,       freq     &     phase        , nLev               
    1  |    1  |     -3600.000000      1800.000000 |   1
 levels:   1
 diag# | name   |   ipt  |  iMate | kLev|   count |   mate.C|           
    26 |THETA   |     22 |      0 |  15 |       0 |
------------------------------------------------------------------------
listId=    9 ; file name: UVEL1
 nFlds, nActive,       freq     &     phase        , nLev               
    1  |    1  |     -3600.000000      1800.000000 |   1
 levels:   1
 diag# | name   |   ipt  |  iMate | kLev|   count |   mate.C|           
    45 |UVELMASS|     37 |     52 |  15 |       0 |       0 |
------------------------------------------------------------------------
listId=   10 ; file name: VVEL1
 nFlds, nActive,       freq     &     phase        , nLev               
    1  |    1  |     -3600.000000      1800.000000 |   1
 levels:   1
 diag# | name   |   ipt  |  iMate | kLev|   count |   mate.C|           
    46 |VVELMASS|     52 |     37 |  15 |       0 |       0 |
------------------------------------------------------------------------
Global & Regional Statistics diagnostics: Number of lists:     0
------------------------------------------------------------------------
(PID.TID 0000.0001) // =======================================================
(PID.TID 0000.0001) // Model current state
(PID.TID 0000.0001) // =======================================================
(PID.TID 0000.0001) 
(PID.TID 0000.0001) // =======================================================
(PID.TID 0000.0001) // Begin MONITOR dynamic field statistics
(PID.TID 0000.0001) // =======================================================
(PID.TID 0000.0001) %MON time_tsnumber                =                 72000
(PID.TID 0000.0001) %MON time_secondsf                =   6.4800000000000E+07
(PID.TID 0000.0001) %MON dynstat_eta_max              =   9.2249308874653E-01
(PID.TID 0000.0001) %MON dynstat_eta_min              =  -1.6181619580030E+00
(PID.TID 0000.0001) %MON dynstat_eta_mean             =   1.4427566214562E-14
(PID.TID 0000.0001) %MON dynstat_eta_sd               =   5.9907976973986E-01
(PID.TID 0000.0001) %MON dynstat_eta_del2             =   7.8581345364806E-04
(PID.TID 0000.0001) %MON dynstat_uvel_max             =   1.8639442347386E-01
(PID.TID 0000.0001) %MON dynstat_uvel_min             =  -2.8803502100767E-01
(PID.TID 0000.0001) %MON dynstat_uvel_mean            =  -4.8914430325890E-04
(PID.TID 0000.0001) %MON dynstat_uvel_sd              =   1.2021379389426E-02
(PID.TID 0000.0001) %MON dynstat_uvel_del2            =   5.1214215649781E-05
(PID.TID 0000.0001) %MON dynstat_vvel_max             =   1.7346247050018E-01
(PID.TID 0000.0001) %MON dynstat_vvel_min             =  -2.2519444280963E-01
(PID.TID 0000.0001) %MON dynstat_vvel_mean            =  -4.0398186384005E-04
(PID.TID 0000.0001) %MON dynstat_vvel_sd              =   1.2638380334010E-02
(PID.TID 0000.0001) %MON dynstat_vvel_del2            =   5.0639130168720E-05
(PID.TID 0000.0001) %MON dynstat_wvel_max             =   1.0315548206230E-04
(PID.TID 0000.0001) %MON dynstat_wvel_min             =  -2.0412092606640E-04
(PID.TID 0000.0001) %MON dynstat_wvel_mean            =   1.3594270097552E-10
(PID.TID 0000.0001) %MON dynstat_wvel_sd              =   3.8382293649569E-06
(PID.TID 0000.0001) %MON dynstat_wvel_del2            =   2.6457320450043E-08
(PID.TID 0000.0001) %MON dynstat_theta_max            =   3.0925958904704E+01
(PID.TID 0000.0001) %MON dynstat_theta_min            =  -3.0175293673864E+00
(PID.TID 0000.0001) %MON dynstat_theta_mean           =   3.9091304559860E+00
(PID.TID 0000.0001) %MON dynstat_theta_sd             =   4.5711443147581E+00
(PID.TID 0000.0001) %MON dynstat_theta_del2           =   2.6590891135791E-03
(PID.TID 0000.0001) %MON dynstat_salt_max             =   4.1386265990462E+01
(PID.TID 0000.0001) %MON dynstat_salt_min             =   1.8383410676806E+01
(PID.TID 0000.0001) %MON dynstat_salt_mean            =   3.4772068623474E+01
(PID.TID 0000.0001) %MON dynstat_salt_sd              =   5.3145226117181E-01
(PID.TID 0000.0001) %MON dynstat_salt_del2            =   8.0693627005698E-04
(PID.TID 0000.0001) %MON dynstat_sst_max              =   3.0925958904704E+01
(PID.TID 0000.0001) %MON dynstat_sst_min              =  -1.9648692042086E+00
(PID.TID 0000.0001) %MON dynstat_sst_mean             =   1.8113137824165E+01
(PID.TID 0000.0001) %MON dynstat_sst_sd               =   9.7982972159706E+00
(PID.TID 0000.0001) %MON dynstat_sst_del2             =   1.5454157826167E-02
(PID.TID 0000.0001) %MON dynstat_sss_max              =   4.1386265990462E+01
(PID.TID 0000.0001) %MON dynstat_sss_min              =   1.8383410676806E+01
(PID.TID 0000.0001) %MON dynstat_sss_mean             =   3.4632078412677E+01
(PID.TID 0000.0001) %MON dynstat_sss_sd               =   1.4684189495322E+00
(PID.TID 0000.0001) %MON dynstat_sss_del2             =   8.0812048509615E-03
(PID.TID 0000.0001) %MON forcing_qnet_max             =   0.0000000000000E+00
(PID.TID 0000.0001) %MON forcing_qnet_min             =   0.0000000000000E+00
(PID.TID 0000.0001) %MON forcing_qnet_mean            =   0.0000000000000E+00
(PID.TID 0000.0001) %MON forcing_qnet_sd              =   0.0000000000000E+00
(PID.TID 0000.0001) %MON forcing_qnet_del2            =   0.0000000000000E+00
(PID.TID 0000.0001) %MON forcing_qsw_max              =   0.0000000000000E+00
(PID.TID 0000.0001) %MON forcing_qsw_min              =   0.0000000000000E+00
(PID.TID 0000.0001) %MON forcing_qsw_mean             =   0.0000000000000E+00
(PID.TID 0000.0001) %MON forcing_qsw_sd               =   0.0000000000000E+00
(PID.TID 0000.0001) %MON forcing_qsw_del2             =   0.0000000000000E+00
(PID.TID 0000.0001) %MON forcing_empmr_max            =   0.0000000000000E+00
(PID.TID 0000.0001) %MON forcing_empmr_min            =   0.0000000000000E+00
(PID.TID 0000.0001) %MON forcing_empmr_mean           =   0.0000000000000E+00
(PID.TID 0000.0001) %MON forcing_empmr_sd             =   0.0000000000000E+00
(PID.TID 0000.0001) %MON forcing_empmr_del2           =   0.0000000000000E+00
(PID.TID 0000.0001) %MON forcing_fu_max               =   0.0000000000000E+00
(PID.TID 0000.0001) %MON forcing_fu_min               =   0.0000000000000E+00
(PID.TID 0000.0001) %MON forcing_fu_mean              =   0.0000000000000E+00
(PID.TID 0000.0001) %MON forcing_fu_sd                =   0.0000000000000E+00
(PID.TID 0000.0001) %MON forcing_fu_del2              =   0.0000000000000E+00
(PID.TID 0000.0001) %MON forcing_fv_max               =   0.0000000000000E+00
(PID.TID 0000.0001) %MON forcing_fv_min               =   0.0000000000000E+00
(PID.TID 0000.0001) %MON forcing_fv_mean              =   0.0000000000000E+00
(PID.TID 0000.0001) %MON forcing_fv_sd                =   0.0000000000000E+00
(PID.TID 0000.0001) %MON forcing_fv_del2              =   0.0000000000000E+00
(PID.TID 0000.0001) %MON trAdv_CFL_u_max              =   0.0000000000000E+00
(PID.TID 0000.0001) %MON trAdv_CFL_v_max              =   0.0000000000000E+00
(PID.TID 0000.0001) %MON trAdv_CFL_w_max              =   0.0000000000000E+00
(PID.TID 0000.0001) %MON advcfl_uvel_max              =   8.5096037087284E-04
(PID.TID 0000.0001) %MON advcfl_vvel_max              =   7.8760257411030E-04
(PID.TID 0000.0001) %MON advcfl_wvel_max              =   6.9324088098023E-04
(PID.TID 0000.0001) %MON advcfl_W_hf_max              =   7.6573916672744E-04
(PID.TID 0000.0001) %MON pe_b_mean                    =   4.7811655460464E-04
(PID.TID 0000.0001) %MON ke_max                       =   4.0700637549387E-02
(PID.TID 0000.0001) %MON ke_mean                      =   1.4067882101803E-04
(PID.TID 0000.0001) %MON ke_vol                       =   1.3398024453628E+18
(PID.TID 0000.0001) %MON vort_r_min                   =  -1.1843904755479E-06
(PID.TID 0000.0001) %MON vort_r_max                   =   1.2148454936551E-06
(PID.TID 0000.0001) %MON vort_a_mean                  =  -2.0549865324846E-05
(PID.TID 0000.0001) %MON vort_a_sd                    =   7.5259517155846E-05
(PID.TID 0000.0001) %MON vort_p_mean                  =  -2.4783469227166E-05
(PID.TID 0000.0001) %MON vort_p_sd                    =   1.2812074522595E-04
(PID.TID 0000.0001) %MON surfExpan_theta_mean         =  -3.8378290301302E-07
(PID.TID 0000.0001) %MON surfExpan_salt_mean          =  -1.6258537219558E-07
(PID.TID 0000.0001) // =======================================================
(PID.TID 0000.0001) // End MONITOR dynamic field statistics
(PID.TID 0000.0001) // =======================================================
(PID.TID 0000.0001) SOLVE_FOR_PRESSURE: putPmEinXvector =    F
(PID.TID 0000.0001) SOLVE_FOR_PRESSURE: zeroPsNH=    F , zeroMeanPnh=    F
(PID.TID 0000.0001) SOLVE_FOR_PRESSURE: oldFreeSurfTerm =    F
 cg2d: Sum(rhs),rhsMax =  -4.15127025870139E+00  1.71157429113535E+02
(PID.TID 0000.0001)      cg2d_init_res =   1.82627585459270E+00
(PID.TID 0000.0001)      cg2d_iters(min,last) =      -1       9
(PID.TID 0000.0001)      cg2d_last_res =   5.39594532861137E-08
(PID.TID 0000.0001) // =======================================================
(PID.TID 0000.0001) // Begin MONITOR dynamic field statistics
(PID.TID 0000.0001) // =======================================================
(PID.TID 0000.0001) %MON time_tsnumber                =                 72001
(PID.TID 0000.0001) %MON time_secondsf                =   6.4800900000000E+07
(PID.TID 0000.0001) %MON dynstat_eta_max              =   8.2753244725734E+00
(PID.TID 0000.0001) %MON dynstat_eta_min              =  -1.7013070780344E+00
(PID.TID 0000.0001) %MON dynstat_eta_mean             =   8.2561568630878E-03
(PID.TID 0000.0001) %MON dynstat_eta_sd               =   6.4410930793654E-01
(PID.TID 0000.0001) %MON dynstat_eta_del2             =   7.8581004933858E-03
(PID.TID 0000.0001) %MON dynstat_uvel_max             =   3.2763422327651E-01
(PID.TID 0000.0001) %MON dynstat_uvel_min             =  -2.8705232108512E-01
(PID.TID 0000.0001) %MON dynstat_uvel_mean            =  -4.7496571632389E-04
(PID.TID 0000.0001) %MON dynstat_uvel_sd              =   1.2102415433059E-02
(PID.TID 0000.0001) %MON dynstat_uvel_del2            =   5.7501560593301E-05
(PID.TID 0000.0001) %MON dynstat_vvel_max             =   2.5891755565173E-01
(PID.TID 0000.0001) %MON dynstat_vvel_min             =  -2.6145120237153E-01
(PID.TID 0000.0001) %MON dynstat_vvel_mean            =  -3.9526146074509E-04
(PID.TID 0000.0001) %MON dynstat_vvel_sd              =   1.2717102197353E-02
(PID.TID 0000.0001) %MON dynstat_vvel_del2            =   6.3785277075165E-05
(PID.TID 0000.0001) %MON dynstat_wvel_max             =   1.2092768858020E-03
(PID.TID 0000.0001) %MON dynstat_wvel_min             =  -9.5244762402226E-03
(PID.TID 0000.0001) %MON dynstat_wvel_mean            =  -1.9689963798019E-07
(PID.TID 0000.0001) %MON dynstat_wvel_sd              =   3.1998761947850E-05
(PID.TID 0000.0001) %MON dynstat_wvel_del2            =   7.8903316713477E-07
(PID.TID 0000.0001) %MON dynstat_theta_max            =   3.0925747382661E+01
(PID.TID 0000.0001) %MON dynstat_theta_min            =  -3.0174062026803E+00
(PID.TID 0000.0001) %MON dynstat_theta_mean           =   3.9089288321682E+00
(PID.TID 0000.0001) %MON dynstat_theta_sd             =   4.5705892598673E+00
(PID.TID 0000.0001) %MON dynstat_theta_del2           =   2.6547426982563E-03
(PID.TID 0000.0001) %MON dynstat_salt_max             =   4.1379252577003E+01
(PID.TID 0000.0001) %MON dynstat_salt_min             =   1.8518388103661E+01
(PID.TID 0000.0001) %MON dynstat_salt_mean            =   3.4772204715254E+01
(PID.TID 0000.0001) %MON dynstat_salt_sd              =   5.3093678591731E-01
(PID.TID 0000.0001) %MON dynstat_salt_del2            =   8.0227879092891E-04
(PID.TID 0000.0001) %MON dynstat_sst_max              =   3.0925747382661E+01
(PID.TID 0000.0001) %MON dynstat_sst_min              =  -1.8999508964328E+00
(PID.TID 0000.0001) %MON dynstat_sst_mean             =   1.8098845146471E+01
(PID.TID 0000.0001) %MON dynstat_sst_sd               =   9.8006375738263E+00
(PID.TID 0000.0001) %MON dynstat_sst_del2             =   1.5358901635230E-02
(PID.TID 0000.0001) %MON dynstat_sss_max              =   4.1379252577003E+01
(PID.TID 0000.0001) %MON dynstat_sss_min              =   1.8738343205356E+01
(PID.TID 0000.0001) %MON dynstat_sss_mean             =   3.4642173195003E+01
(PID.TID 0000.0001) %MON dynstat_sss_sd               =   1.4555462189557E+00
(PID.TID 0000.0001) %MON dynstat_sss_del2             =   8.0099761637906E-03
(PID.TID 0000.0001) %MON forcing_qnet_max             =   3.7691018750000E+05
(PID.TID 0000.0001) %MON forcing_qnet_min             =  -8.4035984375000E+04
(PID.TID 0000.0001) %MON forcing_qnet_mean            =   3.5056245734933E+03
(PID.TID 0000.0001) %MON forcing_qnet_sd              =   1.3698842027439E+04
(PID.TID 0000.0001) %MON forcing_qnet_del2            =   3.4117767958758E+02
(PID.TID 0000.0001) %MON forcing_qsw_max              =   0.0000000000000E+00
(PID.TID 0000.0001) %MON forcing_qsw_min              =   0.0000000000000E+00
(PID.TID 0000.0001) %MON forcing_qsw_mean             =   0.0000000000000E+00
(PID.TID 0000.0001) %MON forcing_qsw_sd               =   0.0000000000000E+00
(PID.TID 0000.0001) %MON forcing_qsw_del2             =   0.0000000000000E+00
(PID.TID 0000.0001) %MON forcing_empmr_max            =   1.2516015768051E+00
(PID.TID 0000.0001) %MON forcing_empmr_min            =  -9.8578329086304E+00
(PID.TID 0000.0001) %MON forcing_empmr_mean           =  -9.4945803925343E-03
(PID.TID 0000.0001) %MON forcing_empmr_sd             =   2.8328330034840E-01
(PID.TID 0000.0001) %MON forcing_empmr_del2           =   9.3820529680497E-03
(PID.TID 0000.0001) %MON forcing_fu_max               =   5.0392210567106E-01
(PID.TID 0000.0001) %MON forcing_fu_min               =  -4.7699374024704E-01
(PID.TID 0000.0001) %MON forcing_fu_mean              =  -5.5711439019974E-03
(PID.TID 0000.0001) %MON forcing_fu_sd                =   7.3476101190493E-02
(PID.TID 0000.0001) %MON forcing_fu_del2              =   7.3868189853894E-04
(PID.TID 0000.0001) %MON forcing_fv_max               =   2.7800065561017E-01
(PID.TID 0000.0001) %MON forcing_fv_min               =  -5.2741223474423E-01
(PID.TID 0000.0001) %MON forcing_fv_mean              =  -1.4702747648715E-02
(PID.TID 0000.0001) %MON forcing_fv_sd                =   6.9016370785155E-02
(PID.TID 0000.0001) %MON forcing_fv_del2              =   6.1298204653496E-04
(PID.TID 0000.0001) %MON trAdv_CFL_u_max              =   1.1280671898474E-03
(PID.TID 0000.0001) %MON trAdv_CFL_v_max              =   1.5079035955060E-03
(PID.TID 0000.0001) %MON trAdv_CFL_w_max              =   1.0966523546398E-01
(PID.TID 0000.0001) %MON advcfl_uvel_max              =   1.1495867962357E-03
(PID.TID 0000.0001) %MON advcfl_vvel_max              =   8.4494242951171E-04
(PID.TID 0000.0001) %MON advcfl_wvel_max              =   3.4288114464801E-01
(PID.TID 0000.0001) %MON advcfl_W_hf_max              =   1.1442962541410E-01
(PID.TID 0000.0001) %MON pe_b_mean                    =   5.5278337318329E-04
(PID.TID 0000.0001) %MON ke_max                       =   5.0286487222047E-02
(PID.TID 0000.0001) %MON ke_mean                      =   1.4249306667738E-04
(PID.TID 0000.0001) %MON ke_vol                       =   1.3398024453628E+18
(PID.TID 0000.0001) %MON vort_r_min                   =  -1.1879226308262E-06
(PID.TID 0000.0001) %MON vort_r_max                   =   1.2254810932811E-06
(PID.TID 0000.0001) %MON vort_a_mean                  =  -2.0549865324846E-05
(PID.TID 0000.0001) %MON vort_a_sd                    =   7.5259518451153E-05
(PID.TID 0000.0001) %MON vort_p_mean                  =  -2.4783469220072E-05
(PID.TID 0000.0001) %MON vort_p_sd                    =   1.2812073553189E-04
(PID.TID 0000.0001) %MON surfExpan_theta_mean         =  -3.9147290854642E-07
(PID.TID 0000.0001) %MON surfExpan_salt_mean          =   9.7057884842088E-07
(PID.TID 0000.0001) // =======================================================
(PID.TID 0000.0001) // End MONITOR dynamic field statistics
(PID.TID 0000.0001) // =======================================================
 cg2d: Sum(rhs),rhsMax =  -4.48997745264879E+00  1.77239126918984E+02
(PID.TID 0000.0001)      cg2d_init_res =   1.49769167159901E-01
(PID.TID 0000.0001)      cg2d_iters(min,last) =      -1       9
(PID.TID 0000.0001)      cg2d_last_res =   4.10180707028896E-08
(PID.TID 0000.0001) // =======================================================
(PID.TID 0000.0001) // Begin MONITOR dynamic field statistics
(PID.TID 0000.0001) // =======================================================
(PID.TID 0000.0001) %MON time_tsnumber                =                 72002
(PID.TID 0000.0001) %MON time_secondsf                =   6.4801800000000E+07
(PID.TID 0000.0001) %MON dynstat_eta_max              =   8.2923996805937E+00
(PID.TID 0000.0001) %MON dynstat_eta_min              =  -1.6611589171661E+00
(PID.TID 0000.0001) %MON dynstat_eta_mean             =   9.2470868236515E-03
(PID.TID 0000.0001) %MON dynstat_eta_sd               =   6.4477103972334E-01
(PID.TID 0000.0001) %MON dynstat_eta_del2             =   7.7938040684559E-03
(PID.TID 0000.0001) %MON dynstat_uvel_max             =   5.7139183817592E-01
(PID.TID 0000.0001) %MON dynstat_uvel_min             =  -3.7374632926465E-01
(PID.TID 0000.0001) %MON dynstat_uvel_mean            =  -4.5491699068643E-04
(PID.TID 0000.0001) %MON dynstat_uvel_sd              =   1.2337796813683E-02
(PID.TID 0000.0001) %MON dynstat_uvel_del2            =   7.2187929522845E-05
(PID.TID 0000.0001) %MON dynstat_vvel_max             =   4.9621727826717E-01
(PID.TID 0000.0001) %MON dynstat_vvel_min             =  -4.9670063100035E-01
(PID.TID 0000.0001) %MON dynstat_vvel_mean            =  -3.8714262025937E-04
(PID.TID 0000.0001) %MON dynstat_vvel_sd              =   1.2950763214857E-02
(PID.TID 0000.0001) %MON dynstat_vvel_del2            =   9.1295329619734E-05
(PID.TID 0000.0001) %MON dynstat_wvel_max             =   1.0346872174462E-04
(PID.TID 0000.0001) %MON dynstat_wvel_min             =  -9.6356765083645E-04
(PID.TID 0000.0001) %MON dynstat_wvel_mean            =  -1.7082329024441E-07
(PID.TID 0000.0001) %MON dynstat_wvel_sd              =   8.6985866734327E-06
(PID.TID 0000.0001) %MON dynstat_wvel_del2            =   1.0410048569835E-07
(PID.TID 0000.0001) %MON dynstat_theta_max            =   3.0925531634208E+01
(PID.TID 0000.0001) %MON dynstat_theta_min            =  -3.0169870925228E+00
(PID.TID 0000.0001) %MON dynstat_theta_mean           =   3.9089324597152E+00
(PID.TID 0000.0001) %MON dynstat_theta_sd             =   4.5706029117329E+00
(PID.TID 0000.0001) %MON dynstat_theta_del2           =   2.6546999381007E-03
(PID.TID 0000.0001) %MON dynstat_salt_max             =   4.1377063719966E+01
(PID.TID 0000.0001) %MON dynstat_salt_min             =   1.8518393949489E+01
(PID.TID 0000.0001) %MON dynstat_salt_mean            =   3.4772194136320E+01
(PID.TID 0000.0001) %MON dynstat_salt_sd              =   5.3093685750629E-01
(PID.TID 0000.0001) %MON dynstat_salt_del2            =   8.0273188989910E-04
(PID.TID 0000.0001) %MON dynstat_sst_max              =   3.0925531634208E+01
(PID.TID 0000.0001) %MON dynstat_sst_min              =  -1.8999086924346E+00
(PID.TID 0000.0001) %MON dynstat_sst_mean             =   1.8099119134411E+01
(PID.TID 0000.0001) %MON dynstat_sst_sd               =   9.8007909845676E+00
(PID.TID 0000.0001) %MON dynstat_sst_del2             =   1.5337705845643E-02
(PID.TID 0000.0001) %MON dynstat_sss_max              =   4.1377063719966E+01
(PID.TID 0000.0001) %MON dynstat_sss_min              =   1.8752704687268E+01
(PID.TID 0000.0001) %MON dynstat_sss_mean             =   3.4641724216884E+01
(PID.TID 0000.0001) %MON dynstat_sss_sd               =   1.4568694280439E+00
(PID.TID 0000.0001) %MON dynstat_sss_del2             =   8.0134140337915E-03
(PID.TID 0000.0001) %MON forcing_qnet_max             =   5.7765531250000E+04
(PID.TID 0000.0001) %MON forcing_qnet_min             =  -2.5628341796875E+04
(PID.TID 0000.0001) %MON forcing_qnet_mean            =  -1.1874284300165E+02
(PID.TID 0000.0001) %MON forcing_qnet_sd              =   1.9839500433907E+03
(PID.TID 0000.0001) %MON forcing_qnet_del2            =   5.8670209326883E+01
(PID.TID 0000.0001) %MON forcing_qsw_max              =   0.0000000000000E+00
(PID.TID 0000.0001) %MON forcing_qsw_min              =   0.0000000000000E+00
(PID.TID 0000.0001) %MON forcing_qsw_mean             =   0.0000000000000E+00
(PID.TID 0000.0001) %MON forcing_qsw_sd               =   0.0000000000000E+00
(PID.TID 0000.0001) %MON forcing_qsw_del2             =   0.0000000000000E+00
(PID.TID 0000.0001) %MON forcing_empmr_max            =   7.8170306980610E-02
(PID.TID 0000.0001) %MON forcing_empmr_min            =  -9.9729251861572E-01
(PID.TID 0000.0001) %MON forcing_empmr_mean           =  -1.1395694546484E-03
(PID.TID 0000.0001) %MON forcing_empmr_sd             =   2.3065872197352E-02
(PID.TID 0000.0001) %MON forcing_empmr_del2           =   8.6787628547999E-04
(PID.TID 0000.0001) %MON forcing_fu_max               =   5.2671822113158E-01
(PID.TID 0000.0001) %MON forcing_fu_min               =  -4.7087057637254E-01
(PID.TID 0000.0001) %MON forcing_fu_mean              =  -5.7914106518924E-03
(PID.TID 0000.0001) %MON forcing_fu_sd                =   7.5189147875414E-02
(PID.TID 0000.0001) %MON forcing_fu_del2              =   7.6052809204477E-04
(PID.TID 0000.0001) %MON forcing_fv_max               =   3.1840050451424E-01
(PID.TID 0000.0001) %MON forcing_fv_min               =  -5.1714301873263E-01
(PID.TID 0000.0001) %MON forcing_fv_mean              =  -1.4433025559806E-02
(PID.TID 0000.0001) %MON forcing_fv_sd                =   7.1694943894950E-02
(PID.TID 0000.0001) %MON forcing_fv_del2              =   6.3018629179398E-04
(PID.TID 0000.0001) %MON trAdv_CFL_u_max              =   1.8246430513385E-03
(PID.TID 0000.0001) %MON trAdv_CFL_v_max              =   2.8636500860322E-03
(PID.TID 0000.0001) %MON trAdv_CFL_w_max              =   1.5827203450263E-02
(PID.TID 0000.0001) %MON advcfl_uvel_max              =   1.9313393543073E-03
(PID.TID 0000.0001) %MON advcfl_vvel_max              =   1.6193379842838E-03
(PID.TID 0000.0001) %MON advcfl_wvel_max              =   3.4688435430112E-02
(PID.TID 0000.0001) %MON advcfl_W_hf_max              =   1.5827203450263E-02
(PID.TID 0000.0001) %MON pe_b_mean                    =   5.5394144833108E-04
(PID.TID 0000.0001) %MON ke_max                       =   1.5978039628495E-01
(PID.TID 0000.0001) %MON ke_mean                      =   1.4790606340983E-04
(PID.TID 0000.0001) %MON ke_vol                       =   1.3398054496687E+18
(PID.TID 0000.0001) %MON vort_r_min                   =  -1.6394452055432E-06
(PID.TID 0000.0001) %MON vort_r_max                   =   1.7132188849999E-06
(PID.TID 0000.0001) %MON vort_a_mean                  =  -2.0549865324846E-05
(PID.TID 0000.0001) %MON vort_a_sd                    =   7.5259520772367E-05
(PID.TID 0000.0001) %MON vort_p_mean                  =  -2.4783431409843E-05
(PID.TID 0000.0001) %MON vort_p_sd                    =   1.2811974235842E-04
(PID.TID 0000.0001) %MON surfExpan_theta_mean         =  -6.1867317964416E-06
(PID.TID 0000.0001) %MON surfExpan_salt_mean          =   6.5608808070355E-07
(PID.TID 0000.0001) // =======================================================
(PID.TID 0000.0001) // End MONITOR dynamic field statistics
(PID.TID 0000.0001) // =======================================================
 cg2d: Sum(rhs),rhsMax =  -4.95216223265933E+00  1.70734557296574E+02
(PID.TID 0000.0001)      cg2d_init_res =   1.95796505440197E-01
(PID.TID 0000.0001)      cg2d_iters(min,last) =      -1       9
(PID.TID 0000.0001)      cg2d_last_res =   4.60776459622214E-08
(PID.TID 0000.0001) // =======================================================
(PID.TID 0000.0001) // Begin MONITOR dynamic field statistics
(PID.TID 0000.0001) // =======================================================
(PID.TID 0000.0001) %MON time_tsnumber                =                 72003
(PID.TID 0000.0001) %MON time_secondsf                =   6.4802700000000E+07
(PID.TID 0000.0001) %MON dynstat_eta_max              =   7.9894059582481E+00
(PID.TID 0000.0001) %MON dynstat_eta_min              =  -1.6205261645072E+00
(PID.TID 0000.0001) %MON dynstat_eta_mean             =   9.8246586421933E-03
(PID.TID 0000.0001) %MON dynstat_eta_sd               =   6.4036448393131E-01
(PID.TID 0000.0001) %MON dynstat_eta_del2             =   7.1430611771148E-03
(PID.TID 0000.0001) %MON dynstat_uvel_max             =   8.2510803364210E-01
(PID.TID 0000.0001) %MON dynstat_uvel_min             =  -4.7288082634288E-01
(PID.TID 0000.0001) %MON dynstat_uvel_mean            =  -4.3049102912338E-04
(PID.TID 0000.0001) %MON dynstat_uvel_sd              =   1.2637886968508E-02
(PID.TID 0000.0001) %MON dynstat_uvel_del2            =   8.8565392124924E-05
(PID.TID 0000.0001) %MON dynstat_vvel_max             =   7.1114589966117E-01
(PID.TID 0000.0001) %MON dynstat_vvel_min             =  -7.1900476130871E-01
(PID.TID 0000.0001) %MON dynstat_vvel_mean            =  -3.8020063630913E-04
(PID.TID 0000.0001) %MON dynstat_vvel_sd              =   1.3236194716937E-02
(PID.TID 0000.0001) %MON dynstat_vvel_del2            =   1.1885767980699E-04
(PID.TID 0000.0001) %MON dynstat_wvel_max             =   1.0359931948390E-04
(PID.TID 0000.0001) %MON dynstat_wvel_min             =  -8.2196873282878E-04
(PID.TID 0000.0001) %MON dynstat_wvel_mean            =  -2.2460015023169E-07
(PID.TID 0000.0001) %MON dynstat_wvel_sd              =   9.6352380890394E-06
(PID.TID 0000.0001) %MON dynstat_wvel_del2            =   9.3070922954186E-08
(PID.TID 0000.0001) %MON dynstat_theta_max            =   3.0925310175899E+01
(PID.TID 0000.0001) %MON dynstat_theta_min            =  -3.0163138768184E+00
(PID.TID 0000.0001) %MON dynstat_theta_mean           =   3.9089445189921E+00
(PID.TID 0000.0001) %MON dynstat_theta_sd             =   4.5706410334161E+00
(PID.TID 0000.0001) %MON dynstat_theta_del2           =   2.6540383609244E-03
(PID.TID 0000.0001) %MON dynstat_salt_max             =   4.1376508805581E+01
(PID.TID 0000.0001) %MON dynstat_salt_min             =   1.8518404077819E+01
(PID.TID 0000.0001) %MON dynstat_salt_mean            =   3.4772185921073E+01
(PID.TID 0000.0001) %MON dynstat_salt_sd              =   5.3094714311604E-01
(PID.TID 0000.0001) %MON dynstat_salt_del2            =   8.0380670996551E-04
(PID.TID 0000.0001) %MON dynstat_sst_max              =   3.0925310175899E+01
(PID.TID 0000.0001) %MON dynstat_sst_min              =  -1.8998676800826E+00
(PID.TID 0000.0001) %MON dynstat_sst_mean             =   1.8099795799145E+01
(PID.TID 0000.0001) %MON dynstat_sst_sd               =   9.8009326441421E+00
(PID.TID 0000.0001) %MON dynstat_sst_del2             =   1.5314890871196E-02
(PID.TID 0000.0001) %MON dynstat_sss_max              =   4.1376508805581E+01
(PID.TID 0000.0001) %MON dynstat_sss_min              =   1.8753325386150E+01
(PID.TID 0000.0001) %MON dynstat_sss_mean             =   3.4641139171001E+01
(PID.TID 0000.0001) %MON dynstat_sss_sd               =   1.4573534484566E+00
(PID.TID 0000.0001) %MON dynstat_sss_del2             =   8.0292419998998E-03
(PID.TID 0000.0001) %MON forcing_qnet_max             =   4.1592714843750E+04
(PID.TID 0000.0001) %MON forcing_qnet_min             =  -1.6905949218750E+04
(PID.TID 0000.0001) %MON forcing_qnet_mean            =  -1.5471596810491E+02
(PID.TID 0000.0001) %MON forcing_qnet_sd              =   1.3971451953995E+03
(PID.TID 0000.0001) %MON forcing_qnet_del2            =   4.9400048164030E+01
(PID.TID 0000.0001) %MON forcing_qsw_max              =   0.0000000000000E+00
(PID.TID 0000.0001) %MON forcing_qsw_min              =   0.0000000000000E+00
(PID.TID 0000.0001) %MON forcing_qsw_mean             =   0.0000000000000E+00
(PID.TID 0000.0001) %MON forcing_qsw_sd               =   0.0000000000000E+00
(PID.TID 0000.0001) %MON forcing_qsw_del2             =   0.0000000000000E+00
(PID.TID 0000.0001) %MON forcing_empmr_max            =   7.5695060193539E-02
(PID.TID 0000.0001) %MON forcing_empmr_min            =  -7.3506230115891E-01
(PID.TID 0000.0001) %MON forcing_empmr_mean           =  -6.6420759132323E-04
(PID.TID 0000.0001) %MON forcing_empmr_sd             =   1.3743087350918E-02
(PID.TID 0000.0001) %MON forcing_empmr_del2           =   5.3521911823709E-04
(PID.TID 0000.0001) %MON forcing_fu_max               =   5.5437894138368E-01
(PID.TID 0000.0001) %MON forcing_fu_min               =  -4.9051994602484E-01
(PID.TID 0000.0001) %MON forcing_fu_mean              =  -5.6820550273012E-03
(PID.TID 0000.0001) %MON forcing_fu_sd                =   7.6284009183091E-02
(PID.TID 0000.0001) %MON forcing_fu_del2              =   7.7240586045960E-04
(PID.TID 0000.0001) %MON forcing_fv_max               =   3.3975735301735E-01
(PID.TID 0000.0001) %MON forcing_fv_min               =  -5.0081384550348E-01
(PID.TID 0000.0001) %MON forcing_fv_mean              =  -1.4036259627037E-02
(PID.TID 0000.0001) %MON forcing_fv_sd                =   7.3149868084883E-02
(PID.TID 0000.0001) %MON forcing_fv_del2              =   6.4673410600270E-04
(PID.TID 0000.0001) %MON trAdv_CFL_u_max              =   2.5788546520285E-03
(PID.TID 0000.0001) %MON trAdv_CFL_v_max              =   4.0594065355383E-03
(PID.TID 0000.0001) %MON trAdv_CFL_w_max              =   1.1423448794534E-02
(PID.TID 0000.0001) %MON advcfl_uvel_max              =   2.7515427391861E-03
(PID.TID 0000.0001) %MON advcfl_vvel_max              =   2.3207284754582E-03
(PID.TID 0000.0001) %MON advcfl_wvel_max              =   2.5567384388136E-02
(PID.TID 0000.0001) %MON advcfl_W_hf_max              =   1.1423448794534E-02
(PID.TID 0000.0001) %MON pe_b_mean                    =   5.4641180158660E-04
(PID.TID 0000.0001) %MON ke_max                       =   3.2621493222919E-01
(PID.TID 0000.0001) %MON ke_mean                      =   1.5480401545710E-04
(PID.TID 0000.0001) %MON ke_vol                       =   1.3398058102550E+18
(PID.TID 0000.0001) %MON vort_r_min                   =  -2.4218015142512E-06
(PID.TID 0000.0001) %MON vort_r_max                   =   2.4457364374468E-06
(PID.TID 0000.0001) %MON vort_a_mean                  =  -2.0549865324846E-05
(PID.TID 0000.0001) %MON vort_a_sd                    =   7.5259523319689E-05
(PID.TID 0000.0001) %MON vort_p_mean                  =  -2.4783425083549E-05
(PID.TID 0000.0001) %MON vort_p_sd                    =   1.2811962718208E-04
(PID.TID 0000.0001) %MON surfExpan_theta_mean         =  -6.7878160322379E-06
(PID.TID 0000.0001) %MON surfExpan_salt_mean          =   7.2158592502159E-07
(PID.TID 0000.0001) // =======================================================
(PID.TID 0000.0001) // End MONITOR dynamic field statistics
(PID.TID 0000.0001) // =======================================================
 Computing Diagnostic #     81  oceTAUX      Counter:       1   Parms: UU      U1      
           Vector  Mate for  oceTAUX      Diagnostic #     82  oceTAUY  exists 
 Computing Diagnostic #     82  oceTAUY      Counter:       1   Parms: VV      U1      
           Vector  Mate for  oceTAUY      Diagnostic #     81  oceTAUX  exists 
 Computing Diagnostic #     85  oceFWflx     Counter:       1   Parms: SM      U1      
 Computing Diagnostic #     86  oceSflux     Counter:       1   Parms: SM      U1      
 Computing Diagnostic #     87  oceQnet      Counter:       1   Parms: SM      U1      
 Computing Diagnostic #     88  oceQsw       Counter:       1   Parms: SM      U1      
 Computing Diagnostic #     27  SALT         Counter:       1   Parms: SMR     MR      
 Computing Diagnostic #     26  THETA        Counter:       1   Parms: SMR     MR      
 Computing Diagnostic #     45  UVELMASS     Counter:       1   Parms: UUr     MR      
           Vector  Mate for  UVELMASS     Diagnostic #     46  VVELMASS exists 
 Computing Diagnostic #     46  VVELMASS     Counter:       1   Parms: VVr     MR      
           Vector  Mate for  VVELMASS     Diagnostic #     45  UVELMASS exists 
 cg2d: Sum(rhs),rhsMax =  -5.51590523977357E+00  1.61497863250166E+02
(PID.TID 0000.0001)      cg2d_init_res =   2.22653761275558E-01
(PID.TID 0000.0001)      cg2d_iters(min,last) =      -1       9
(PID.TID 0000.0001)      cg2d_last_res =   4.88383357899359E-08
(PID.TID 0000.0001) // =======================================================
(PID.TID 0000.0001) // Begin MONITOR dynamic field statistics
(PID.TID 0000.0001) // =======================================================
(PID.TID 0000.0001) %MON time_tsnumber                =                 72004
(PID.TID 0000.0001) %MON time_secondsf                =   6.4803600000000E+07
(PID.TID 0000.0001) %MON dynstat_eta_max              =   7.5595013894289E+00
(PID.TID 0000.0001) %MON dynstat_eta_min              =  -1.6221923332673E+00
(PID.TID 0000.0001) %MON dynstat_eta_mean             =   1.0351058200647E-02
(PID.TID 0000.0001) %MON dynstat_eta_sd               =   6.3556035994954E-01
(PID.TID 0000.0001) %MON dynstat_eta_del2             =   6.3790326419493E-03
(PID.TID 0000.0001) %MON dynstat_uvel_max             =   1.0592074838491E+00
(PID.TID 0000.0001) %MON dynstat_uvel_min             =  -5.6495574451593E-01
(PID.TID 0000.0001) %MON dynstat_uvel_mean            =  -4.0234244237171E-04
(PID.TID 0000.0001) %MON dynstat_uvel_sd              =   1.2939914513419E-02
(PID.TID 0000.0001) %MON dynstat_uvel_del2            =   1.0358280963395E-04
(PID.TID 0000.0001) %MON dynstat_vvel_max             =   8.9811646650215E-01
(PID.TID 0000.0001) %MON dynstat_vvel_min             =  -9.2310434370159E-01
(PID.TID 0000.0001) %MON dynstat_vvel_mean            =  -3.7530663473366E-04
(PID.TID 0000.0001) %MON dynstat_vvel_sd              =   1.3513746213601E-02
(PID.TID 0000.0001) %MON dynstat_vvel_del2            =   1.4238391091445E-04
(PID.TID 0000.0001) %MON dynstat_wvel_max             =   1.0372049207918E-04
(PID.TID 0000.0001) %MON dynstat_wvel_min             =  -8.6329112351072E-04
(PID.TID 0000.0001) %MON dynstat_wvel_mean            =  -2.8617455650647E-07
(PID.TID 0000.0001) %MON dynstat_wvel_sd              =   1.0329104844433E-05
(PID.TID 0000.0001) %MON dynstat_wvel_del2            =   9.4112109868010E-08
(PID.TID 0000.0001) %MON dynstat_theta_max            =   3.0925084084998E+01
(PID.TID 0000.0001) %MON dynstat_theta_min            =  -3.0154699312828E+00
(PID.TID 0000.0001) %MON dynstat_theta_mean           =   3.9089544048025E+00
(PID.TID 0000.0001) %MON dynstat_theta_sd             =   4.5706736388925E+00
(PID.TID 0000.0001) %MON dynstat_theta_del2           =   2.6533360464748E-03
(PID.TID 0000.0001) %MON dynstat_salt_max             =   4.1375918233963E+01
(PID.TID 0000.0001) %MON dynstat_salt_min             =   1.8518413784638E+01
(PID.TID 0000.0001) %MON dynstat_salt_mean            =   3.4772178162811E+01
(PID.TID 0000.0001) %MON dynstat_salt_sd              =   5.3096020485281E-01
(PID.TID 0000.0001) %MON dynstat_salt_del2            =   8.0533313320085E-04
(PID.TID 0000.0001) %MON dynstat_sst_max              =   3.0925084084998E+01
(PID.TID 0000.0001) %MON dynstat_sst_min              =  -1.8998265939350E+00
(PID.TID 0000.0001) %MON dynstat_sst_mean             =   1.8100305631306E+01
(PID.TID 0000.0001) %MON dynstat_sst_sd               =   9.8011249182592E+00
(PID.TID 0000.0001) %MON dynstat_sst_del2             =   1.5295457043704E-02
(PID.TID 0000.0001) %MON dynstat_sss_max              =   4.1375918233963E+01
(PID.TID 0000.0001) %MON dynstat_sss_min              =   1.8752722977221E+01
(PID.TID 0000.0001) %MON dynstat_sss_mean             =   3.4640582454375E+01
(PID.TID 0000.0001) %MON dynstat_sss_sd               =   1.4576959129305E+00
(PID.TID 0000.0001) %MON dynstat_sss_del2             =   8.0530037468576E-03
(PID.TID 0000.0001) %MON forcing_qnet_max             =   1.4829837890625E+04
(PID.TID 0000.0001) %MON forcing_qnet_min             =  -9.6648134765625E+03
(PID.TID 0000.0001) %MON forcing_qnet_mean            =  -1.1470676766314E+02
(PID.TID 0000.0001) %MON forcing_qnet_sd              =   9.6863601606698E+02
(PID.TID 0000.0001) %MON forcing_qnet_del2            =   3.1872548722341E+01
(PID.TID 0000.0001) %MON forcing_qsw_max              =   0.0000000000000E+00
(PID.TID 0000.0001) %MON forcing_qsw_min              =   0.0000000000000E+00
(PID.TID 0000.0001) %MON forcing_qsw_mean             =   0.0000000000000E+00
(PID.TID 0000.0001) %MON forcing_qsw_sd               =   0.0000000000000E+00
(PID.TID 0000.0001) %MON forcing_qsw_del2             =   0.0000000000000E+00
(PID.TID 0000.0001) %MON forcing_empmr_max            =   7.7714070677757E-02
(PID.TID 0000.0001) %MON forcing_empmr_min            =  -5.9912520647049E-01
(PID.TID 0000.0001) %MON forcing_empmr_mean           =  -6.0535949222121E-04
(PID.TID 0000.0001) %MON forcing_empmr_sd             =   1.1974250300206E-02
(PID.TID 0000.0001) %MON forcing_empmr_del2           =   4.6934656462168E-04
(PID.TID 0000.0001) %MON forcing_fu_max               =   5.6988621722107E-01
(PID.TID 0000.0001) %MON forcing_fu_min               =  -4.8732114308450E-01
(PID.TID 0000.0001) %MON forcing_fu_mean              =  -5.5086077476531E-03
(PID.TID 0000.0001) %MON forcing_fu_sd                =   7.6401902323609E-02
(PID.TID 0000.0001) %MON forcing_fu_del2              =   7.7604332272695E-04
(PID.TID 0000.0001) %MON forcing_fv_max               =   3.5995137604829E-01
(PID.TID 0000.0001) %MON forcing_fv_min               =  -4.6828755036670E-01
(PID.TID 0000.0001) %MON forcing_fv_mean              =  -1.3754738086923E-02
(PID.TID 0000.0001) %MON forcing_fv_sd                =   7.3671665149828E-02
(PID.TID 0000.0001) %MON forcing_fv_del2              =   6.5388548738994E-04
(PID.TID 0000.0001) %MON trAdv_CFL_u_max              =   3.3231743749239E-03
(PID.TID 0000.0001) %MON trAdv_CFL_v_max              =   5.0136935610571E-03
(PID.TID 0000.0001) %MON trAdv_CFL_w_max              =   9.0854055153551E-03
(PID.TID 0000.0001) %MON advcfl_uvel_max              =   3.5322097745332E-03
(PID.TID 0000.0001) %MON advcfl_vvel_max              =   2.9308816363597E-03
(PID.TID 0000.0001) %MON advcfl_wvel_max              =   2.0839137616365E-02
(PID.TID 0000.0001) %MON advcfl_W_hf_max              =   9.0854055153551E-03
(PID.TID 0000.0001) %MON pe_b_mean                    =   5.3825999141259E-04
(PID.TID 0000.0001) %MON ke_max                       =   5.4146050547574E-01
(PID.TID 0000.0001) %MON ke_mean                      =   1.6178485826795E-04
(PID.TID 0000.0001) %MON ke_vol                       =   1.3398060204257E+18
(PID.TID 0000.0001) %MON vort_r_min                   =  -3.1025796834059E-06
(PID.TID 0000.0001) %MON vort_r_max                   =   3.0682155704450E-06
(PID.TID 0000.0001) %MON vort_a_mean                  =  -2.0549865324846E-05
(PID.TID 0000.0001) %MON vort_a_sd                    =   7.5259525555950E-05
(PID.TID 0000.0001) %MON vort_p_mean                  =  -2.4783420360552E-05
(PID.TID 0000.0001) %MON vort_p_sd                    =   1.2811956577857E-04
(PID.TID 0000.0001) %MON surfExpan_theta_mean         =  -7.1929988488198E-06
(PID.TID 0000.0001) %MON surfExpan_salt_mean          =   8.3115550430315E-07
(PID.TID 0000.0001) // =======================================================
(PID.TID 0000.0001) // End MONITOR dynamic field statistics
(PID.TID 0000.0001) // =======================================================
 cg2d: Sum(rhs),rhsMax =  -6.20925778536244E+00  1.50484867708476E+02
(PID.TID 0000.0001)      cg2d_init_res =   2.42902685563544E-01
(PID.TID 0000.0001)      cg2d_iters(min,last) =      -1       9
(PID.TID 0000.0001)      cg2d_last_res =   5.64932735428643E-08
(PID.TID 0000.0001) // =======================================================
(PID.TID 0000.0001) // Begin MONITOR dynamic field statistics
(PID.TID 0000.0001) // =======================================================
(PID.TID 0000.0001) %MON time_tsnumber                =                 72005
(PID.TID 0000.0001) %MON time_secondsf                =   6.4804500000000E+07
(PID.TID 0000.0001) %MON dynstat_eta_max              =   7.0467667666127E+00
(PID.TID 0000.0001) %MON dynstat_eta_min              =  -1.6237234528241E+00
(PID.TID 0000.0001) %MON dynstat_eta_mean             =   1.0857596414992E-02
(PID.TID 0000.0001) %MON dynstat_eta_sd               =   6.3098204135545E-01
(PID.TID 0000.0001) %MON dynstat_eta_del2             =   5.5764447815066E-03
(PID.TID 0000.0001) %MON dynstat_uvel_max             =   1.2700205395482E+00
(PID.TID 0000.0001) %MON dynstat_uvel_min             =  -6.4907205719596E-01
(PID.TID 0000.0001) %MON dynstat_uvel_mean            =  -3.7162678464009E-04
(PID.TID 0000.0001) %MON dynstat_uvel_sd              =   1.3209694632873E-02
(PID.TID 0000.0001) %MON dynstat_uvel_del2            =   1.1612362613546E-04
(PID.TID 0000.0001) %MON dynstat_vvel_max             =   1.0562096161209E+00
(PID.TID 0000.0001) %MON dynstat_vvel_min             =  -1.1056272098862E+00
(PID.TID 0000.0001) %MON dynstat_vvel_mean            =  -3.7302624645642E-04
(PID.TID 0000.0001) %MON dynstat_vvel_sd              =   1.3756676027542E-02
(PID.TID 0000.0001) %MON dynstat_vvel_del2            =   1.6092750374963E-04
(PID.TID 0000.0001) %MON dynstat_wvel_max             =   1.0379451496448E-04
(PID.TID 0000.0001) %MON dynstat_wvel_min             =  -8.1067785592284E-04
(PID.TID 0000.0001) %MON dynstat_wvel_mean            =  -3.4382285242702E-07
(PID.TID 0000.0001) %MON dynstat_wvel_sd              =   1.0494908103918E-05
(PID.TID 0000.0001) %MON dynstat_wvel_del2            =   9.3930235525733E-08
(PID.TID 0000.0001) %MON dynstat_theta_max            =   3.0924851327127E+01
(PID.TID 0000.0001) %MON dynstat_theta_min            =  -3.0145559953268E+00
(PID.TID 0000.0001) %MON dynstat_theta_mean           =   3.9089678633843E+00
(PID.TID 0000.0001) %MON dynstat_theta_sd             =   4.5707245877700E+00
(PID.TID 0000.0001) %MON dynstat_theta_del2           =   2.6525050485034E-03
(PID.TID 0000.0001) %MON dynstat_salt_max             =   4.1375234653789E+01
(PID.TID 0000.0001) %MON dynstat_salt_min             =   1.8518423378707E+01
(PID.TID 0000.0001) %MON dynstat_salt_mean            =   3.4772170589960E+01
(PID.TID 0000.0001) %MON dynstat_salt_sd              =   5.3097413616738E-01
(PID.TID 0000.0001) %MON dynstat_salt_del2            =   8.0727138999299E-04
(PID.TID 0000.0001) %MON dynstat_sst_max              =   3.0924851327127E+01
(PID.TID 0000.0001) %MON dynstat_sst_min              =  -1.8997863673071E+00
(PID.TID 0000.0001) %MON dynstat_sst_mean             =   1.8101079466356E+01
(PID.TID 0000.0001) %MON dynstat_sst_sd               =   9.8015611991063E+00
(PID.TID 0000.0001) %MON dynstat_sst_del2             =   1.5273520385535E-02
(PID.TID 0000.0001) %MON dynstat_sss_max              =   4.1375234653789E+01
(PID.TID 0000.0001) %MON dynstat_sss_min              =   1.8751621624910E+01
(PID.TID 0000.0001) %MON dynstat_sss_mean             =   3.4640040658992E+01
(PID.TID 0000.0001) %MON dynstat_sss_sd               =   1.4580226206721E+00
(PID.TID 0000.0001) %MON dynstat_sss_del2             =   8.0833845945197E-03
(PID.TID 0000.0001) %MON forcing_qnet_max             =   1.3193406936550E+04
(PID.TID 0000.0001) %MON forcing_qnet_min             =  -1.6092801757812E+04
(PID.TID 0000.0001) %MON forcing_qnet_mean            =  -1.7700660249999E+02
(PID.TID 0000.0001) %MON forcing_qnet_sd              =   8.7557075134767E+02
(PID.TID 0000.0001) %MON forcing_qnet_del2            =   3.1984565073744E+01
(PID.TID 0000.0001) %MON forcing_qsw_max              =   0.0000000000000E+00
(PID.TID 0000.0001) %MON forcing_qsw_min              =  -1.0735264870106E+02
(PID.TID 0000.0001) %MON forcing_qsw_mean             =  -2.1959972717149E+01
(PID.TID 0000.0001) %MON forcing_qsw_sd               =   2.9870533653265E+01
(PID.TID 0000.0001) %MON forcing_qsw_del2             =   2.2286866484023E-01
(PID.TID 0000.0001) %MON forcing_empmr_max            =   4.6309255063534E-02
(PID.TID 0000.0001) %MON forcing_empmr_min            =  -5.0658386945724E-01
(PID.TID 0000.0001) %MON forcing_empmr_mean           =  -5.8251894649759E-04
(PID.TID 0000.0001) %MON forcing_empmr_sd             =   1.0801812224599E-02
(PID.TID 0000.0001) %MON forcing_empmr_del2           =   4.2638620052700E-04
(PID.TID 0000.0001) %MON forcing_fu_max               =   5.8805343434906E-01
(PID.TID 0000.0001) %MON forcing_fu_min               =  -4.6985488274299E-01
(PID.TID 0000.0001) %MON forcing_fu_mean              =  -5.3663325680894E-03
(PID.TID 0000.0001) %MON forcing_fu_sd                =   7.6314860101425E-02
(PID.TID 0000.0001) %MON forcing_fu_del2              =   7.7682696348163E-04
(PID.TID 0000.0001) %MON forcing_fv_max               =   3.6930282024497E-01
(PID.TID 0000.0001) %MON forcing_fv_min               =  -4.3061258411229E-01
(PID.TID 0000.0001) %MON forcing_fv_mean              =  -1.3589241111696E-02
(PID.TID 0000.0001) %MON forcing_fv_sd                =   7.3898747298647E-02
(PID.TID 0000.0001) %MON forcing_fv_del2              =   6.5625005779970E-04
(PID.TID 0000.0001) %MON trAdv_CFL_u_max              =   4.0027611819102E-03
(PID.TID 0000.0001) %MON trAdv_CFL_v_max              =   5.8721511016747E-03
(PID.TID 0000.0001) %MON trAdv_CFL_w_max              =   7.4927123975786E-03
(PID.TID 0000.0001) %MON advcfl_uvel_max              =   4.2352221184735E-03
(PID.TID 0000.0001) %MON advcfl_vvel_max              =   3.4467972512427E-03
(PID.TID 0000.0001) %MON advcfl_wvel_max              =   1.7620308502861E-02
(PID.TID 0000.0001) %MON advcfl_W_hf_max              =   7.4927123975786E-03
(PID.TID 0000.0001) %MON pe_b_mean                    =   5.3054939490155E-04
(PID.TID 0000.0001) %MON ke_max                       =   7.7856855634167E-01
(PID.TID 0000.0001) %MON ke_mean                      =   1.6808786801974E-04
(PID.TID 0000.0001) %MON ke_vol                       =   1.3398062119756E+18
(PID.TID 0000.0001) %MON vort_r_min                   =  -3.6576991723446E-06
(PID.TID 0000.0001) %MON vort_r_max                   =   3.5779047275090E-06
(PID.TID 0000.0001) %MON vort_a_mean                  =  -2.0549865324846E-05
(PID.TID 0000.0001) %MON vort_a_sd                    =   7.5259527191013E-05
(PID.TID 0000.0001) %MON vort_p_mean                  =  -2.4783415654215E-05
(PID.TID 0000.0001) %MON vort_p_sd                    =   1.2811950772133E-04
(PID.TID 0000.0001) %MON surfExpan_theta_mean         =  -7.5083806431262E-06
(PID.TID 0000.0001) %MON surfExpan_salt_mean          =   9.5661849467976E-07
(PID.TID 0000.0001) // =======================================================
(PID.TID 0000.0001) // End MONITOR dynamic field statistics
(PID.TID 0000.0001) // =======================================================
 cg2d: Sum(rhs),rhsMax =  -7.07881232498474E+00  1.37978541923547E+02
(PID.TID 0000.0001)      cg2d_init_res =   2.61392032643536E-01
(PID.TID 0000.0001)      cg2d_iters(min,last) =      -1       9
(PID.TID 0000.0001)      cg2d_last_res =   6.89460439259630E-08
(PID.TID 0000.0001) // =======================================================
(PID.TID 0000.0001) // Begin MONITOR dynamic field statistics
(PID.TID 0000.0001) // =======================================================
(PID.TID 0000.0001) %MON time_tsnumber                =                 72006
(PID.TID 0000.0001) %MON time_secondsf                =   6.4805400000000E+07
(PID.TID 0000.0001) %MON dynstat_eta_max              =   6.4642750087099E+00
(PID.TID 0000.0001) %MON dynstat_eta_min              =  -1.6246990348714E+00
(PID.TID 0000.0001) %MON dynstat_eta_mean             =   1.1349405755634E-02
(PID.TID 0000.0001) %MON dynstat_eta_sd               =   6.2681526059301E-01
(PID.TID 0000.0001) %MON dynstat_eta_del2             =   4.7930004037495E-03
(PID.TID 0000.0001) %MON dynstat_uvel_max             =   1.4551054220806E+00
(PID.TID 0000.0001) %MON dynstat_uvel_min             =  -7.2448149111733E-01
(PID.TID 0000.0001) %MON dynstat_uvel_mean            =  -3.3957067595982E-04
(PID.TID 0000.0001) %MON dynstat_uvel_sd              =   1.3437348889429E-02
(PID.TID 0000.0001) %MON dynstat_uvel_del2            =   1.2590323870732E-04
(PID.TID 0000.0001) %MON dynstat_vvel_max             =   1.1843276964832E+00
(PID.TID 0000.0001) %MON dynstat_vvel_min             =  -1.2636818030627E+00
(PID.TID 0000.0001) %MON dynstat_vvel_mean            =  -3.7353550324201E-04
(PID.TID 0000.0001) %MON dynstat_vvel_sd              =   1.3956879491065E-02
(PID.TID 0000.0001) %MON dynstat_vvel_del2            =   1.7439669564295E-04
(PID.TID 0000.0001) %MON dynstat_wvel_max             =   1.0375122185247E-04
(PID.TID 0000.0001) %MON dynstat_wvel_min             =  -6.9155069045475E-04
(PID.TID 0000.0001) %MON dynstat_wvel_mean            =  -3.9327372118589E-07
(PID.TID 0000.0001) %MON dynstat_wvel_sd              =   1.0266368223639E-05
(PID.TID 0000.0001) %MON dynstat_wvel_del2            =   9.2394099726182E-08
(PID.TID 0000.0001) %MON dynstat_theta_max            =   3.0924611250685E+01
(PID.TID 0000.0001) %MON dynstat_theta_min            =  -3.0136663025331E+00
(PID.TID 0000.0001) %MON dynstat_theta_mean           =   3.9089803073990E+00
(PID.TID 0000.0001) %MON dynstat_theta_sd             =   4.5707724659197E+00
(PID.TID 0000.0001) %MON dynstat_theta_del2           =   2.6517028117796E-03
(PID.TID 0000.0001) %MON dynstat_salt_max             =   4.1374469140606E+01
(PID.TID 0000.0001) %MON dynstat_salt_min             =   1.8518432930874E+01
(PID.TID 0000.0001) %MON dynstat_salt_mean            =   3.4772163178376E+01
(PID.TID 0000.0001) %MON dynstat_salt_sd              =   5.3098858068352E-01
(PID.TID 0000.0001) %MON dynstat_salt_del2            =   8.0962400392335E-04
(PID.TID 0000.0001) %MON dynstat_sst_max              =   3.0924611250685E+01
(PID.TID 0000.0001) %MON dynstat_sst_min              =  -1.8997475354892E+00
(PID.TID 0000.0001) %MON dynstat_sst_mean             =   1.8101789464412E+01
(PID.TID 0000.0001) %MON dynstat_sst_sd               =   9.8019915475118E+00
(PID.TID 0000.0001) %MON dynstat_sst_del2             =   1.5252664482452E-02
(PID.TID 0000.0001) %MON dynstat_sss_max              =   4.1374469140606E+01
(PID.TID 0000.0001) %MON dynstat_sss_min              =   1.8751421386055E+01
(PID.TID 0000.0001) %MON dynstat_sss_mean             =   3.4639511370894E+01
(PID.TID 0000.0001) %MON dynstat_sss_sd               =   1.4583572694966E+00
(PID.TID 0000.0001) %MON dynstat_sss_del2             =   8.1202586490164E-03
(PID.TID 0000.0001) %MON forcing_qnet_max             =   1.4096517578125E+04
(PID.TID 0000.0001) %MON forcing_qnet_min             =  -3.3330531250000E+04
(PID.TID 0000.0001) %MON forcing_qnet_mean            =  -1.6138683328102E+02
(PID.TID 0000.0001) %MON forcing_qnet_sd              =   8.5906364282333E+02
(PID.TID 0000.0001) %MON forcing_qnet_del2            =   3.6014051864658E+01
(PID.TID 0000.0001) %MON forcing_qsw_max              =   0.0000000000000E+00
(PID.TID 0000.0001) %MON forcing_qsw_min              =  -1.0668022220667E+02
(PID.TID 0000.0001) %MON forcing_qsw_mean             =  -2.2001846280462E+01
(PID.TID 0000.0001) %MON forcing_qsw_sd               =   2.9889040346258E+01
(PID.TID 0000.0001) %MON forcing_qsw_del2             =   2.2351097906375E-01
(PID.TID 0000.0001) %MON forcing_empmr_max            =   4.6476844698191E-02
(PID.TID 0000.0001) %MON forcing_empmr_min            =  -4.3650311231613E-01
(PID.TID 0000.0001) %MON forcing_empmr_mean           =  -5.6558074173835E-04
(PID.TID 0000.0001) %MON forcing_empmr_sd             =   9.9526901411268E-03
(PID.TID 0000.0001) %MON forcing_empmr_del2           =   3.9563383913856E-04
(PID.TID 0000.0001) %MON forcing_fu_max               =   6.1001491932286E-01
(PID.TID 0000.0001) %MON forcing_fu_min               =  -4.4552682531363E-01
(PID.TID 0000.0001) %MON forcing_fu_mean              =  -5.2780754079430E-03
(PID.TID 0000.0001) %MON forcing_fu_sd                =   7.6229621390867E-02
(PID.TID 0000.0001) %MON forcing_fu_del2              =   7.7654139548256E-04
(PID.TID 0000.0001) %MON forcing_fv_max               =   3.6921735362899E-01
(PID.TID 0000.0001) %MON forcing_fv_min               =  -3.9410375358278E-01
(PID.TID 0000.0001) %MON forcing_fv_mean              =  -1.3492592789188E-02
(PID.TID 0000.0001) %MON forcing_fv_sd                =   7.4057036068293E-02
(PID.TID 0000.0001) %MON forcing_fv_del2              =   6.5603942315620E-04
(PID.TID 0000.0001) %MON trAdv_CFL_u_max              =   4.6091222130546E-03
(PID.TID 0000.0001) %MON trAdv_CFL_v_max              =   6.7167831571297E-03
(PID.TID 0000.0001) %MON trAdv_CFL_w_max              =   6.4855846069785E-03
(PID.TID 0000.0001) %MON advcfl_uvel_max              =   4.8524370090098E-03
(PID.TID 0000.0001) %MON advcfl_vvel_max              =   3.8648932811284E-03
(PID.TID 0000.0001) %MON advcfl_wvel_max              =   1.5182716950126E-02
(PID.TID 0000.0001) %MON advcfl_W_hf_max              =   6.4855846069785E-03
(PID.TID 0000.0001) %MON pe_b_mean                    =   5.2358195737178E-04
(PID.TID 0000.0001) %MON ke_max                       =   1.0180485046624E+00
(PID.TID 0000.0001) %MON ke_mean                      =   1.7343915951751E-04
(PID.TID 0000.0001) %MON ke_vol                       =   1.3398063962981E+18
(PID.TID 0000.0001) %MON vort_r_min                   =  -4.1709974662019E-06
(PID.TID 0000.0001) %MON vort_r_max                   =   3.9712908164656E-06
(PID.TID 0000.0001) %MON vort_a_mean                  =  -2.0549865324846E-05
(PID.TID 0000.0001) %MON vort_a_sd                    =   7.5259528108274E-05
(PID.TID 0000.0001) %MON vort_p_mean                  =  -2.4783410924524E-05
(PID.TID 0000.0001) %MON vort_p_sd                    =   1.2811945015477E-04
(PID.TID 0000.0001) %MON surfExpan_theta_mean         =  -7.7429099326991E-06
(PID.TID 0000.0001) %MON surfExpan_salt_mean          =   1.0854873846997E-06
(PID.TID 0000.0001) // =======================================================
(PID.TID 0000.0001) // End MONITOR dynamic field statistics
(PID.TID 0000.0001) // =======================================================
 cg2d: Sum(rhs),rhsMax =  -8.19096739761891E+00  1.24273902338511E+02
(PID.TID 0000.0001)      cg2d_init_res =   2.81546673277239E-01
(PID.TID 0000.0001)      cg2d_iters(min,last) =      -1       9
(PID.TID 0000.0001)      cg2d_last_res =   8.14263846620283E-08
(PID.TID 0000.0001) // =======================================================
(PID.TID 0000.0001) // Begin MONITOR dynamic field statistics
(PID.TID 0000.0001) // =======================================================
(PID.TID 0000.0001) %MON time_tsnumber                =                 72007
(PID.TID 0000.0001) %MON time_secondsf                =   6.4806300000000E+07
(PID.TID 0000.0001) %MON dynstat_eta_max              =   5.8257109466283E+00
(PID.TID 0000.0001) %MON dynstat_eta_min              =  -2.3302998490871E+00
(PID.TID 0000.0001) %MON dynstat_eta_mean             =   1.1828135919026E-02
(PID.TID 0000.0001) %MON dynstat_eta_sd               =   6.2308715137015E-01
(PID.TID 0000.0001) %MON dynstat_eta_del2             =   4.0816130927404E-03
(PID.TID 0000.0001) %MON dynstat_uvel_max             =   1.6131433260881E+00
(PID.TID 0000.0001) %MON dynstat_uvel_min             =  -7.9058564519279E-01
(PID.TID 0000.0001) %MON dynstat_uvel_mean            =  -3.0728311416331E-04
(PID.TID 0000.0001) %MON dynstat_uvel_sd              =   1.3628690030027E-02
(PID.TID 0000.0001) %MON dynstat_uvel_del2            =   1.3308594360216E-04
(PID.TID 0000.0001) %MON dynstat_vvel_max             =   1.2818847430125E+00
(PID.TID 0000.0001) %MON dynstat_vvel_min             =  -1.3949682186915E+00
(PID.TID 0000.0001) %MON dynstat_vvel_mean            =  -3.7666843075151E-04
(PID.TID 0000.0001) %MON dynstat_vvel_sd              =   1.4113688000986E-02
(PID.TID 0000.0001) %MON dynstat_vvel_del2            =   1.8307516149303E-04
(PID.TID 0000.0001) %MON dynstat_wvel_max             =   1.0369160319622E-04
(PID.TID 0000.0001) %MON dynstat_wvel_min             =  -5.3447080886444E-04
(PID.TID 0000.0001) %MON dynstat_wvel_mean            =  -4.3042508800074E-07
(PID.TID 0000.0001) %MON dynstat_wvel_sd              =   9.8202238230854E-06
(PID.TID 0000.0001) %MON dynstat_wvel_del2            =   8.9801715489683E-08
(PID.TID 0000.0001) %MON dynstat_theta_max            =   3.0924369270229E+01
(PID.TID 0000.0001) %MON dynstat_theta_min            =  -3.0128716757566E+00
(PID.TID 0000.0001) %MON dynstat_theta_mean           =   3.9089914895479E+00
(PID.TID 0000.0001) %MON dynstat_theta_sd             =   4.5708166792429E+00
(PID.TID 0000.0001) %MON dynstat_theta_del2           =   2.6511967230020E-03
(PID.TID 0000.0001) %MON dynstat_salt_max             =   4.1373639682993E+01
(PID.TID 0000.0001) %MON dynstat_salt_min             =   1.8518442467218E+01
(PID.TID 0000.0001) %MON dynstat_salt_mean            =   3.4772155846930E+01
(PID.TID 0000.0001) %MON dynstat_salt_sd              =   5.3100351635174E-01
(PID.TID 0000.0001) %MON dynstat_salt_del2            =   8.1247409873208E-04
(PID.TID 0000.0001) %MON dynstat_sst_max              =   3.0924369270229E+01
(PID.TID 0000.0001) %MON dynstat_sst_min              =  -1.8997091783945E+00
(PID.TID 0000.0001) %MON dynstat_sst_mean             =   1.8102444165961E+01
(PID.TID 0000.0001) %MON dynstat_sst_sd               =   9.8024065950647E+00
(PID.TID 0000.0001) %MON dynstat_sst_del2             =   1.5239796700963E-02
(PID.TID 0000.0001) %MON dynstat_sss_max              =   4.1373639682993E+01
(PID.TID 0000.0001) %MON dynstat_sss_min              =   1.8751385404441E+01
(PID.TID 0000.0001) %MON dynstat_sss_mean             =   3.4638993658263E+01
(PID.TID 0000.0001) %MON dynstat_sss_sd               =   1.4587106245984E+00
(PID.TID 0000.0001) %MON dynstat_sss_del2             =   8.1648193354676E-03
(PID.TID 0000.0001) %MON forcing_qnet_max             =   4.3417812500000E+04
(PID.TID 0000.0001) %MON forcing_qnet_min             =  -9.5941201171875E+03
(PID.TID 0000.0001) %MON forcing_qnet_mean            =  -1.4186295106809E+02
(PID.TID 0000.0001) %MON forcing_qnet_sd              =   9.6801940630793E+02
(PID.TID 0000.0001) %MON forcing_qnet_del2            =   3.8614389614136E+01
(PID.TID 0000.0001) %MON forcing_qsw_max              =   0.0000000000000E+00
(PID.TID 0000.0001) %MON forcing_qsw_min              =  -1.0555564621825E+02
(PID.TID 0000.0001) %MON forcing_qsw_mean             =  -2.1967913458574E+01
(PID.TID 0000.0001) %MON forcing_qsw_sd               =   2.9859450324593E+01
(PID.TID 0000.0001) %MON forcing_qsw_del2             =   2.2389469061388E-01
(PID.TID 0000.0001) %MON forcing_empmr_max            =   4.4973213225603E-02
(PID.TID 0000.0001) %MON forcing_empmr_min            =  -3.7782019376755E-01
(PID.TID 0000.0001) %MON forcing_empmr_mean           =  -5.5053968790032E-04
(PID.TID 0000.0001) %MON forcing_empmr_sd             =   9.2698283737407E-03
(PID.TID 0000.0001) %MON forcing_empmr_del2           =   3.7094990469279E-04
(PID.TID 0000.0001) %MON forcing_fu_max               =   6.3562689055479E-01
(PID.TID 0000.0001) %MON forcing_fu_min               =  -4.1703612161179E-01
(PID.TID 0000.0001) %MON forcing_fu_mean              =  -5.2426511329090E-03
(PID.TID 0000.0001) %MON forcing_fu_sd                =   7.6201227322458E-02
(PID.TID 0000.0001) %MON forcing_fu_del2              =   7.7655518035626E-04
(PID.TID 0000.0001) %MON forcing_fv_max               =   3.6433315236808E-01
(PID.TID 0000.0001) %MON forcing_fv_min               =  -3.6234365489932E-01
(PID.TID 0000.0001) %MON forcing_fv_mean              =  -1.3394146070826E-02
(PID.TID 0000.0001) %MON forcing_fv_sd                =   7.4179869340926E-02
(PID.TID 0000.0001) %MON forcing_fv_del2              =   6.5554928653433E-04
(PID.TID 0000.0001) %MON trAdv_CFL_u_max              =   5.1364474982631E-03
(PID.TID 0000.0001) %MON trAdv_CFL_v_max              =   7.4261640698194E-03
(PID.TID 0000.0001) %MON trAdv_CFL_w_max              =   6.8559431835303E-03
(PID.TID 0000.0001) %MON advcfl_uvel_max              =   5.3794565380389E-03
(PID.TID 0000.0001) %MON advcfl_vvel_max              =   4.1832575098612E-03
(PID.TID 0000.0001) %MON advcfl_wvel_max              =   1.3141571957132E-02
(PID.TID 0000.0001) %MON advcfl_W_hf_max              =   6.8559431835303E-03
(PID.TID 0000.0001) %MON pe_b_mean                    =   5.1738900980772E-04
(PID.TID 0000.0001) %MON ke_max                       =   1.2419385429903E+00
(PID.TID 0000.0001) %MON ke_mean                      =   1.7785268013464E-04
(PID.TID 0000.0001) %MON ke_vol                       =   1.3398065752610E+18
(PID.TID 0000.0001) %MON vort_r_min                   =  -4.6043306879095E-06
(PID.TID 0000.0001) %MON vort_r_max                   =   4.2472921181926E-06
(PID.TID 0000.0001) %MON vort_a_mean                  =  -2.0549865324846E-05
(PID.TID 0000.0001) %MON vort_a_sd                    =   7.5259528324725E-05
(PID.TID 0000.0001) %MON vort_p_mean                  =  -2.4783406217395E-05
(PID.TID 0000.0001) %MON vort_p_sd                    =   1.2811939401495E-04
(PID.TID 0000.0001) %MON surfExpan_theta_mean         =  -7.8591993585126E-06
(PID.TID 0000.0001) %MON surfExpan_salt_mean          =   1.2069376509745E-06
(PID.TID 0000.0001) // =======================================================
(PID.TID 0000.0001) // End MONITOR dynamic field statistics
(PID.TID 0000.0001) // =======================================================
 Computing Diagnostic #     81  oceTAUX      Counter:       1   Parms: UU      U1      
           Vector  Mate for  oceTAUX      Diagnostic #     82  oceTAUY  exists 
 Computing Diagnostic #     82  oceTAUY      Counter:       1   Parms: VV      U1      
           Vector  Mate for  oceTAUY      Diagnostic #     81  oceTAUX  exists 
 Computing Diagnostic #     85  oceFWflx     Counter:       1   Parms: SM      U1      
 Computing Diagnostic #     86  oceSflux     Counter:       1   Parms: SM      U1      
 Computing Diagnostic #     87  oceQnet      Counter:       1   Parms: SM      U1      
 Computing Diagnostic #     88  oceQsw       Counter:       1   Parms: SM      U1      
 Computing Diagnostic #     27  SALT         Counter:       1   Parms: SMR     MR      
 Computing Diagnostic #     26  THETA        Counter:       1   Parms: SMR     MR      
 Computing Diagnostic #     45  UVELMASS     Counter:       1   Parms: UUr     MR      
           Vector  Mate for  UVELMASS     Diagnostic #     46  VVELMASS exists 
 Computing Diagnostic #     46  VVELMASS     Counter:       1   Parms: VVr     MR      
           Vector  Mate for  VVELMASS     Diagnostic #     45  UVELMASS exists 
 cg2d: Sum(rhs),rhsMax =  -9.64711765235461E+00  1.09671444895309E+02
(PID.TID 0000.0001)      cg2d_init_res =   3.07850028544128E-01
(PID.TID 0000.0001)      cg2d_iters(min,last) =      -1       9
(PID.TID 0000.0001)      cg2d_last_res =   9.29362746784661E-08
(PID.TID 0000.0001) // =======================================================
(PID.TID 0000.0001) // Begin MONITOR dynamic field statistics
(PID.TID 0000.0001) // =======================================================
(PID.TID 0000.0001) %MON time_tsnumber                =                 72008
(PID.TID 0000.0001) %MON time_secondsf                =   6.4807200000000E+07
(PID.TID 0000.0001) %MON dynstat_eta_max              =   5.1450323243525E+00
(PID.TID 0000.0001) %MON dynstat_eta_min              =  -2.6957155459260E+00
(PID.TID 0000.0001) %MON dynstat_eta_mean             =   1.2293974656397E-02
(PID.TID 0000.0001) %MON dynstat_eta_sd               =   6.1977819692660E-01
(PID.TID 0000.0001) %MON dynstat_eta_del2             =   3.4821969431981E-03
(PID.TID 0000.0001) %MON dynstat_uvel_max             =   1.7437748054687E+00
(PID.TID 0000.0001) %MON dynstat_uvel_min             =  -8.4695992429818E-01
(PID.TID 0000.0001) %MON dynstat_uvel_mean            =  -2.7565957026101E-04
(PID.TID 0000.0001) %MON dynstat_uvel_sd              =   1.3794802258362E-02
(PID.TID 0000.0001) %MON dynstat_uvel_del2            =   1.3806740892654E-04
(PID.TID 0000.0001) %MON dynstat_vvel_max             =   1.3487745412283E+00
(PID.TID 0000.0001) %MON dynstat_vvel_min             =  -1.4978125457243E+00
(PID.TID 0000.0001) %MON dynstat_vvel_mean            =  -3.8207257621080E-04
(PID.TID 0000.0001) %MON dynstat_vvel_sd              =   1.4228114866537E-02
(PID.TID 0000.0001) %MON dynstat_vvel_del2            =   1.8744095645017E-04
(PID.TID 0000.0001) %MON dynstat_wvel_max             =   1.0382351667427E-04
(PID.TID 0000.0001) %MON dynstat_wvel_min             =  -5.5025793059374E-04
(PID.TID 0000.0001) %MON dynstat_wvel_mean            =  -4.5376635880849E-07
(PID.TID 0000.0001) %MON dynstat_wvel_sd              =   9.3319643459437E-06
(PID.TID 0000.0001) %MON dynstat_wvel_del2            =   8.6709862551856E-08
(PID.TID 0000.0001) %MON dynstat_theta_max            =   3.0924126163747E+01
(PID.TID 0000.0001) %MON dynstat_theta_min            =  -3.0122109802216E+00
(PID.TID 0000.0001) %MON dynstat_theta_mean           =   3.9090024297835E+00
(PID.TID 0000.0001) %MON dynstat_theta_sd             =   4.5708592349442E+00
(PID.TID 0000.0001) %MON dynstat_theta_del2           =   2.6507109186268E-03
(PID.TID 0000.0001) %MON dynstat_salt_max             =   4.1372762315066E+01
(PID.TID 0000.0001) %MON dynstat_salt_min             =   1.8518452010179E+01
(PID.TID 0000.0001) %MON dynstat_salt_mean            =   3.4772148802448E+01
(PID.TID 0000.0001) %MON dynstat_salt_sd              =   5.3101922947227E-01
(PID.TID 0000.0001) %MON dynstat_salt_del2            =   8.1569308581641E-04
(PID.TID 0000.0001) %MON dynstat_sst_max              =   3.0924126163747E+01
(PID.TID 0000.0001) %MON dynstat_sst_min              =  -1.8996726329464E+00
(PID.TID 0000.0001) %MON dynstat_sst_mean             =   1.8103072176305E+01
(PID.TID 0000.0001) %MON dynstat_sst_sd               =   9.8027916033017E+00
(PID.TID 0000.0001) %MON dynstat_sst_del2             =   1.5227270468335E-02
(PID.TID 0000.0001) %MON dynstat_sss_max              =   4.1372762315066E+01
(PID.TID 0000.0001) %MON dynstat_sss_min              =   1.8751379291323E+01
(PID.TID 0000.0001) %MON dynstat_sss_mean             =   3.4638492471109E+01
(PID.TID 0000.0001) %MON dynstat_sss_sd               =   1.4590828464464E+00
(PID.TID 0000.0001) %MON dynstat_sss_del2             =   8.2150934215483E-03
(PID.TID 0000.0001) %MON forcing_qnet_max             =   1.4142914062500E+04
(PID.TID 0000.0001) %MON forcing_qnet_min             =  -1.1383537109375E+04
(PID.TID 0000.0001) %MON forcing_qnet_mean            =  -1.3938679066518E+02
(PID.TID 0000.0001) %MON forcing_qnet_sd              =   6.9735625304785E+02
(PID.TID 0000.0001) %MON forcing_qnet_del2            =   2.2595265997916E+01
(PID.TID 0000.0001) %MON forcing_qsw_max              =   0.0000000000000E+00
(PID.TID 0000.0001) %MON forcing_qsw_min              =  -1.0456628515761E+02
(PID.TID 0000.0001) %MON forcing_qsw_mean             =  -2.1863615471287E+01
(PID.TID 0000.0001) %MON forcing_qsw_sd               =   2.9777938789761E+01
(PID.TID 0000.0001) %MON forcing_qsw_del2             =   2.2400413269475E-01
(PID.TID 0000.0001) %MON forcing_empmr_max            =   4.1834603995085E-02
(PID.TID 0000.0001) %MON forcing_empmr_min            =  -3.2989573478699E-01
(PID.TID 0000.0001) %MON forcing_empmr_mean           =  -5.3571454797682E-04
(PID.TID 0000.0001) %MON forcing_empmr_sd             =   8.7284957180160E-03
(PID.TID 0000.0001) %MON forcing_empmr_del2           =   3.5100204025144E-04
(PID.TID 0000.0001) %MON forcing_fu_max               =   6.5935939542211E-01
(PID.TID 0000.0001) %MON forcing_fu_min               =  -3.9724912925302E-01
(PID.TID 0000.0001) %MON forcing_fu_mean              =  -5.2615854873140E-03
(PID.TID 0000.0001) %MON forcing_fu_sd                =   7.6244385660204E-02
(PID.TID 0000.0001) %MON forcing_fu_del2              =   7.7747814281040E-04
(PID.TID 0000.0001) %MON forcing_fv_max               =   3.5884818866155E-01
(PID.TID 0000.0001) %MON forcing_fv_min               =  -3.3687852608877E-01
(PID.TID 0000.0001) %MON forcing_fv_mean              =  -1.3295556611307E-02
(PID.TID 0000.0001) %MON forcing_fv_sd                =   7.4317114189190E-02
(PID.TID 0000.0001) %MON forcing_fv_del2              =   6.5556447586058E-04
(PID.TID 0000.0001) %MON trAdv_CFL_u_max              =   5.5813949103136E-03
(PID.TID 0000.0001) %MON trAdv_CFL_v_max              =   7.9940762129492E-03
(PID.TID 0000.0001) %MON trAdv_CFL_w_max              =   7.0564507178810E-03
(PID.TID 0000.0001) %MON advcfl_uvel_max              =   5.8150820366927E-03
(PID.TID 0000.0001) %MON advcfl_vvel_max              =   4.4885988186740E-03
(PID.TID 0000.0001) %MON advcfl_wvel_max              =   1.1474634253460E-02
(PID.TID 0000.0001) %MON advcfl_W_hf_max              =   7.0564507178810E-03
(PID.TID 0000.0001) %MON pe_b_mean                    =   5.1192520690104E-04
(PID.TID 0000.0001) %MON ke_max                       =   1.4347141105087E+00
(PID.TID 0000.0001) %MON ke_mean                      =   1.8144411486346E-04
(PID.TID 0000.0001) %MON ke_vol                       =   1.3398067494645E+18
(PID.TID 0000.0001) %MON vort_r_min                   =  -4.9437859419358E-06
(PID.TID 0000.0001) %MON vort_r_max                   =   4.4071301111961E-06
(PID.TID 0000.0001) %MON vort_a_mean                  =  -2.0549865324846E-05
(PID.TID 0000.0001) %MON vort_a_sd                    =   7.5259527927557E-05
(PID.TID 0000.0001) %MON vort_p_mean                  =  -2.4783401582720E-05
(PID.TID 0000.0001) %MON vort_p_sd                    =   1.2811934055532E-04
(PID.TID 0000.0001) %MON surfExpan_theta_mean         =  -7.8959895847051E-06
(PID.TID 0000.0001) %MON surfExpan_salt_mean          =   1.3139237987622E-06
(PID.TID 0000.0001) // =======================================================
(PID.TID 0000.0001) // End MONITOR dynamic field statistics
(PID.TID 0000.0001) // =======================================================
 cg2d: Sum(rhs),rhsMax =  -1.16119090751568E+01  9.44702198237898E+01
(PID.TID 0000.0001)      cg2d_init_res =   3.47237951269953E-01
(PID.TID 0000.0001)      cg2d_iters(min,last) =      -1      10
(PID.TID 0000.0001)      cg2d_last_res =   2.26447953568342E-08
(PID.TID 0000.0001) // =======================================================
(PID.TID 0000.0001) // Begin MONITOR dynamic field statistics
(PID.TID 0000.0001) // =======================================================
(PID.TID 0000.0001) %MON time_tsnumber                =                 72009
(PID.TID 0000.0001) %MON time_secondsf                =   6.4808100000000E+07
(PID.TID 0000.0001) %MON dynstat_eta_max              =   4.4361452077012E+00
(PID.TID 0000.0001) %MON dynstat_eta_min              =  -2.6956130671021E+00
(PID.TID 0000.0001) %MON dynstat_eta_mean             =   1.2746757558414E-02
(PID.TID 0000.0001) %MON dynstat_eta_sd               =   6.1688683257661E-01
(PID.TID 0000.0001) %MON dynstat_eta_del2             =   3.0158872660787E-03
(PID.TID 0000.0001) %MON dynstat_uvel_max             =   1.8473245198430E+00
(PID.TID 0000.0001) %MON dynstat_uvel_min             =  -8.9334267997357E-01
(PID.TID 0000.0001) %MON dynstat_uvel_mean            =  -2.4530858750240E-04
(PID.TID 0000.0001) %MON dynstat_uvel_sd              =   1.3942984116411E-02
(PID.TID 0000.0001) %MON dynstat_uvel_del2            =   1.4128548095609E-04
(PID.TID 0000.0001) %MON dynstat_vvel_max             =   1.3853108257497E+00
(PID.TID 0000.0001) %MON dynstat_vvel_min             =  -1.5711774301234E+00
(PID.TID 0000.0001) %MON dynstat_vvel_mean            =  -3.8919688887468E-04
(PID.TID 0000.0001) %MON dynstat_vvel_sd              =   1.4300908417887E-02
(PID.TID 0000.0001) %MON dynstat_vvel_del2            =   1.8806539623056E-04
(PID.TID 0000.0001) %MON dynstat_wvel_max             =   1.0399171285509E-04
(PID.TID 0000.0001) %MON dynstat_wvel_min             =  -5.5476216175202E-04
(PID.TID 0000.0001) %MON dynstat_wvel_mean            =  -4.6454301183022E-07
(PID.TID 0000.0001) %MON dynstat_wvel_sd              =   8.9363777723445E-06
(PID.TID 0000.0001) %MON dynstat_wvel_del2            =   8.3745547098408E-08
(PID.TID 0000.0001) %MON dynstat_theta_max            =   3.0923893003766E+01
(PID.TID 0000.0001) %MON dynstat_theta_min            =  -3.0116903850823E+00
(PID.TID 0000.0001) %MON dynstat_theta_mean           =   3.9090127352451E+00
(PID.TID 0000.0001) %MON dynstat_theta_sd             =   4.5709000648679E+00
(PID.TID 0000.0001) %MON dynstat_theta_del2           =   2.6502566990295E-03
(PID.TID 0000.0001) %MON dynstat_salt_max             =   4.1371845295209E+01
(PID.TID 0000.0001) %MON dynstat_salt_min             =   1.8518461582419E+01
(PID.TID 0000.0001) %MON dynstat_salt_mean            =   3.4772141900555E+01
(PID.TID 0000.0001) %MON dynstat_salt_sd              =   5.3103564149261E-01
(PID.TID 0000.0001) %MON dynstat_salt_del2            =   8.1923599188118E-04
(PID.TID 0000.0001) %MON dynstat_sst_max              =   3.0923893003766E+01
(PID.TID 0000.0001) %MON dynstat_sst_min              =  -1.8996380639172E+00
(PID.TID 0000.0001) %MON dynstat_sst_mean             =   1.8103647023790E+01
(PID.TID 0000.0001) %MON dynstat_sst_sd               =   9.8031894950281E+00
(PID.TID 0000.0001) %MON dynstat_sst_del2             =   1.5215570314556E-02
(PID.TID 0000.0001) %MON dynstat_sss_max              =   4.1371845295209E+01
(PID.TID 0000.0001) %MON dynstat_sss_min              =   1.8751378681639E+01
(PID.TID 0000.0001) %MON dynstat_sss_mean             =   3.4637998583069E+01
(PID.TID 0000.0001) %MON dynstat_sss_sd               =   1.4594732418377E+00
(PID.TID 0000.0001) %MON dynstat_sss_del2             =   8.2703396632281E-03
(PID.TID 0000.0001) %MON forcing_qnet_max             =   1.5001815429688E+04
(PID.TID 0000.0001) %MON forcing_qnet_min             =  -1.0491660156250E+04
(PID.TID 0000.0001) %MON forcing_qnet_mean            =  -1.2992155983704E+02
(PID.TID 0000.0001) %MON forcing_qnet_sd              =   6.4612058176411E+02
(PID.TID 0000.0001) %MON forcing_qnet_del2            =   2.0060848783802E+01
(PID.TID 0000.0001) %MON forcing_qsw_max              =   0.0000000000000E+00
(PID.TID 0000.0001) %MON forcing_qsw_min              =  -1.0792524898255E+02
(PID.TID 0000.0001) %MON forcing_qsw_mean             =  -2.2325965036661E+01
(PID.TID 0000.0001) %MON forcing_qsw_sd               =   3.0352128534393E+01
(PID.TID 0000.0001) %MON forcing_qsw_del2             =   2.2559152095454E-01
(PID.TID 0000.0001) %MON forcing_empmr_max            =   3.6621022969484E-02
(PID.TID 0000.0001) %MON forcing_empmr_min            =  -2.9141253232956E-01
(PID.TID 0000.0001) %MON forcing_empmr_mean           =  -5.2070033731891E-04
(PID.TID 0000.0001) %MON forcing_empmr_sd             =   8.2958937780822E-03
(PID.TID 0000.0001) %MON forcing_empmr_del2           =   3.3466430401000E-04
(PID.TID 0000.0001) %MON forcing_fu_max               =   6.8021695105666E-01
(PID.TID 0000.0001) %MON forcing_fu_min               =  -4.2460313789240E-01
(PID.TID 0000.0001) %MON forcing_fu_mean              =  -5.3192382704956E-03
(PID.TID 0000.0001) %MON forcing_fu_sd                =   7.6400435442098E-02
(PID.TID 0000.0001) %MON forcing_fu_del2              =   7.8028165266360E-04
(PID.TID 0000.0001) %MON forcing_fv_max               =   3.5504348528760E-01
(PID.TID 0000.0001) %MON forcing_fv_min               =  -3.2619391867678E-01
(PID.TID 0000.0001) %MON forcing_fv_mean              =  -1.3071131290116E-02
(PID.TID 0000.0001) %MON forcing_fv_sd                =   7.4680807379911E-02
(PID.TID 0000.0001) %MON forcing_fv_del2              =   6.5756118865396E-04
(PID.TID 0000.0001) %MON trAdv_CFL_u_max              =   5.9426117540324E-03
(PID.TID 0000.0001) %MON trAdv_CFL_v_max              =   8.4159536553622E-03
(PID.TID 0000.0001) %MON trAdv_CFL_w_max              =   7.1133643271589E-03
(PID.TID 0000.0001) %MON advcfl_uvel_max              =   6.1603961690420E-03
(PID.TID 0000.0001) %MON advcfl_vvel_max              =   4.7084564599965E-03
(PID.TID 0000.0001) %MON advcfl_wvel_max              =   1.0136088081028E-02
(PID.TID 0000.0001) %MON advcfl_W_hf_max              =   7.1133643271589E-03
(PID.TID 0000.0001) %MON pe_b_mean                    =   5.0717683684590E-04
(PID.TID 0000.0001) %MON ke_max                       =   1.5840879292127E+00
(PID.TID 0000.0001) %MON ke_mean                      =   1.8429162555797E-04
(PID.TID 0000.0001) %MON ke_vol                       =   1.3398069189771E+18
(PID.TID 0000.0001) %MON vort_r_min                   =  -5.1859392642321E-06
(PID.TID 0000.0001) %MON vort_r_max                   =   4.4539015766723E-06
(PID.TID 0000.0001) %MON vort_a_mean                  =  -2.0549865324846E-05
(PID.TID 0000.0001) %MON vort_a_sd                    =   7.5259527030670E-05
(PID.TID 0000.0001) %MON vort_p_mean                  =  -2.4783397062030E-05
(PID.TID 0000.0001) %MON vort_p_sd                    =   1.2811929120528E-04
(PID.TID 0000.0001) %MON surfExpan_theta_mean         =  -7.8847281010001E-06
(PID.TID 0000.0001) %MON surfExpan_salt_mean          =   1.4042668133852E-06
(PID.TID 0000.0001) // =======================================================
(PID.TID 0000.0001) // End MONITOR dynamic field statistics
(PID.TID 0000.0001) // =======================================================
 cg2d: Sum(rhs),rhsMax =  -1.43743738102129E+01  7.89615540974270E+01
(PID.TID 0000.0001)      cg2d_init_res =   4.08972866537726E-01
(PID.TID 0000.0001)      cg2d_iters(min,last) =      -1      10
(PID.TID 0000.0001)      cg2d_last_res =   2.82541040217328E-08
(PID.TID 0000.0001) // =======================================================
(PID.TID 0000.0001) // Begin MONITOR dynamic field statistics
(PID.TID 0000.0001) // =======================================================
(PID.TID 0000.0001) %MON time_tsnumber                =                 72010
(PID.TID 0000.0001) %MON time_secondsf                =   6.4809000000000E+07
(PID.TID 0000.0001) %MON dynstat_eta_max              =   3.7126092035302E+00
(PID.TID 0000.0001) %MON dynstat_eta_min              =  -2.3912703355941E+00
(PID.TID 0000.0001) %MON dynstat_eta_mean             =   1.3188815571839E-02
(PID.TID 0000.0001) %MON dynstat_eta_sd               =   6.1446492167643E-01
(PID.TID 0000.0001) %MON dynstat_eta_del2             =   2.6888943046936E-03
(PID.TID 0000.0001) %MON dynstat_uvel_max             =   1.9245965138120E+00
(PID.TID 0000.0001) %MON dynstat_uvel_min             =  -9.2961701074761E-01
(PID.TID 0000.0001) %MON dynstat_uvel_mean            =  -2.1647953975943E-04
(PID.TID 0000.0001) %MON dynstat_uvel_sd              =   1.4071949845460E-02
(PID.TID 0000.0001) %MON dynstat_uvel_del2            =   1.4307425951242E-04
(PID.TID 0000.0001) %MON dynstat_vvel_max             =   1.3922655811903E+00
(PID.TID 0000.0001) %MON dynstat_vvel_min             =  -1.6146572687955E+00
(PID.TID 0000.0001) %MON dynstat_vvel_mean            =  -3.9735494424814E-04
(PID.TID 0000.0001) %MON dynstat_vvel_sd              =   1.4332579896883E-02
(PID.TID 0000.0001) %MON dynstat_vvel_del2            =   1.8554694042082E-04
(PID.TID 0000.0001) %MON dynstat_wvel_max             =   1.0416670321939E-04
(PID.TID 0000.0001) %MON dynstat_wvel_min             =  -5.5014119831414E-04
(PID.TID 0000.0001) %MON dynstat_wvel_mean            =  -4.6608243561815E-07
(PID.TID 0000.0001) %MON dynstat_wvel_sd              =   8.6968889037095E-06
(PID.TID 0000.0001) %MON dynstat_wvel_del2            =   8.1460884126016E-08
(PID.TID 0000.0001) %MON dynstat_theta_max            =   3.0923665546642E+01
(PID.TID 0000.0001) %MON dynstat_theta_min            =  -3.0112888998531E+00
(PID.TID 0000.0001) %MON dynstat_theta_mean           =   3.9090223327263E+00
(PID.TID 0000.0001) %MON dynstat_theta_sd             =   4.5709389961451E+00
(PID.TID 0000.0001) %MON dynstat_theta_del2           =   2.6498278989143E-03
(PID.TID 0000.0001) %MON dynstat_salt_max             =   4.1370901605781E+01
(PID.TID 0000.0001) %MON dynstat_salt_min             =   1.8518471201778E+01
(PID.TID 0000.0001) %MON dynstat_salt_mean            =   3.4772135178142E+01
(PID.TID 0000.0001) %MON dynstat_salt_sd              =   5.3105256957702E-01
(PID.TID 0000.0001) %MON dynstat_salt_del2            =   8.2306643594471E-04
(PID.TID 0000.0001) %MON dynstat_sst_max              =   3.0923665546642E+01
(PID.TID 0000.0001) %MON dynstat_sst_min              =  -1.8996044645281E+00
(PID.TID 0000.0001) %MON dynstat_sst_mean             =   1.8104169448949E+01
(PID.TID 0000.0001) %MON dynstat_sst_sd               =   9.8036075742795E+00
(PID.TID 0000.0001) %MON dynstat_sst_del2             =   1.5204424765963E-02
(PID.TID 0000.0001) %MON dynstat_sss_max              =   4.1370901605781E+01
(PID.TID 0000.0001) %MON dynstat_sss_min              =   1.8751379169105E+01
(PID.TID 0000.0001) %MON dynstat_sss_mean             =   3.4637517103920E+01
(PID.TID 0000.0001) %MON dynstat_sss_sd               =   1.4598810635903E+00
(PID.TID 0000.0001) %MON dynstat_sss_del2             =   8.3299581940251E-03
(PID.TID 0000.0001) %MON forcing_qnet_max             =   9.1080439453125E+03
(PID.TID 0000.0001) %MON forcing_qnet_min             =  -1.3518057617188E+04
(PID.TID 0000.0001) %MON forcing_qnet_mean            =  -1.1900042578087E+02
(PID.TID 0000.0001) %MON forcing_qnet_sd              =   6.0300238807015E+02
(PID.TID 0000.0001) %MON forcing_qnet_del2            =   1.8771811554043E+01
(PID.TID 0000.0001) %MON forcing_qsw_max              =   0.0000000000000E+00
(PID.TID 0000.0001) %MON forcing_qsw_min              =  -1.0711185009897E+02
(PID.TID 0000.0001) %MON forcing_qsw_mean             =  -2.2236859740788E+01
(PID.TID 0000.0001) %MON forcing_qsw_sd               =   3.0300701499226E+01
(PID.TID 0000.0001) %MON forcing_qsw_del2             =   2.2696381892523E-01
(PID.TID 0000.0001) %MON forcing_empmr_max            =   2.8469311073422E-02
(PID.TID 0000.0001) %MON forcing_empmr_min            =  -2.6056745648384E-01
(PID.TID 0000.0001) %MON forcing_empmr_mean           =  -5.0836671543864E-04
(PID.TID 0000.0001) %MON forcing_empmr_sd             =   7.9515451995391E-03
(PID.TID 0000.0001) %MON forcing_empmr_del2           =   3.2137249835984E-04
(PID.TID 0000.0001) %MON forcing_fu_max               =   6.9343393297762E-01
(PID.TID 0000.0001) %MON forcing_fu_min               =  -4.4969008239250E-01
(PID.TID 0000.0001) %MON forcing_fu_mean              =  -5.3036821805114E-03
(PID.TID 0000.0001) %MON forcing_fu_sd                =   7.6490666843645E-02
(PID.TID 0000.0001) %MON forcing_fu_del2              =   7.8305776177039E-04
(PID.TID 0000.0001) %MON forcing_fv_max               =   3.6339762048317E-01
(PID.TID 0000.0001) %MON forcing_fv_min               =  -3.3074016934936E-01
(PID.TID 0000.0001) %MON forcing_fv_mean              =  -1.2778309560509E-02
(PID.TID 0000.0001) %MON forcing_fv_sd                =   7.5056465448421E-02
(PID.TID 0000.0001) %MON forcing_fv_del2              =   6.6036462292754E-04
(PID.TID 0000.0001) %MON trAdv_CFL_u_max              =   6.2204773603018E-03
(PID.TID 0000.0001) %MON trAdv_CFL_v_max              =   8.6889660913616E-03
(PID.TID 0000.0001) %MON trAdv_CFL_w_max              =   7.0544927721900E-03
(PID.TID 0000.0001) %MON advcfl_uvel_max              =   6.4180802361928E-03
(PID.TID 0000.0001) %MON advcfl_vvel_max              =   4.8387555104730E-03
(PID.TID 0000.0001) %MON advcfl_wvel_max              =   9.0632158776988E-03
(PID.TID 0000.0001) %MON advcfl_W_hf_max              =   7.0544927721900E-03
(PID.TID 0000.0001) %MON pe_b_mean                    =   5.0321918792808E-04
(PID.TID 0000.0001) %MON ke_max                       =   1.6815526950268E+00
(PID.TID 0000.0001) %MON ke_mean                      =   1.8636932071327E-04
(PID.TID 0000.0001) %MON ke_vol                       =   1.3398070837388E+18
(PID.TID 0000.0001) %MON vort_r_min                   =  -5.6709584792835E-06
(PID.TID 0000.0001) %MON vort_r_max                   =   4.3924138319047E-06
(PID.TID 0000.0001) %MON vort_a_mean                  =  -2.0549865324846E-05
(PID.TID 0000.0001) %MON vort_a_sd                    =   7.5259525747335E-05
(PID.TID 0000.0001) %MON vort_p_mean                  =  -2.4783392684536E-05
(PID.TID 0000.0001) %MON vort_p_sd                    =   1.2811924738951E-04
(PID.TID 0000.0001) %MON surfExpan_theta_mean         =  -7.8373210485169E-06
(PID.TID 0000.0001) %MON surfExpan_salt_mean          =   1.4773660327834E-06
(PID.TID 0000.0001) // =======================================================
(PID.TID 0000.0001) // End MONITOR dynamic field statistics
(PID.TID 0000.0001) // =======================================================
 cg2d: Sum(rhs),rhsMax =  -1.84853036464138E+01  6.34234383749503E+01
(PID.TID 0000.0001)      cg2d_init_res =   5.05675701448122E-01
(PID.TID 0000.0001)      cg2d_iters(min,last) =      -1      10
(PID.TID 0000.0001)      cg2d_last_res =   4.03275062035946E-08
(PID.TID 0000.0001) // =======================================================
(PID.TID 0000.0001) // Begin MONITOR dynamic field statistics
(PID.TID 0000.0001) // =======================================================
(PID.TID 0000.0001) %MON time_tsnumber                =                 72011
(PID.TID 0000.0001) %MON time_secondsf                =   6.4809900000000E+07
(PID.TID 0000.0001) %MON dynstat_eta_max              =   2.9873739557543E+00
(PID.TID 0000.0001) %MON dynstat_eta_min              =  -1.8627283984657E+00
(PID.TID 0000.0001) %MON dynstat_eta_mean             =   1.3623150197532E-02
(PID.TID 0000.0001) %MON dynstat_eta_sd               =   6.1261226802165E-01
(PID.TID 0000.0001) %MON dynstat_eta_del2             =   2.5012892610266E-03
(PID.TID 0000.0001) %MON dynstat_uvel_max             =   1.9766749093372E+00
(PID.TID 0000.0001) %MON dynstat_uvel_min             =  -9.5580999459020E-01
(PID.TID 0000.0001) %MON dynstat_uvel_mean            =  -1.8914824891082E-04
(PID.TID 0000.0001) %MON dynstat_uvel_sd              =   1.4172710561433E-02
(PID.TID 0000.0001) %MON dynstat_uvel_del2            =   1.4360615970086E-04
(PID.TID 0000.0001) %MON dynstat_vvel_max             =   1.3708941938639E+00
(PID.TID 0000.0001) %MON dynstat_vvel_min             =  -1.6284525084600E+00
(PID.TID 0000.0001) %MON dynstat_vvel_mean            =  -4.0579345083164E-04
(PID.TID 0000.0001) %MON dynstat_vvel_sd              =   1.4324627383704E-02
(PID.TID 0000.0001) %MON dynstat_vvel_del2            =   1.8046959049236E-04
(PID.TID 0000.0001) %MON dynstat_wvel_max             =   1.0433880399236E-04
(PID.TID 0000.0001) %MON dynstat_wvel_min             =  -5.3852372946553E-04
(PID.TID 0000.0001) %MON dynstat_wvel_mean            =  -4.6168092865590E-07
(PID.TID 0000.0001) %MON dynstat_wvel_sd              =   8.5966380546631E-06
(PID.TID 0000.0001) %MON dynstat_wvel_del2            =   8.0094128068842E-08
(PID.TID 0000.0001) %MON dynstat_theta_max            =   3.0923445074667E+01
(PID.TID 0000.0001) %MON dynstat_theta_min            =  -3.0109677394193E+00
(PID.TID 0000.0001) %MON dynstat_theta_mean           =   3.9090308707263E+00
(PID.TID 0000.0001) %MON dynstat_theta_sd             =   4.5709746485457E+00
(PID.TID 0000.0001) %MON dynstat_theta_del2           =   2.6493608057836E-03
(PID.TID 0000.0001) %MON dynstat_salt_max             =   4.1369943950416E+01
(PID.TID 0000.0001) %MON dynstat_salt_min             =   1.8518480877352E+01
(PID.TID 0000.0001) %MON dynstat_salt_mean            =   3.4772128514696E+01
(PID.TID 0000.0001) %MON dynstat_salt_sd              =   5.3106981807791E-01
(PID.TID 0000.0001) %MON dynstat_salt_del2            =   8.2713317317769E-04
(PID.TID 0000.0001) %MON dynstat_sst_max              =   3.0923445074667E+01
(PID.TID 0000.0001) %MON dynstat_sst_min              =  -1.8995729919625E+00
(PID.TID 0000.0001) %MON dynstat_sst_mean             =   1.8104605373753E+01
(PID.TID 0000.0001) %MON dynstat_sst_sd               =   9.8040303747139E+00
(PID.TID 0000.0001) %MON dynstat_sst_del2             =   1.5192389023969E-02
(PID.TID 0000.0001) %MON dynstat_sss_max              =   4.1369943950416E+01
(PID.TID 0000.0001) %MON dynstat_sss_min              =   1.8751379928625E+01
(PID.TID 0000.0001) %MON dynstat_sss_mean             =   3.4637035976807E+01
(PID.TID 0000.0001) %MON dynstat_sss_sd               =   1.4602948903252E+00
(PID.TID 0000.0001) %MON dynstat_sss_del2             =   8.3931270105811E-03
(PID.TID 0000.0001) %MON forcing_qnet_max             =   9.3288281250000E+03
(PID.TID 0000.0001) %MON forcing_qnet_min             =  -6.6521274414062E+03
(PID.TID 0000.0001) %MON forcing_qnet_mean            =  -1.0189309840329E+02
(PID.TID 0000.0001) %MON forcing_qnet_sd              =   5.6210052182467E+02
(PID.TID 0000.0001) %MON forcing_qnet_del2            =   1.6694809375188E+01
(PID.TID 0000.0001) %MON forcing_qsw_max              =   0.0000000000000E+00
(PID.TID 0000.0001) %MON forcing_qsw_min              =  -1.0735576201906E+02
(PID.TID 0000.0001) %MON forcing_qsw_mean             =  -2.2079315376220E+01
(PID.TID 0000.0001) %MON forcing_qsw_sd               =   3.0192049639309E+01
(PID.TID 0000.0001) %MON forcing_qsw_del2             =   2.2815003129909E-01
(PID.TID 0000.0001) %MON forcing_empmr_max            =   1.6650136560202E-02
(PID.TID 0000.0001) %MON forcing_empmr_min            =  -2.3731185495853E-01
(PID.TID 0000.0001) %MON forcing_empmr_mean           =  -4.9948481954755E-04
(PID.TID 0000.0001) %MON forcing_empmr_sd             =   7.6814039281770E-03
(PID.TID 0000.0001) %MON forcing_empmr_del2           =   3.1089766342091E-04
(PID.TID 0000.0001) %MON forcing_fu_max               =   6.9902639191590E-01
(PID.TID 0000.0001) %MON forcing_fu_min               =  -4.6213600857746E-01
(PID.TID 0000.0001) %MON forcing_fu_mean              =  -5.2131074117458E-03
(PID.TID 0000.0001) %MON forcing_fu_sd                =   7.6347621224944E-02
(PID.TID 0000.0001) %MON forcing_fu_del2              =   7.8372967144272E-04
(PID.TID 0000.0001) %MON forcing_fv_max               =   3.6008524085475E-01
(PID.TID 0000.0001) %MON forcing_fv_min               =  -3.3667312468743E-01
(PID.TID 0000.0001) %MON forcing_fv_mean              =  -1.2524128347048E-02
(PID.TID 0000.0001) %MON forcing_fv_sd                =   7.5126408249958E-02
(PID.TID 0000.0001) %MON forcing_fv_del2              =   6.6246222381794E-04
(PID.TID 0000.0001) %MON trAdv_CFL_u_max              =   6.4166112925033E-03
(PID.TID 0000.0001) %MON trAdv_CFL_v_max              =   8.8121641695731E-03
(PID.TID 0000.0001) %MON trAdv_CFL_w_max              =   6.9070456383754E-03
(PID.TID 0000.0001) %MON advcfl_uvel_max              =   6.5917495318888E-03
(PID.TID 0000.0001) %MON advcfl_vvel_max              =   4.8800966627005E-03
(PID.TID 0000.0001) %MON advcfl_wvel_max              =   8.2543253898621E-03
(PID.TID 0000.0001) %MON advcfl_W_hf_max              =   6.9070456383754E-03
(PID.TID 0000.0001) %MON pe_b_mean                    =   5.0020613105441E-04
(PID.TID 0000.0001) %MON ke_max                       =   1.7226649064702E+00
(PID.TID 0000.0001) %MON ke_mean                      =   1.8756920906374E-04
(PID.TID 0000.0001) %MON ke_vol                       =   1.3398072445978E+18
(PID.TID 0000.0001) %MON vort_r_min                   =  -6.3615268876555E-06
(PID.TID 0000.0001) %MON vort_r_max                   =   4.2290049975524E-06
(PID.TID 0000.0001) %MON vort_a_mean                  =  -2.0549865324846E-05
(PID.TID 0000.0001) %MON vort_a_sd                    =   7.5259524188710E-05
(PID.TID 0000.0001) %MON vort_p_mean                  =  -2.4783388456939E-05
(PID.TID 0000.0001) %MON vort_p_sd                    =   1.2811920998267E-04
(PID.TID 0000.0001) %MON surfExpan_theta_mean         =  -7.7854672298277E-06
(PID.TID 0000.0001) %MON surfExpan_salt_mean          =   1.5342685864748E-06
(PID.TID 0000.0001) // =======================================================
(PID.TID 0000.0001) // End MONITOR dynamic field statistics
(PID.TID 0000.0001) // =======================================================
 Computing Diagnostic #     81  oceTAUX      Counter:       1   Parms: UU      U1      
           Vector  Mate for  oceTAUX      Diagnostic #     82  oceTAUY  exists 
 Computing Diagnostic #     82  oceTAUY      Counter:       1   Parms: VV      U1      
           Vector  Mate for  oceTAUY      Diagnostic #     81  oceTAUX  exists 
 Computing Diagnostic #     85  oceFWflx     Counter:       1   Parms: SM      U1      
 Computing Diagnostic #     86  oceSflux     Counter:       1   Parms: SM      U1      
 Computing Diagnostic #     87  oceQnet      Counter:       1   Parms: SM      U1      
 Computing Diagnostic #     88  oceQsw       Counter:       1   Parms: SM      U1      
 Computing Diagnostic #     27  SALT         Counter:       1   Parms: SMR     MR      
 Computing Diagnostic #     26  THETA        Counter:       1   Parms: SMR     MR      
 Computing Diagnostic #     45  UVELMASS     Counter:       1   Parms: UUr     MR      
           Vector  Mate for  UVELMASS     Diagnostic #     46  VVELMASS exists 
 Computing Diagnostic #     46  VVELMASS     Counter:       1   Parms: VVr     MR      
           Vector  Mate for  VVELMASS     Diagnostic #     45  UVELMASS exists 
 cg2d: Sum(rhs),rhsMax =  -1.93713958827921E+01  6.24289960996855E+01
(PID.TID 0000.0001)      cg2d_init_res =   5.08668176105642E-01
(PID.TID 0000.0001)      cg2d_iters(min,last) =      -1      10
(PID.TID 0000.0001)      cg2d_last_res =   5.02744679797972E-08
(PID.TID 0000.0001) // =======================================================
(PID.TID 0000.0001) // Begin MONITOR dynamic field statistics
(PID.TID 0000.0001) // =======================================================
(PID.TID 0000.0001) %MON time_tsnumber                =                 72012
(PID.TID 0000.0001) %MON time_secondsf                =   6.4810800000000E+07
(PID.TID 0000.0001) %MON dynstat_eta_max              =   2.8695207419479E+00
(PID.TID 0000.0001) %MON dynstat_eta_min              =  -1.6139659865561E+00
(PID.TID 0000.0001) %MON dynstat_eta_mean             =   1.4052333270304E-02
(PID.TID 0000.0001) %MON dynstat_eta_sd               =   6.1143153591676E-01
(PID.TID 0000.0001) %MON dynstat_eta_del2             =   2.4498355062337E-03
(PID.TID 0000.0001) %MON dynstat_uvel_max             =   2.0047460419365E+00
(PID.TID 0000.0001) %MON dynstat_uvel_min             =  -9.7213065165842E-01
(PID.TID 0000.0001) %MON dynstat_uvel_mean            =  -1.6313030185276E-04
(PID.TID 0000.0001) %MON dynstat_uvel_sd              =   1.4233769999370E-02
(PID.TID 0000.0001) %MON dynstat_uvel_del2            =   1.4293068449100E-04
(PID.TID 0000.0001) %MON dynstat_vvel_max             =   1.3425883826069E+00
(PID.TID 0000.0001) %MON dynstat_vvel_min             =  -1.6133386040758E+00
(PID.TID 0000.0001) %MON dynstat_vvel_mean            =  -4.1376482619332E-04
(PID.TID 0000.0001) %MON dynstat_vvel_sd              =   1.4280841923342E-02
(PID.TID 0000.0001) %MON dynstat_vvel_del2            =   1.7338579702200E-04
(PID.TID 0000.0001) %MON dynstat_wvel_max             =   1.0452397448938E-04
(PID.TID 0000.0001) %MON dynstat_wvel_min             =  -5.3614150416720E-04
(PID.TID 0000.0001) %MON dynstat_wvel_mean            =  -4.5341979364868E-07
(PID.TID 0000.0001) %MON dynstat_wvel_sd              =   8.5746303221199E-06
(PID.TID 0000.0001) %MON dynstat_wvel_del2            =   7.9560980287136E-08
(PID.TID 0000.0001) %MON dynstat_theta_max            =   3.0923231578403E+01
(PID.TID 0000.0001) %MON dynstat_theta_min            =  -3.0106812393633E+00
(PID.TID 0000.0001) %MON dynstat_theta_mean           =   3.9090385994775E+00
(PID.TID 0000.0001) %MON dynstat_theta_sd             =   4.5710078696957E+00
(PID.TID 0000.0001) %MON dynstat_theta_del2           =   2.6489433630618E-03
(PID.TID 0000.0001) %MON dynstat_salt_max             =   4.1368983830176E+01
(PID.TID 0000.0001) %MON dynstat_salt_min             =   1.8518490610404E+01
(PID.TID 0000.0001) %MON dynstat_salt_mean            =   3.4772121992866E+01
(PID.TID 0000.0001) %MON dynstat_salt_sd              =   5.3108740263776E-01
(PID.TID 0000.0001) %MON dynstat_salt_del2            =   8.3143146242100E-04
(PID.TID 0000.0001) %MON dynstat_sst_max              =   3.0923231578403E+01
(PID.TID 0000.0001) %MON dynstat_sst_min              =  -1.8995424523155E+00
(PID.TID 0000.0001) %MON dynstat_sst_mean             =   1.8104985108736E+01
(PID.TID 0000.0001) %MON dynstat_sst_sd               =   9.8044548768258E+00
(PID.TID 0000.0001) %MON dynstat_sst_del2             =   1.5180967882608E-02
(PID.TID 0000.0001) %MON dynstat_sss_max              =   4.1368983830176E+01
(PID.TID 0000.0001) %MON dynstat_sss_min              =   1.8751380799346E+01
(PID.TID 0000.0001) %MON dynstat_sss_mean             =   3.4636564428971E+01
(PID.TID 0000.0001) %MON dynstat_sss_sd               =   1.4607189008597E+00
(PID.TID 0000.0001) %MON dynstat_sss_del2             =   8.4596702464051E-03
(PID.TID 0000.0001) %MON forcing_qnet_max             =   9.9324482421875E+03
(PID.TID 0000.0001) %MON forcing_qnet_min             =  -5.7928315429688E+03
(PID.TID 0000.0001) %MON forcing_qnet_mean            =  -8.8868802766884E+01
(PID.TID 0000.0001) %MON forcing_qnet_sd              =   5.5831741054363E+02
(PID.TID 0000.0001) %MON forcing_qnet_del2            =   1.6394178642210E+01
(PID.TID 0000.0001) %MON forcing_qsw_max              =   0.0000000000000E+00
(PID.TID 0000.0001) %MON forcing_qsw_min              =  -1.0752540613242E+02
(PID.TID 0000.0001) %MON forcing_qsw_mean             =  -2.1856754787716E+01
(PID.TID 0000.0001) %MON forcing_qsw_sd               =   3.0025919726675E+01
(PID.TID 0000.0001) %MON forcing_qsw_del2             =   2.2913487276897E-01
(PID.TID 0000.0001) %MON forcing_empmr_max            =   1.3263512402773E-02
(PID.TID 0000.0001) %MON forcing_empmr_min            =  -2.2179701924324E-01
(PID.TID 0000.0001) %MON forcing_empmr_mean           =  -4.9356053368725E-04
(PID.TID 0000.0001) %MON forcing_empmr_sd             =   7.4892705379410E-03
(PID.TID 0000.0001) %MON forcing_empmr_del2           =   3.0347018179233E-04
(PID.TID 0000.0001) %MON forcing_fu_max               =   7.0523332074334E-01
(PID.TID 0000.0001) %MON forcing_fu_min               =  -4.6729684003206E-01
(PID.TID 0000.0001) %MON forcing_fu_mean              =  -5.1028649734188E-03
(PID.TID 0000.0001) %MON forcing_fu_sd                =   7.6224714521195E-02
(PID.TID 0000.0001) %MON forcing_fu_del2              =   7.8536018085680E-04
(PID.TID 0000.0001) %MON forcing_fv_max               =   3.5465519663855E-01
(PID.TID 0000.0001) %MON forcing_fv_min               =  -3.4077230897918E-01
(PID.TID 0000.0001) %MON forcing_fv_mean              =  -1.2342563938496E-02
(PID.TID 0000.0001) %MON forcing_fv_sd                =   7.4909325249376E-02
(PID.TID 0000.0001) %MON forcing_fv_del2              =   6.6237571303134E-04
(PID.TID 0000.0001) %MON trAdv_CFL_u_max              =   6.5334192183451E-03
(PID.TID 0000.0001) %MON trAdv_CFL_v_max              =   8.7866657743672E-03
(PID.TID 0000.0001) %MON trAdv_CFL_w_max              =   6.6958730865534E-03
(PID.TID 0000.0001) %MON advcfl_uvel_max              =   6.6853602082308E-03
(PID.TID 0000.0001) %MON advcfl_vvel_max              =   4.8348037763793E-03
(PID.TID 0000.0001) %MON advcfl_wvel_max              =   7.7146789301997E-03
(PID.TID 0000.0001) %MON advcfl_W_hf_max              =   6.6958730865534E-03
(PID.TID 0000.0001) %MON pe_b_mean                    =   4.9829653879122E-04
(PID.TID 0000.0001) %MON ke_max                       =   1.7070618762736E+00
(PID.TID 0000.0001) %MON ke_mean                      =   1.8778379185845E-04
(PID.TID 0000.0001) %MON ke_vol                       =   1.3398074026464E+18
(PID.TID 0000.0001) %MON vort_r_min                   =  -6.9949930395470E-06
(PID.TID 0000.0001) %MON vort_r_max                   =   3.9713860471980E-06
(PID.TID 0000.0001) %MON vort_a_mean                  =  -2.0549865324846E-05
(PID.TID 0000.0001) %MON vort_a_sd                    =   7.5259522484250E-05
(PID.TID 0000.0001) %MON vort_p_mean                  =  -2.4783384373267E-05
(PID.TID 0000.0001) %MON vort_p_sd                    =   1.2811917977522E-04
(PID.TID 0000.0001) %MON surfExpan_theta_mean         =  -7.7376212627602E-06
(PID.TID 0000.0001) %MON surfExpan_salt_mean          =   1.5758683497535E-06
(PID.TID 0000.0001) // =======================================================
(PID.TID 0000.0001) // End MONITOR dynamic field statistics
(PID.TID 0000.0001) // =======================================================
 cg2d: Sum(rhs),rhsMax =  -1.81722019127191E+01  6.85570010104707E+01
(PID.TID 0000.0001)      cg2d_init_res =   4.51697486520140E-01
(PID.TID 0000.0001)      cg2d_iters(min,last) =      -1      10
(PID.TID 0000.0001)      cg2d_last_res =   5.13106942151343E-08
(PID.TID 0000.0001) // =======================================================
(PID.TID 0000.0001) // Begin MONITOR dynamic field statistics
(PID.TID 0000.0001) // =======================================================
(PID.TID 0000.0001) %MON time_tsnumber                =                 72013
(PID.TID 0000.0001) %MON time_secondsf                =   6.4811700000000E+07
(PID.TID 0000.0001) %MON dynstat_eta_max              =   3.1460401579725E+00
(PID.TID 0000.0001) %MON dynstat_eta_min              =  -1.6103485366527E+00
(PID.TID 0000.0001) %MON dynstat_eta_mean             =   1.4476398785306E-02
(PID.TID 0000.0001) %MON dynstat_eta_sd               =   6.1097685286205E-01
(PID.TID 0000.0001) %MON dynstat_eta_del2             =   2.5212452002688E-03
(PID.TID 0000.0001) %MON dynstat_uvel_max             =   2.0099629618938E+00
(PID.TID 0000.0001) %MON dynstat_uvel_min             =  -9.7886844474861E-01
(PID.TID 0000.0001) %MON dynstat_uvel_mean            =  -1.3815849528989E-04
(PID.TID 0000.0001) %MON dynstat_uvel_sd              =   1.4246700197965E-02
(PID.TID 0000.0001) %MON dynstat_uvel_del2            =   1.4106020961026E-04
(PID.TID 0000.0001) %MON dynstat_vvel_max             =   1.3042490751230E+00
(PID.TID 0000.0001) %MON dynstat_vvel_min             =  -1.5706217103531E+00
(PID.TID 0000.0001) %MON dynstat_vvel_mean            =  -4.2061671383434E-04
(PID.TID 0000.0001) %MON dynstat_vvel_sd              =   1.4207926620296E-02
(PID.TID 0000.0001) %MON dynstat_vvel_del2            =   1.6481817721311E-04
(PID.TID 0000.0001) %MON dynstat_wvel_max             =   1.0825598499785E-04
(PID.TID 0000.0001) %MON dynstat_wvel_min             =  -5.5353583000977E-04
(PID.TID 0000.0001) %MON dynstat_wvel_mean            =  -4.4200709551600E-07
(PID.TID 0000.0001) %MON dynstat_wvel_sd              =   8.5718556342896E-06
(PID.TID 0000.0001) %MON dynstat_wvel_del2            =   7.9495847947032E-08
(PID.TID 0000.0001) %MON dynstat_theta_max            =   3.0923044680620E+01
(PID.TID 0000.0001) %MON dynstat_theta_min            =  -3.0103877476311E+00
(PID.TID 0000.0001) %MON dynstat_theta_mean           =   3.9090457657181E+00
(PID.TID 0000.0001) %MON dynstat_theta_sd             =   4.5710392306651E+00
(PID.TID 0000.0001) %MON dynstat_theta_del2           =   2.6485763418382E-03
(PID.TID 0000.0001) %MON dynstat_salt_max             =   4.1368032082274E+01
(PID.TID 0000.0001) %MON dynstat_salt_min             =   1.8518500393554E+01
(PID.TID 0000.0001) %MON dynstat_salt_mean            =   3.4772115634803E+01
(PID.TID 0000.0001) %MON dynstat_salt_sd              =   5.3110550770176E-01
(PID.TID 0000.0001) %MON dynstat_salt_del2            =   8.3594111913164E-04
(PID.TID 0000.0001) %MON dynstat_sst_max              =   3.0923044680620E+01
(PID.TID 0000.0001) %MON dynstat_sst_min              =  -1.8995137803142E+00
(PID.TID 0000.0001) %MON dynstat_sst_mean             =   1.8105331067901E+01
(PID.TID 0000.0001) %MON dynstat_sst_sd               =   9.8048779513377E+00
(PID.TID 0000.0001) %MON dynstat_sst_del2             =   1.5171431550335E-02
(PID.TID 0000.0001) %MON dynstat_sss_max              =   4.1368032082274E+01
(PID.TID 0000.0001) %MON dynstat_sss_min              =   1.8751381613241E+01
(PID.TID 0000.0001) %MON dynstat_sss_mean             =   3.4636105930261E+01
(PID.TID 0000.0001) %MON dynstat_sss_sd               =   1.4611614206543E+00
(PID.TID 0000.0001) %MON dynstat_sss_del2             =   8.5293991317133E-03
(PID.TID 0000.0001) %MON forcing_qnet_max             =   1.0022258789062E+04
(PID.TID 0000.0001) %MON forcing_qnet_min             =  -3.0878408075212E+03
(PID.TID 0000.0001) %MON forcing_qnet_mean            =  -7.9925825856389E+01
(PID.TID 0000.0001) %MON forcing_qnet_sd              =   5.2880637795995E+02
(PID.TID 0000.0001) %MON forcing_qnet_del2            =   1.4956756165411E+01
(PID.TID 0000.0001) %MON forcing_qsw_max              =   0.0000000000000E+00
(PID.TID 0000.0001) %MON forcing_qsw_min              =  -1.0744961521336E+02
(PID.TID 0000.0001) %MON forcing_qsw_mean             =  -2.1702923075028E+01
(PID.TID 0000.0001) %MON forcing_qsw_sd               =   3.0082221938478E+01
(PID.TID 0000.0001) %MON forcing_qsw_del2             =   2.3704131205942E-01
(PID.TID 0000.0001) %MON forcing_empmr_max            =   1.3374461792409E-02
(PID.TID 0000.0001) %MON forcing_empmr_min            =  -2.0921111106873E-01
(PID.TID 0000.0001) %MON forcing_empmr_mean           =  -4.8767534225254E-04
(PID.TID 0000.0001) %MON forcing_empmr_sd             =   7.3348499588487E-03
(PID.TID 0000.0001) %MON forcing_empmr_del2           =   2.9750643603357E-04
(PID.TID 0000.0001) %MON forcing_fu_max               =   6.9657146972833E-01
(PID.TID 0000.0001) %MON forcing_fu_min               =  -4.6657416728590E-01
(PID.TID 0000.0001) %MON forcing_fu_mean              =  -4.9198702232097E-03
(PID.TID 0000.0001) %MON forcing_fu_sd                =   7.6192072003625E-02
(PID.TID 0000.0001) %MON forcing_fu_del2              =   7.8143022505465E-04
(PID.TID 0000.0001) %MON forcing_fv_max               =   3.4837338170439E-01
(PID.TID 0000.0001) %MON forcing_fv_min               =  -3.4362182648748E-01
(PID.TID 0000.0001) %MON forcing_fv_mean              =  -1.2147428996151E-02
(PID.TID 0000.0001) %MON forcing_fv_sd                =   7.4700071312882E-02
(PID.TID 0000.0001) %MON forcing_fv_del2              =   6.6170712569814E-04
(PID.TID 0000.0001) %MON trAdv_CFL_u_max              =   6.5736862136621E-03
(PID.TID 0000.0001) %MON trAdv_CFL_v_max              =   8.6158510851481E-03
(PID.TID 0000.0001) %MON trAdv_CFL_w_max              =   6.4422067442038E-03
(PID.TID 0000.0001) %MON advcfl_uvel_max              =   6.7027574188314E-03
(PID.TID 0000.0001) %MON advcfl_vvel_max              =   4.7067910959884E-03
(PID.TID 0000.0001) %MON advcfl_wvel_max              =   7.2769082110861E-03
(PID.TID 0000.0001) %MON advcfl_W_hf_max              =   6.4422067442038E-03
(PID.TID 0000.0001) %MON pe_b_mean                    =   4.9757216083837E-04
(PID.TID 0000.0001) %MON ke_max                       =   1.6382127484650E+00
(PID.TID 0000.0001) %MON ke_mean                      =   1.8698841688790E-04
(PID.TID 0000.0001) %MON ke_vol                       =   1.3398075588205E+18
(PID.TID 0000.0001) %MON vort_r_min                   =  -7.5540838863110E-06
(PID.TID 0000.0001) %MON vort_r_max                   =   3.6285260583363E-06
(PID.TID 0000.0001) %MON vort_a_mean                  =  -2.0549865324846E-05
(PID.TID 0000.0001) %MON vort_a_sd                    =   7.5259520779789E-05
(PID.TID 0000.0001) %MON vort_p_mean                  =  -2.4783380425651E-05
(PID.TID 0000.0001) %MON vort_p_sd                    =   1.2811915736135E-04
(PID.TID 0000.0001) %MON surfExpan_theta_mean         =  -7.6943790174855E-06
(PID.TID 0000.0001) %MON surfExpan_salt_mean          =   1.6016738812455E-06
(PID.TID 0000.0001) // =======================================================
(PID.TID 0000.0001) // End MONITOR dynamic field statistics
(PID.TID 0000.0001) // =======================================================
 cg2d: Sum(rhs),rhsMax =  -1.72968494525242E+01  7.41137485573870E+01
(PID.TID 0000.0001)      cg2d_init_res =   3.98093914010590E-01
(PID.TID 0000.0001)      cg2d_iters(min,last) =      -1      10
(PID.TID 0000.0001)      cg2d_last_res =   4.62129088109764E-08
(PID.TID 0000.0001) // =======================================================
(PID.TID 0000.0001) // Begin MONITOR dynamic field statistics
(PID.TID 0000.0001) // =======================================================
(PID.TID 0000.0001) %MON time_tsnumber                =                 72014
(PID.TID 0000.0001) %MON time_secondsf                =   6.4812600000000E+07
(PID.TID 0000.0001) %MON dynstat_eta_max              =   3.3967612370093E+00
(PID.TID 0000.0001) %MON dynstat_eta_min              =  -1.6069541670994E+00
(PID.TID 0000.0001) %MON dynstat_eta_mean             =   1.4895907213566E-02
(PID.TID 0000.0001) %MON dynstat_eta_sd               =   6.1121225359567E-01
(PID.TID 0000.0001) %MON dynstat_eta_del2             =   2.6856341215123E-03
(PID.TID 0000.0001) %MON dynstat_uvel_max             =   1.9933412836101E+00
(PID.TID 0000.0001) %MON dynstat_uvel_min             =  -9.7648894974595E-01
(PID.TID 0000.0001) %MON dynstat_uvel_mean            =  -1.1403714013073E-04
(PID.TID 0000.0001) %MON dynstat_uvel_sd              =   1.4209864944241E-02
(PID.TID 0000.0001) %MON dynstat_uvel_del2            =   1.3805880421628E-04
(PID.TID 0000.0001) %MON dynstat_vvel_max             =   1.2470871546330E+00
(PID.TID 0000.0001) %MON dynstat_vvel_min             =  -1.5020835488699E+00
(PID.TID 0000.0001) %MON dynstat_vvel_mean            =  -4.2590731710026E-04
(PID.TID 0000.0001) %MON dynstat_vvel_sd              =   1.4115196642038E-02
(PID.TID 0000.0001) %MON dynstat_vvel_del2            =   1.5527398541052E-04
(PID.TID 0000.0001) %MON dynstat_wvel_max             =   1.0492396535056E-04
(PID.TID 0000.0001) %MON dynstat_wvel_min             =  -5.6110930579835E-04
(PID.TID 0000.0001) %MON dynstat_wvel_mean            =  -4.2897086801588E-07
(PID.TID 0000.0001) %MON dynstat_wvel_sd              =   8.5658698511093E-06
(PID.TID 0000.0001) %MON dynstat_wvel_del2            =   7.9650098014402E-08
(PID.TID 0000.0001) %MON dynstat_theta_max            =   3.0922869341399E+01
(PID.TID 0000.0001) %MON dynstat_theta_min            =  -3.0100565887755E+00
(PID.TID 0000.0001) %MON dynstat_theta_mean           =   3.9090525634659E+00
(PID.TID 0000.0001) %MON dynstat_theta_sd             =   4.5710688807017E+00
(PID.TID 0000.0001) %MON dynstat_theta_del2           =   2.6482464869991E-03
(PID.TID 0000.0001) %MON dynstat_salt_max             =   4.1367098099138E+01
(PID.TID 0000.0001) %MON dynstat_salt_min             =   1.8518510215399E+01
(PID.TID 0000.0001) %MON dynstat_salt_mean            =   3.4772109450050E+01
(PID.TID 0000.0001) %MON dynstat_salt_sd              =   5.3112397411360E-01
(PID.TID 0000.0001) %MON dynstat_salt_del2            =   8.4063237605864E-04
(PID.TID 0000.0001) %MON dynstat_sst_max              =   3.0922869341399E+01
(PID.TID 0000.0001) %MON dynstat_sst_min              =  -1.8994866815840E+00
(PID.TID 0000.0001) %MON dynstat_sst_mean             =   1.8105654113503E+01
(PID.TID 0000.0001) %MON dynstat_sst_sd               =   9.8052813295586E+00
(PID.TID 0000.0001) %MON dynstat_sst_del2             =   1.5162939714035E-02
(PID.TID 0000.0001) %MON dynstat_sss_max              =   4.1367098099138E+01
(PID.TID 0000.0001) %MON dynstat_sss_min              =   1.8751382474304E+01
(PID.TID 0000.0001) %MON dynstat_sss_mean             =   3.4635659827173E+01
(PID.TID 0000.0001) %MON dynstat_sss_sd               =   1.4616158236075E+00
(PID.TID 0000.0001) %MON dynstat_sss_del2             =   8.6017183730536E-03
(PID.TID 0000.0001) %MON forcing_qnet_max             =   8.3818740234375E+03
(PID.TID 0000.0001) %MON forcing_qnet_min             =  -3.5190124511719E+03
(PID.TID 0000.0001) %MON forcing_qnet_mean            =  -7.4183628334182E+01
(PID.TID 0000.0001) %MON forcing_qnet_sd              =   4.9363535052637E+02
(PID.TID 0000.0001) %MON forcing_qnet_del2            =   1.4129778911274E+01
(PID.TID 0000.0001) %MON forcing_qsw_max              =   0.0000000000000E+00
(PID.TID 0000.0001) %MON forcing_qsw_min              =  -1.0670911801792E+02
(PID.TID 0000.0001) %MON forcing_qsw_mean             =  -2.1513217801201E+01
(PID.TID 0000.0001) %MON forcing_qsw_sd               =   2.9931901889851E+01
(PID.TID 0000.0001) %MON forcing_qsw_del2             =   2.3937192560358E-01
(PID.TID 0000.0001) %MON forcing_empmr_max            =   1.3299798592925E-02
(PID.TID 0000.0001) %MON forcing_empmr_min            =  -1.9894579052925E-01
(PID.TID 0000.0001) %MON forcing_empmr_mean           =  -4.8243469249900E-04
(PID.TID 0000.0001) %MON forcing_empmr_sd             =   7.2120594139655E-03
(PID.TID 0000.0001) %MON forcing_empmr_del2           =   2.9291137869470E-04
(PID.TID 0000.0001) %MON forcing_fu_max               =   6.8765932317915E-01
(PID.TID 0000.0001) %MON forcing_fu_min               =  -4.6036266442907E-01
(PID.TID 0000.0001) %MON forcing_fu_mean              =  -4.7233460809608E-03
(PID.TID 0000.0001) %MON forcing_fu_sd                =   7.6137706749466E-02
(PID.TID 0000.0001) %MON forcing_fu_del2              =   7.7719728726110E-04
(PID.TID 0000.0001) %MON forcing_fv_max               =   3.3873357146926E-01
(PID.TID 0000.0001) %MON forcing_fv_min               =  -3.4601342542193E-01
(PID.TID 0000.0001) %MON forcing_fv_mean              =  -1.1931186674851E-02
(PID.TID 0000.0001) %MON forcing_fv_sd                =   7.4507157920639E-02
(PID.TID 0000.0001) %MON forcing_fv_del2              =   6.6067381521224E-04
(PID.TID 0000.0001) %MON trAdv_CFL_u_max              =   6.5401798715200E-03
(PID.TID 0000.0001) %MON trAdv_CFL_v_max              =   8.3055039115156E-03
(PID.TID 0000.0001) %MON trAdv_CFL_w_max              =   6.1628941550549E-03
(PID.TID 0000.0001) %MON advcfl_uvel_max              =   6.6473280007068E-03
(PID.TID 0000.0001) %MON advcfl_vvel_max              =   4.5013980302500E-03
(PID.TID 0000.0001) %MON advcfl_wvel_max              =   6.9198535836261E-03
(PID.TID 0000.0001) %MON advcfl_W_hf_max              =   6.1628941550549E-03
(PID.TID 0000.0001) %MON pe_b_mean                    =   4.9797179222428E-04
(PID.TID 0000.0001) %MON ke_max                       =   1.5229133857052E+00
(PID.TID 0000.0001) %MON ke_mean                      =   1.8528763543287E-04
(PID.TID 0000.0001) %MON ke_vol                       =   1.3398077131323E+18
(PID.TID 0000.0001) %MON vort_r_min                   =  -8.0240404501508E-06
(PID.TID 0000.0001) %MON vort_r_max                   =   3.2104781317341E-06
(PID.TID 0000.0001) %MON vort_a_mean                  =  -2.0549865324846E-05
(PID.TID 0000.0001) %MON vort_a_sd                    =   7.5259519213912E-05
(PID.TID 0000.0001) %MON vort_p_mean                  =  -2.4783376620684E-05
(PID.TID 0000.0001) %MON vort_p_sd                    =   1.2811914309113E-04
(PID.TID 0000.0001) %MON surfExpan_theta_mean         =  -7.6576436255710E-06
(PID.TID 0000.0001) %MON surfExpan_salt_mean          =   1.6152726890931E-06
(PID.TID 0000.0001) // =======================================================
(PID.TID 0000.0001) // End MONITOR dynamic field statistics
(PID.TID 0000.0001) // =======================================================
 cg2d: Sum(rhs),rhsMax =  -1.66827540085981E+01  7.89839645061167E+01
(PID.TID 0000.0001)      cg2d_init_res =   3.46931950879697E-01
(PID.TID 0000.0001)      cg2d_iters(min,last) =      -1      10
(PID.TID 0000.0001)      cg2d_last_res =   4.19982362523033E-08
(PID.TID 0000.0001) // =======================================================
(PID.TID 0000.0001) // Begin MONITOR dynamic field statistics
(PID.TID 0000.0001) // =======================================================
(PID.TID 0000.0001) %MON time_tsnumber                =                 72015
(PID.TID 0000.0001) %MON time_secondsf                =   6.4813500000000E+07
(PID.TID 0000.0001) %MON dynstat_eta_max              =   3.6164592187186E+00
(PID.TID 0000.0001) %MON dynstat_eta_min              =  -1.7981192131922E+00
(PID.TID 0000.0001) %MON dynstat_eta_mean             =   1.5311151302159E-02
(PID.TID 0000.0001) %MON dynstat_eta_sd               =   6.1201286143376E-01
(PID.TID 0000.0001) %MON dynstat_eta_del2             =   2.9027942708968E-03
(PID.TID 0000.0001) %MON dynstat_uvel_max             =   1.9557209570916E+00
(PID.TID 0000.0001) %MON dynstat_uvel_min             =  -9.6553524612715E-01
(PID.TID 0000.0001) %MON dynstat_uvel_mean            =  -9.0704897674550E-05
(PID.TID 0000.0001) %MON dynstat_uvel_sd              =   1.4129032583133E-02
(PID.TID 0000.0001) %MON dynstat_uvel_del2            =   1.3408055467955E-04
(PID.TID 0000.0001) %MON dynstat_vvel_max             =   1.1730478264281E+00
(PID.TID 0000.0001) %MON dynstat_vvel_min             =  -1.4099222682574E+00
(PID.TID 0000.0001) %MON dynstat_vvel_mean            =  -4.2944516557905E-04
(PID.TID 0000.0001) %MON dynstat_vvel_sd              =   1.4013707344075E-02
(PID.TID 0000.0001) %MON dynstat_vvel_del2            =   1.4526143437591E-04
(PID.TID 0000.0001) %MON dynstat_wvel_max             =   1.1698599031627E-04
(PID.TID 0000.0001) %MON dynstat_wvel_min             =  -5.5783090078342E-04
(PID.TID 0000.0001) %MON dynstat_wvel_mean            =  -4.1526074938333E-07
(PID.TID 0000.0001) %MON dynstat_wvel_sd              =   8.5689362381848E-06
(PID.TID 0000.0001) %MON dynstat_wvel_del2            =   7.9865339471794E-08
(PID.TID 0000.0001) %MON dynstat_theta_max            =   3.0922706506625E+01
(PID.TID 0000.0001) %MON dynstat_theta_min            =  -3.0096727584204E+00
(PID.TID 0000.0001) %MON dynstat_theta_mean           =   3.9090590897967E+00
(PID.TID 0000.0001) %MON dynstat_theta_sd             =   4.5710966330723E+00
(PID.TID 0000.0001) %MON dynstat_theta_del2           =   2.6479807363325E-03
(PID.TID 0000.0001) %MON dynstat_salt_max             =   4.1366190071681E+01
(PID.TID 0000.0001) %MON dynstat_salt_min             =   1.8518520062776E+01
(PID.TID 0000.0001) %MON dynstat_salt_mean            =   3.4772103449376E+01
(PID.TID 0000.0001) %MON dynstat_salt_sd              =   5.3114276465630E-01
(PID.TID 0000.0001) %MON dynstat_salt_del2            =   8.4548006480573E-04
(PID.TID 0000.0001) %MON dynstat_sst_max              =   3.0922706506625E+01
(PID.TID 0000.0001) %MON dynstat_sst_min              =  -1.8994595946816E+00
(PID.TID 0000.0001) %MON dynstat_sst_mean             =   1.8105957884229E+01
(PID.TID 0000.0001) %MON dynstat_sst_sd               =   9.8056445270772E+00
(PID.TID 0000.0001) %MON dynstat_sst_del2             =   1.5156311830489E-02
(PID.TID 0000.0001) %MON dynstat_sss_max              =   4.1366190071681E+01
(PID.TID 0000.0001) %MON dynstat_sss_min              =   1.8751383222402E+01
(PID.TID 0000.0001) %MON dynstat_sss_mean             =   3.4635225415369E+01
(PID.TID 0000.0001) %MON dynstat_sss_sd               =   1.4620777017579E+00
(PID.TID 0000.0001) %MON dynstat_sss_del2             =   8.6762760416693E-03
(PID.TID 0000.0001) %MON forcing_qnet_max             =   7.4666704101562E+03
(PID.TID 0000.0001) %MON forcing_qnet_min             =  -4.4026215820312E+03
(PID.TID 0000.0001) %MON forcing_qnet_mean            =  -7.0075746499274E+01
(PID.TID 0000.0001) %MON forcing_qnet_sd              =   4.4706235770468E+02
(PID.TID 0000.0001) %MON forcing_qnet_del2            =   1.2960301626572E+01
(PID.TID 0000.0001) %MON forcing_qsw_max              =   0.0000000000000E+00
(PID.TID 0000.0001) %MON forcing_qsw_min              =  -1.0551713223383E+02
(PID.TID 0000.0001) %MON forcing_qsw_mean             =  -2.1265935585153E+01
(PID.TID 0000.0001) %MON forcing_qsw_sd               =   2.9720116777308E+01
(PID.TID 0000.0001) %MON forcing_qsw_del2             =   2.4140972484020E-01
(PID.TID 0000.0001) %MON forcing_empmr_max            =   1.3091959990561E-02
(PID.TID 0000.0001) %MON forcing_empmr_min            =  -1.9004404544830E-01
(PID.TID 0000.0001) %MON forcing_empmr_mean           =  -4.7753070188195E-04
(PID.TID 0000.0001) %MON forcing_empmr_sd             =   7.0976084124504E-03
(PID.TID 0000.0001) %MON forcing_empmr_del2           =   2.8853959603184E-04
(PID.TID 0000.0001) %MON forcing_fu_max               =   6.7283137603117E-01
(PID.TID 0000.0001) %MON forcing_fu_min               =  -4.5067474179855E-01
(PID.TID 0000.0001) %MON forcing_fu_mean              =  -4.6158807901979E-03
(PID.TID 0000.0001) %MON forcing_fu_sd                =   7.5747706766425E-02
(PID.TID 0000.0001) %MON forcing_fu_del2              =   7.7084627570291E-04
(PID.TID 0000.0001) %MON forcing_fv_max               =   3.2943601542141E-01
(PID.TID 0000.0001) %MON forcing_fv_min               =  -3.5050433969939E-01
(PID.TID 0000.0001) %MON forcing_fv_mean              =  -1.1716031052682E-02
(PID.TID 0000.0001) %MON forcing_fv_sd                =   7.4173178585326E-02
(PID.TID 0000.0001) %MON forcing_fv_del2              =   6.5869058259246E-04
(PID.TID 0000.0001) %MON trAdv_CFL_u_max              =   6.4354376859785E-03
(PID.TID 0000.0001) %MON trAdv_CFL_v_max              =   7.8639222239212E-03
(PID.TID 0000.0001) %MON trAdv_CFL_w_max              =   5.8701655450235E-03
(PID.TID 0000.0001) %MON advcfl_uvel_max              =   6.5218729911114E-03
(PID.TID 0000.0001) %MON advcfl_vvel_max              =   4.2252119237405E-03
(PID.TID 0000.0001) %MON advcfl_wvel_max              =   6.6102276677671E-03
(PID.TID 0000.0001) %MON advcfl_W_hf_max              =   5.8701655450235E-03
(PID.TID 0000.0001) %MON pe_b_mean                    =   4.9929308016818E-04
(PID.TID 0000.0001) %MON ke_max                       =   1.3705788081889E+00
(PID.TID 0000.0001) %MON ke_mean                      =   1.8291003931659E-04
(PID.TID 0000.0001) %MON ke_vol                       =   1.3398078657858E+18
(PID.TID 0000.0001) %MON vort_r_min                   =  -8.3928457719837E-06
(PID.TID 0000.0001) %MON vort_r_max                   =   3.1274648641512E-06
(PID.TID 0000.0001) %MON vort_a_mean                  =  -2.0549865324846E-05
(PID.TID 0000.0001) %MON vort_a_sd                    =   7.5259517893529E-05
(PID.TID 0000.0001) %MON vort_p_mean                  =  -2.4783372958881E-05
(PID.TID 0000.0001) %MON vort_p_sd                    =   1.2811913632544E-04
(PID.TID 0000.0001) %MON surfExpan_theta_mean         =  -7.6236953956487E-06
(PID.TID 0000.0001) %MON surfExpan_salt_mean          =   1.6169389115921E-06
(PID.TID 0000.0001) // =======================================================
(PID.TID 0000.0001) // End MONITOR dynamic field statistics
(PID.TID 0000.0001) // =======================================================
 Computing Diagnostic #     81  oceTAUX      Counter:       1   Parms: UU      U1      
           Vector  Mate for  oceTAUX      Diagnostic #     82  oceTAUY  exists 
 Computing Diagnostic #     82  oceTAUY      Counter:       1   Parms: VV      U1      
           Vector  Mate for  oceTAUY      Diagnostic #     81  oceTAUX  exists 
 Computing Diagnostic #     85  oceFWflx     Counter:       1   Parms: SM      U1      
 Computing Diagnostic #     86  oceSflux     Counter:       1   Parms: SM      U1      
 Computing Diagnostic #     87  oceQnet      Counter:       1   Parms: SM      U1      
 Computing Diagnostic #     88  oceQsw       Counter:       1   Parms: SM      U1      
 Computing Diagnostic #     27  SALT         Counter:       1   Parms: SMR     MR      
 Computing Diagnostic #     26  THETA        Counter:       1   Parms: SMR     MR      
 Computing Diagnostic #     45  UVELMASS     Counter:       1   Parms: UUr     MR      
           Vector  Mate for  UVELMASS     Diagnostic #     46  VVELMASS exists 
 Computing Diagnostic #     46  VVELMASS     Counter:       1   Parms: VVr     MR      
           Vector  Mate for  VVELMASS     Diagnostic #     45  UVELMASS exists 
 cg2d: Sum(rhs),rhsMax =  -1.62883381970499E+01  8.30709922448004E+01
(PID.TID 0000.0001)      cg2d_init_res =   2.99795810973165E-01
(PID.TID 0000.0001)      cg2d_iters(min,last) =      -1      10
(PID.TID 0000.0001)      cg2d_last_res =   4.20767212268798E-08
(PID.TID 0000.0001) // =======================================================
(PID.TID 0000.0001) // Begin MONITOR dynamic field statistics
(PID.TID 0000.0001) // =======================================================
(PID.TID 0000.0001) %MON time_tsnumber                =                 72016
(PID.TID 0000.0001) %MON time_secondsf                =   6.4814400000000E+07
(PID.TID 0000.0001) %MON dynstat_eta_max              =   3.8007478976597E+00
(PID.TID 0000.0001) %MON dynstat_eta_min              =  -2.0057195178552E+00
(PID.TID 0000.0001) %MON dynstat_eta_mean             =   1.5722708014627E-02
(PID.TID 0000.0001) %MON dynstat_eta_sd               =   6.1319743261206E-01
(PID.TID 0000.0001) %MON dynstat_eta_del2             =   3.1341187289666E-03
(PID.TID 0000.0001) %MON dynstat_uvel_max             =   1.8977911631127E+00
(PID.TID 0000.0001) %MON dynstat_uvel_min             =  -9.4664310360011E-01
(PID.TID 0000.0001) %MON dynstat_uvel_mean            =  -6.8215028392957E-05
(PID.TID 0000.0001) %MON dynstat_uvel_sd              =   1.4015590730611E-02
(PID.TID 0000.0001) %MON dynstat_uvel_del2            =   1.2936254889821E-04
(PID.TID 0000.0001) %MON dynstat_vvel_max             =   1.0842795463652E+00
(PID.TID 0000.0001) %MON dynstat_vvel_min             =  -1.2966852530706E+00
(PID.TID 0000.0001) %MON dynstat_vvel_mean            =  -4.3130398728883E-04
(PID.TID 0000.0001) %MON dynstat_vvel_sd              =   1.3914880934363E-02
(PID.TID 0000.0001) %MON dynstat_vvel_del2            =   1.3530086202814E-04
(PID.TID 0000.0001) %MON dynstat_wvel_max             =   1.2765108115114E-04
(PID.TID 0000.0001) %MON dynstat_wvel_min             =  -5.4333484848720E-04
(PID.TID 0000.0001) %MON dynstat_wvel_mean            =  -4.0130138746765E-07
(PID.TID 0000.0001) %MON dynstat_wvel_sd              =   8.6092396105073E-06
(PID.TID 0000.0001) %MON dynstat_wvel_del2            =   8.0234357810555E-08
(PID.TID 0000.0001) %MON dynstat_theta_max            =   3.0922557071059E+01
(PID.TID 0000.0001) %MON dynstat_theta_min            =  -3.0092371326468E+00
(PID.TID 0000.0001) %MON dynstat_theta_mean           =   3.9090653539895E+00
(PID.TID 0000.0001) %MON dynstat_theta_sd             =   4.5711223205389E+00
(PID.TID 0000.0001) %MON dynstat_theta_del2           =   2.6477640544728E-03
(PID.TID 0000.0001) %MON dynstat_salt_max             =   4.1365314996417E+01
(PID.TID 0000.0001) %MON dynstat_salt_min             =   1.8518529922820E+01
(PID.TID 0000.0001) %MON dynstat_salt_mean            =   3.4772097624492E+01
(PID.TID 0000.0001) %MON dynstat_salt_sd              =   5.3116187499629E-01
(PID.TID 0000.0001) %MON dynstat_salt_del2            =   8.5046782836517E-04
(PID.TID 0000.0001) %MON dynstat_sst_max              =   3.0922557071059E+01
(PID.TID 0000.0001) %MON dynstat_sst_min              =  -1.8994331129756E+00
(PID.TID 0000.0001) %MON dynstat_sst_mean             =   1.8106242114281E+01
(PID.TID 0000.0001) %MON dynstat_sst_sd               =   9.8059633477729E+00
(PID.TID 0000.0001) %MON dynstat_sst_del2             =   1.5150995907136E-02
(PID.TID 0000.0001) %MON dynstat_sss_max              =   4.1365314996417E+01
(PID.TID 0000.0001) %MON dynstat_sss_min              =   1.8751383975951E+01
(PID.TID 0000.0001) %MON dynstat_sss_mean             =   3.4634802300106E+01
(PID.TID 0000.0001) %MON dynstat_sss_sd               =   1.4625483972327E+00
(PID.TID 0000.0001) %MON dynstat_sss_del2             =   8.7527863138274E-03
(PID.TID 0000.0001) %MON forcing_qnet_max             =   8.8314960937500E+03
(PID.TID 0000.0001) %MON forcing_qnet_min             =  -2.1818596743433E+03
(PID.TID 0000.0001) %MON forcing_qnet_mean            =  -6.6046274955697E+01
(PID.TID 0000.0001) %MON forcing_qnet_sd              =   4.0467201551448E+02
(PID.TID 0000.0001) %MON forcing_qnet_del2            =   1.2262556526205E+01
(PID.TID 0000.0001) %MON forcing_qsw_max              =   0.0000000000000E+00
(PID.TID 0000.0001) %MON forcing_qsw_min              =  -1.0475156489235E+02
(PID.TID 0000.0001) %MON forcing_qsw_mean             =  -2.0955952318216E+01
(PID.TID 0000.0001) %MON forcing_qsw_sd               =   2.9453805890326E+01
(PID.TID 0000.0001) %MON forcing_qsw_del2             =   2.4313409773911E-01
(PID.TID 0000.0001) %MON forcing_empmr_max            =   1.2832636013627E-02
(PID.TID 0000.0001) %MON forcing_empmr_min            =  -1.8177221715450E-01
(PID.TID 0000.0001) %MON forcing_empmr_mean           =  -4.7329021933875E-04
(PID.TID 0000.0001) %MON forcing_empmr_sd             =   6.9982118272127E-03
(PID.TID 0000.0001) %MON forcing_empmr_del2           =   2.8498010111546E-04
(PID.TID 0000.0001) %MON forcing_fu_max               =   6.6148584734179E-01
(PID.TID 0000.0001) %MON forcing_fu_min               =  -4.4225549812894E-01
(PID.TID 0000.0001) %MON forcing_fu_mean              =  -4.5029295000011E-03
(PID.TID 0000.0001) %MON forcing_fu_sd                =   7.5315962346287E-02
(PID.TID 0000.0001) %MON forcing_fu_del2              =   7.6399703133676E-04
(PID.TID 0000.0001) %MON forcing_fv_max               =   3.2353464281825E-01
(PID.TID 0000.0001) %MON forcing_fv_min               =  -3.5381564653464E-01
(PID.TID 0000.0001) %MON forcing_fv_mean              =  -1.1518069218152E-02
(PID.TID 0000.0001) %MON forcing_fv_sd                =   7.3807898666034E-02
(PID.TID 0000.0001) %MON forcing_fv_del2              =   6.5544710107570E-04
(PID.TID 0000.0001) %MON trAdv_CFL_u_max              =   6.2616933085190E-03
(PID.TID 0000.0001) %MON trAdv_CFL_v_max              =   7.3018973290452E-03
(PID.TID 0000.0001) %MON trAdv_CFL_w_max              =   5.5719042293672E-03
(PID.TID 0000.0001) %MON advcfl_uvel_max              =   6.3286906470957E-03
(PID.TID 0000.0001) %MON advcfl_vvel_max              =   3.8858667005690E-03
(PID.TID 0000.0001) %MON advcfl_wvel_max              =   6.3225119010262E-03
(PID.TID 0000.0001) %MON advcfl_W_hf_max              =   5.5719042293672E-03
(PID.TID 0000.0001) %MON pe_b_mean                    =   5.0124349547649E-04
(PID.TID 0000.0001) %MON ke_max                       =   1.1923785459967E+00
(PID.TID 0000.0001) %MON ke_mean                      =   1.8016187288518E-04
(PID.TID 0000.0001) %MON ke_vol                       =   1.3398080168877E+18
(PID.TID 0000.0001) %MON vort_r_min                   =  -8.6513422320122E-06
(PID.TID 0000.0001) %MON vort_r_max                   =   3.0977277876249E-06
(PID.TID 0000.0001) %MON vort_a_mean                  =  -2.0549865324846E-05
(PID.TID 0000.0001) %MON vort_a_sd                    =   7.5259516883165E-05
(PID.TID 0000.0001) %MON vort_p_mean                  =  -2.4783369438262E-05
(PID.TID 0000.0001) %MON vort_p_sd                    =   1.2811913562342E-04
(PID.TID 0000.0001) %MON surfExpan_theta_mean         =  -7.5999255057961E-06
(PID.TID 0000.0001) %MON surfExpan_salt_mean          =   1.6087100802298E-06
(PID.TID 0000.0001) // =======================================================
(PID.TID 0000.0001) // End MONITOR dynamic field statistics
(PID.TID 0000.0001) // =======================================================
 cg2d: Sum(rhs),rhsMax =  -1.60846431678000E+01  8.62979976225849E+01
(PID.TID 0000.0001)      cg2d_init_res =   2.59292368532202E-01
(PID.TID 0000.0001)      cg2d_iters(min,last) =      -1      10
(PID.TID 0000.0001)      cg2d_last_res =   3.92467218116452E-08
(PID.TID 0000.0001) // =======================================================
(PID.TID 0000.0001) // Begin MONITOR dynamic field statistics
(PID.TID 0000.0001) // =======================================================
(PID.TID 0000.0001) %MON time_tsnumber                =                 72017
(PID.TID 0000.0001) %MON time_secondsf                =   6.4815300000000E+07
(PID.TID 0000.0001) %MON dynstat_eta_max              =   3.9461351271670E+00
(PID.TID 0000.0001) %MON dynstat_eta_min              =  -2.2821245563735E+00
(PID.TID 0000.0001) %MON dynstat_eta_mean             =   1.6129218407362E-02
(PID.TID 0000.0001) %MON dynstat_eta_sd               =   6.1457538088510E-01
(PID.TID 0000.0001) %MON dynstat_eta_del2             =   3.3503540681433E-03
(PID.TID 0000.0001) %MON dynstat_uvel_max             =   1.8201704349849E+00
(PID.TID 0000.0001) %MON dynstat_uvel_min             =  -9.2052196645778E-01
(PID.TID 0000.0001) %MON dynstat_uvel_mean            =  -4.6837470696107E-05
(PID.TID 0000.0001) %MON dynstat_uvel_sd              =   1.3882655119791E-02
(PID.TID 0000.0001) %MON dynstat_uvel_del2            =   1.2418202109139E-04
(PID.TID 0000.0001) %MON dynstat_vvel_max             =   9.8309513354894E-01
(PID.TID 0000.0001) %MON dynstat_vvel_min             =  -1.1651976567911E+00
(PID.TID 0000.0001) %MON dynstat_vvel_mean            =  -4.3177434611434E-04
(PID.TID 0000.0001) %MON dynstat_vvel_sd              =   1.3828696727018E-02
(PID.TID 0000.0001) %MON dynstat_vvel_del2            =   1.2592112784815E-04
(PID.TID 0000.0001) %MON dynstat_wvel_max             =   1.3009074570020E-04
(PID.TID 0000.0001) %MON dynstat_wvel_min             =  -5.1827249322333E-04
(PID.TID 0000.0001) %MON dynstat_wvel_mean            =  -3.8646231144208E-07
(PID.TID 0000.0001) %MON dynstat_wvel_sd              =   8.7026905389325E-06
(PID.TID 0000.0001) %MON dynstat_wvel_del2            =   8.0741812927033E-08
(PID.TID 0000.0001) %MON dynstat_theta_max            =   3.0922440807912E+01
(PID.TID 0000.0001) %MON dynstat_theta_min            =  -3.0087638698802E+00
(PID.TID 0000.0001) %MON dynstat_theta_mean           =   3.9090713180925E+00
(PID.TID 0000.0001) %MON dynstat_theta_sd             =   4.5711463820487E+00
(PID.TID 0000.0001) %MON dynstat_theta_del2           =   2.6475840948164E-03
(PID.TID 0000.0001) %MON dynstat_salt_max             =   4.1364478374353E+01
(PID.TID 0000.0001) %MON dynstat_salt_min             =   1.8518539786073E+01
(PID.TID 0000.0001) %MON dynstat_salt_mean            =   3.4772092040276E+01
(PID.TID 0000.0001) %MON dynstat_salt_sd              =   5.3118132531491E-01
(PID.TID 0000.0001) %MON dynstat_salt_del2            =   8.5558088174326E-04
(PID.TID 0000.0001) %MON dynstat_sst_max              =   3.0922440807912E+01
(PID.TID 0000.0001) %MON dynstat_sst_min              =  -1.8994054847612E+00
(PID.TID 0000.0001) %MON dynstat_sst_mean             =   1.8106513878143E+01
(PID.TID 0000.0001) %MON dynstat_sst_sd               =   9.8062567482911E+00
(PID.TID 0000.0001) %MON dynstat_sst_del2             =   1.5146696842543E-02
(PID.TID 0000.0001) %MON dynstat_sss_max              =   4.1364478374353E+01
(PID.TID 0000.0001) %MON dynstat_sss_min              =   1.8751384651544E+01
(PID.TID 0000.0001) %MON dynstat_sss_mean             =   3.4634398336185E+01
(PID.TID 0000.0001) %MON dynstat_sss_sd               =   1.4630326208218E+00
(PID.TID 0000.0001) %MON dynstat_sss_del2             =   8.8310079903678E-03
(PID.TID 0000.0001) %MON forcing_qnet_max             =   1.0165963867188E+04
(PID.TID 0000.0001) %MON forcing_qnet_min             =  -2.1826998396156E+03
(PID.TID 0000.0001) %MON forcing_qnet_mean            =  -6.1522814762454E+01
(PID.TID 0000.0001) %MON forcing_qnet_sd              =   3.7962766608856E+02
(PID.TID 0000.0001) %MON forcing_qnet_del2            =   1.1996119263583E+01
(PID.TID 0000.0001) %MON forcing_qsw_max              =   0.0000000000000E+00
(PID.TID 0000.0001) %MON forcing_qsw_min              =  -1.0660159149780E+02
(PID.TID 0000.0001) %MON forcing_qsw_mean             =  -2.0430427741933E+01
(PID.TID 0000.0001) %MON forcing_qsw_sd               =   2.9042206460050E+01
(PID.TID 0000.0001) %MON forcing_qsw_del2             =   2.4994582816667E-01
(PID.TID 0000.0001) %MON forcing_empmr_max            =   1.2635244987905E-02
(PID.TID 0000.0001) %MON forcing_empmr_min            =  -1.7511160671711E-01
(PID.TID 0000.0001) %MON forcing_empmr_mean           =  -4.6748695164503E-04
(PID.TID 0000.0001) %MON forcing_empmr_sd             =   6.9025547101586E-03
(PID.TID 0000.0001) %MON forcing_empmr_del2           =   2.8133421018993E-04
(PID.TID 0000.0001) %MON forcing_fu_max               =   6.4760495923318E-01
(PID.TID 0000.0001) %MON forcing_fu_min               =  -4.3328262747762E-01
(PID.TID 0000.0001) %MON forcing_fu_mean              =  -4.4052940474234E-03
(PID.TID 0000.0001) %MON forcing_fu_sd                =   7.4821467696495E-02
(PID.TID 0000.0001) %MON forcing_fu_del2              =   7.5647947554036E-04
(PID.TID 0000.0001) %MON forcing_fv_max               =   3.1896156908634E-01
(PID.TID 0000.0001) %MON forcing_fv_min               =  -3.5886196587680E-01
(PID.TID 0000.0001) %MON forcing_fv_mean              =  -1.1357407385851E-02
(PID.TID 0000.0001) %MON forcing_fv_sd                =   7.3404078615996E-02
(PID.TID 0000.0001) %MON forcing_fv_del2              =   6.5141027425581E-04
(PID.TID 0000.0001) %MON trAdv_CFL_u_max              =   6.0209848662406E-03
(PID.TID 0000.0001) %MON trAdv_CFL_v_max              =   6.6326034830671E-03
(PID.TID 0000.0001) %MON trAdv_CFL_w_max              =   5.2723046882974E-03
(PID.TID 0000.0001) %MON advcfl_uvel_max              =   6.0698436329081E-03
(PID.TID 0000.0001) %MON advcfl_vvel_max              =   3.4918286942677E-03
(PID.TID 0000.0001) %MON advcfl_wvel_max              =   6.0908384945082E-03
(PID.TID 0000.0001) %MON advcfl_W_hf_max              =   5.2723046882974E-03
(PID.TID 0000.0001) %MON pe_b_mean                    =   5.0351447919861E-04
(PID.TID 0000.0001) %MON ke_max                       =   1.0002980731362E+00
(PID.TID 0000.0001) %MON ke_mean                      =   1.7734787896767E-04
(PID.TID 0000.0001) %MON ke_vol                       =   1.3398081666477E+18
(PID.TID 0000.0001) %MON vort_r_min                   =  -8.7932630376324E-06
(PID.TID 0000.0001) %MON vort_r_max                   =   3.0499970515138E-06
(PID.TID 0000.0001) %MON vort_a_mean                  =  -2.0549865324846E-05
(PID.TID 0000.0001) %MON vort_a_sd                    =   7.5259516180935E-05
(PID.TID 0000.0001) %MON vort_p_mean                  =  -2.4783366051136E-05
(PID.TID 0000.0001) %MON vort_p_sd                    =   1.2811913887914E-04
(PID.TID 0000.0001) %MON surfExpan_theta_mean         =  -7.5532942295529E-06
(PID.TID 0000.0001) %MON surfExpan_salt_mean          =   1.5919551265157E-06
(PID.TID 0000.0001) // =======================================================
(PID.TID 0000.0001) // End MONITOR dynamic field statistics
(PID.TID 0000.0001) // =======================================================
 cg2d: Sum(rhs),rhsMax =  -1.60552536100069E+01  8.86086681455681E+01
(PID.TID 0000.0001)      cg2d_init_res =   2.27680774205965E-01
(PID.TID 0000.0001)      cg2d_iters(min,last) =      -1      10
(PID.TID 0000.0001)      cg2d_last_res =   3.48035210442474E-08
(PID.TID 0000.0001) // =======================================================
(PID.TID 0000.0001) // Begin MONITOR dynamic field statistics
(PID.TID 0000.0001) // =======================================================
(PID.TID 0000.0001) %MON time_tsnumber                =                 72018
(PID.TID 0000.0001) %MON time_secondsf                =   6.4816200000000E+07
(PID.TID 0000.0001) %MON dynstat_eta_max              =   4.0500551139592E+00
(PID.TID 0000.0001) %MON dynstat_eta_min              =  -2.8067209338485E+00
(PID.TID 0000.0001) %MON dynstat_eta_mean             =   1.6530825906960E-02
(PID.TID 0000.0001) %MON dynstat_eta_sd               =   6.1598550243891E-01
(PID.TID 0000.0001) %MON dynstat_eta_del2             =   3.5335545582970E-03
(PID.TID 0000.0001) %MON dynstat_uvel_max             =   1.7235345705654E+00
(PID.TID 0000.0001) %MON dynstat_uvel_min             =  -8.8794654692606E-01
(PID.TID 0000.0001) %MON dynstat_uvel_mean            =  -2.7030844198698E-05
(PID.TID 0000.0001) %MON dynstat_uvel_sd              =   1.3741931830538E-02
(PID.TID 0000.0001) %MON dynstat_uvel_del2            =   1.1880842962407E-04
(PID.TID 0000.0001) %MON dynstat_vvel_max             =   8.7191731529137E-01
(PID.TID 0000.0001) %MON dynstat_vvel_min             =  -1.0184827147527E+00
(PID.TID 0000.0001) %MON dynstat_vvel_mean            =  -4.3132940207432E-04
(PID.TID 0000.0001) %MON dynstat_vvel_sd              =   1.3762252342449E-02
(PID.TID 0000.0001) %MON dynstat_vvel_del2            =   1.1763573339724E-04
(PID.TID 0000.0001) %MON dynstat_wvel_max             =   1.2409018015003E-04
(PID.TID 0000.0001) %MON dynstat_wvel_min             =  -4.8437221303240E-04
(PID.TID 0000.0001) %MON dynstat_wvel_mean            =  -3.7134066032618E-07
(PID.TID 0000.0001) %MON dynstat_wvel_sd              =   8.8407697386337E-06
(PID.TID 0000.0001) %MON dynstat_wvel_del2            =   8.1374049153274E-08
(PID.TID 0000.0001) %MON dynstat_theta_max            =   3.0922340882837E+01
(PID.TID 0000.0001) %MON dynstat_theta_min            =  -3.0082757032167E+00
(PID.TID 0000.0001) %MON dynstat_theta_mean           =   3.9090769571068E+00
(PID.TID 0000.0001) %MON dynstat_theta_sd             =   4.5711689737720E+00
(PID.TID 0000.0001) %MON dynstat_theta_del2           =   2.6474305674714E-03
(PID.TID 0000.0001) %MON dynstat_salt_max             =   4.1363684961152E+01
(PID.TID 0000.0001) %MON dynstat_salt_min             =   1.8518549647032E+01
(PID.TID 0000.0001) %MON dynstat_salt_mean            =   3.4772086632158E+01
(PID.TID 0000.0001) %MON dynstat_salt_sd              =   5.3120098837115E-01
(PID.TID 0000.0001) %MON dynstat_salt_del2            =   8.6079896787511E-04
(PID.TID 0000.0001) %MON dynstat_sst_max              =   3.0922340882837E+01
(PID.TID 0000.0001) %MON dynstat_sst_min              =  -1.8993771166283E+00
(PID.TID 0000.0001) %MON dynstat_sst_mean             =   1.8106762084467E+01
(PID.TID 0000.0001) %MON dynstat_sst_sd               =   9.8065302388520E+00
(PID.TID 0000.0001) %MON dynstat_sst_del2             =   1.5143104706625E-02
(PID.TID 0000.0001) %MON dynstat_sss_max              =   4.1363684961152E+01
(PID.TID 0000.0001) %MON dynstat_sss_min              =   1.8751385361451E+01
(PID.TID 0000.0001) %MON dynstat_sss_mean             =   3.4634005565089E+01
(PID.TID 0000.0001) %MON dynstat_sss_sd               =   1.4635215045095E+00
(PID.TID 0000.0001) %MON dynstat_sss_del2             =   8.9106280050490E-03
(PID.TID 0000.0001) %MON forcing_qnet_max             =   1.0935452148438E+04
(PID.TID 0000.0001) %MON forcing_qnet_min             =  -2.1546439607022E+03
(PID.TID 0000.0001) %MON forcing_qnet_mean            =  -5.6548796718223E+01
(PID.TID 0000.0001) %MON forcing_qnet_sd              =   3.7159211161152E+02
(PID.TID 0000.0001) %MON forcing_qnet_del2            =   1.2087342232630E+01
(PID.TID 0000.0001) %MON forcing_qsw_max              =   0.0000000000000E+00
(PID.TID 0000.0001) %MON forcing_qsw_min              =  -1.0701805470993E+02
(PID.TID 0000.0001) %MON forcing_qsw_mean             =  -2.0181992816552E+01
(PID.TID 0000.0001) %MON forcing_qsw_sd               =   2.8788761448475E+01
(PID.TID 0000.0001) %MON forcing_qsw_del2             =   2.5255305300155E-01
(PID.TID 0000.0001) %MON forcing_empmr_max            =   1.2321967631578E-02
(PID.TID 0000.0001) %MON forcing_empmr_min            =  -1.6881497204304E-01
(PID.TID 0000.0001) %MON forcing_empmr_mean           =  -4.6184862453701E-04
(PID.TID 0000.0001) %MON forcing_empmr_sd             =   6.8092437546575E-03
(PID.TID 0000.0001) %MON forcing_empmr_del2           =   2.7773827951625E-04
(PID.TID 0000.0001) %MON forcing_fu_max               =   6.3129841188697E-01
(PID.TID 0000.0001) %MON forcing_fu_min               =  -4.2718184503154E-01
(PID.TID 0000.0001) %MON forcing_fu_mean              =  -4.3364775985326E-03
(PID.TID 0000.0001) %MON forcing_fu_sd                =   7.4306878482321E-02
(PID.TID 0000.0001) %MON forcing_fu_del2              =   7.4788932159079E-04
(PID.TID 0000.0001) %MON forcing_fv_max               =   3.1384296410213E-01
(PID.TID 0000.0001) %MON forcing_fv_min               =  -3.5978388378841E-01
(PID.TID 0000.0001) %MON forcing_fv_mean              =  -1.1258379107530E-02
(PID.TID 0000.0001) %MON forcing_fv_sd                =   7.2911685318079E-02
(PID.TID 0000.0001) %MON forcing_fv_del2              =   6.4584490298586E-04
(PID.TID 0000.0001) %MON trAdv_CFL_u_max              =   5.7154547010883E-03
(PID.TID 0000.0001) %MON trAdv_CFL_v_max              =   5.8713254693271E-03
(PID.TID 0000.0001) %MON trAdv_CFL_w_max              =   4.9728258486821E-03
(PID.TID 0000.0001) %MON advcfl_uvel_max              =   5.7475855766939E-03
(PID.TID 0000.0001) %MON advcfl_vvel_max              =   3.0521578440033E-03
(PID.TID 0000.0001) %MON advcfl_wvel_max              =   5.8718251145404E-03
(PID.TID 0000.0001) %MON advcfl_W_hf_max              =   4.9728258486821E-03
(PID.TID 0000.0001) %MON pe_b_mean                    =   5.0584354794256E-04
(PID.TID 0000.0001) %MON ke_max                       =   8.3817153717634E-01
(PID.TID 0000.0001) %MON ke_mean                      =   1.7471064272130E-04
(PID.TID 0000.0001) %MON ke_vol                       =   1.3398083145714E+18
(PID.TID 0000.0001) %MON vort_r_min                   =  -8.8152340315149E-06
(PID.TID 0000.0001) %MON vort_r_max                   =   2.9860075092546E-06
(PID.TID 0000.0001) %MON vort_a_mean                  =  -2.0549865324846E-05
(PID.TID 0000.0001) %MON vort_a_sd                    =   7.5259515711589E-05
(PID.TID 0000.0001) %MON vort_p_mean                  =  -2.4783362798560E-05
(PID.TID 0000.0001) %MON vort_p_sd                    =   1.2811914359112E-04
(PID.TID 0000.0001) %MON surfExpan_theta_mean         =  -7.4976494335476E-06
(PID.TID 0000.0001) %MON surfExpan_salt_mean          =   1.5691099570435E-06
(PID.TID 0000.0001) // =======================================================
(PID.TID 0000.0001) // End MONITOR dynamic field statistics
(PID.TID 0000.0001) // =======================================================
 cg2d: Sum(rhs),rhsMax =  -1.61918567859464E+01  8.99673856778968E+01
(PID.TID 0000.0001)      cg2d_init_res =   2.06015646989231E-01
(PID.TID 0000.0001)      cg2d_iters(min,last) =      -1      10
(PID.TID 0000.0001)      cg2d_last_res =   3.10647777919906E-08
(PID.TID 0000.0001) // =======================================================
(PID.TID 0000.0001) // Begin MONITOR dynamic field statistics
(PID.TID 0000.0001) // =======================================================
(PID.TID 0000.0001) %MON time_tsnumber                =                 72019
(PID.TID 0000.0001) %MON time_secondsf                =   6.4817100000000E+07
(PID.TID 0000.0001) %MON dynstat_eta_max              =   4.1108770620274E+00
(PID.TID 0000.0001) %MON dynstat_eta_min              =  -3.2618808141562E+00
(PID.TID 0000.0001) %MON dynstat_eta_mean             =   1.6927114341515E-02
(PID.TID 0000.0001) %MON dynstat_eta_sd               =   6.1731886152609E-01
(PID.TID 0000.0001) %MON dynstat_eta_del2             =   3.6753860332517E-03
(PID.TID 0000.0001) %MON dynstat_uvel_max             =   1.6087375219338E+00
(PID.TID 0000.0001) %MON dynstat_uvel_min             =  -8.4973154347927E-01
(PID.TID 0000.0001) %MON dynstat_uvel_mean            =  -9.3976106037340E-06
(PID.TID 0000.0001) %MON dynstat_uvel_sd              =   1.3601776634938E-02
(PID.TID 0000.0001) %MON dynstat_uvel_del2            =   1.1346725891506E-04
(PID.TID 0000.0001) %MON dynstat_vvel_max             =   7.5321203264379E-01
(PID.TID 0000.0001) %MON dynstat_vvel_min             =  -8.5969422647420E-01
(PID.TID 0000.0001) %MON dynstat_vvel_mean            =  -4.3051342423264E-04
(PID.TID 0000.0001) %MON dynstat_vvel_sd              =   1.3719201925324E-02
(PID.TID 0000.0001) %MON dynstat_vvel_del2            =   1.1089738892014E-04
(PID.TID 0000.0001) %MON dynstat_wvel_max             =   1.1027554754282E-04
(PID.TID 0000.0001) %MON dynstat_wvel_min             =  -4.4421333212812E-04
(PID.TID 0000.0001) %MON dynstat_wvel_mean            =  -3.5572050692349E-07
(PID.TID 0000.0001) %MON dynstat_wvel_sd              =   8.9927083253826E-06
(PID.TID 0000.0001) %MON dynstat_wvel_del2            =   8.1956703469881E-08
(PID.TID 0000.0001) %MON dynstat_theta_max            =   3.0922257847125E+01
(PID.TID 0000.0001) %MON dynstat_theta_min            =  -3.0077987607907E+00
(PID.TID 0000.0001) %MON dynstat_theta_mean           =   3.9090823147396E+00
(PID.TID 0000.0001) %MON dynstat_theta_sd             =   4.5711902373258E+00
(PID.TID 0000.0001) %MON dynstat_theta_del2           =   2.6472985357588E-03
(PID.TID 0000.0001) %MON dynstat_salt_max             =   4.1362937319741E+01
(PID.TID 0000.0001) %MON dynstat_salt_min             =   1.8518559503706E+01
(PID.TID 0000.0001) %MON dynstat_salt_mean            =   3.4772081398954E+01
(PID.TID 0000.0001) %MON dynstat_salt_sd              =   5.3122081136342E-01
(PID.TID 0000.0001) %MON dynstat_salt_del2            =   8.6610348447875E-04
(PID.TID 0000.0001) %MON dynstat_sst_max              =   3.0922257847125E+01
(PID.TID 0000.0001) %MON dynstat_sst_min              =  -1.8993461112669E+00
(PID.TID 0000.0001) %MON dynstat_sst_mean             =   1.8106993776322E+01
(PID.TID 0000.0001) %MON dynstat_sst_sd               =   9.8067844295630E+00
(PID.TID 0000.0001) %MON dynstat_sst_del2             =   1.5140114085310E-02
(PID.TID 0000.0001) %MON dynstat_sss_max              =   4.1362937319741E+01
(PID.TID 0000.0001) %MON dynstat_sss_min              =   1.8751386033422E+01
(PID.TID 0000.0001) %MON dynstat_sss_mean             =   3.4633625254348E+01
(PID.TID 0000.0001) %MON dynstat_sss_sd               =   1.4640153629039E+00
(PID.TID 0000.0001) %MON dynstat_sss_del2             =   8.9913539921895E-03
(PID.TID 0000.0001) %MON forcing_qnet_max             =   9.6649980468750E+03
(PID.TID 0000.0001) %MON forcing_qnet_min             =  -2.0874858095879E+03
(PID.TID 0000.0001) %MON forcing_qnet_mean            =  -5.2326603767825E+01
(PID.TID 0000.0001) %MON forcing_qnet_sd              =   3.5137554429268E+02
(PID.TID 0000.0001) %MON forcing_qnet_del2            =   1.1085829664851E+01
(PID.TID 0000.0001) %MON forcing_qsw_max              =   0.0000000000000E+00
(PID.TID 0000.0001) %MON forcing_qsw_min              =  -1.0700288660256E+02
(PID.TID 0000.0001) %MON forcing_qsw_mean             =  -1.9884648807977E+01
(PID.TID 0000.0001) %MON forcing_qsw_sd               =   2.8480916580099E+01
(PID.TID 0000.0001) %MON forcing_qsw_del2             =   2.5468615266799E-01
(PID.TID 0000.0001) %MON forcing_empmr_max            =   1.1911798268557E-02
(PID.TID 0000.0001) %MON forcing_empmr_min            =  -1.6352695226669E-01
(PID.TID 0000.0001) %MON forcing_empmr_mean           =  -4.5573169973892E-04
(PID.TID 0000.0001) %MON forcing_empmr_sd             =   6.7103509567771E-03
(PID.TID 0000.0001) %MON forcing_empmr_del2           =   2.7358280871801E-04
(PID.TID 0000.0001) %MON forcing_fu_max               =   6.1942740962189E-01
(PID.TID 0000.0001) %MON forcing_fu_min               =  -4.2054129041297E-01
(PID.TID 0000.0001) %MON forcing_fu_mean              =  -4.2797645528096E-03
(PID.TID 0000.0001) %MON forcing_fu_sd                =   7.3823133809232E-02
(PID.TID 0000.0001) %MON forcing_fu_del2              =   7.4025071454198E-04
(PID.TID 0000.0001) %MON forcing_fv_max               =   3.1045905010668E-01
(PID.TID 0000.0001) %MON forcing_fv_min               =  -3.6075192596317E-01
(PID.TID 0000.0001) %MON forcing_fv_mean              =  -1.1188878300380E-02
(PID.TID 0000.0001) %MON forcing_fv_sd                =   7.2418563372863E-02
(PID.TID 0000.0001) %MON forcing_fv_del2              =   6.4085227495038E-04
(PID.TID 0000.0001) %MON trAdv_CFL_u_max              =   5.3476744259195E-03
(PID.TID 0000.0001) %MON trAdv_CFL_v_max              =   5.0350828239367E-03
(PID.TID 0000.0001) %MON trAdv_CFL_w_max              =   4.6731950595176E-03
(PID.TID 0000.0001) %MON advcfl_uvel_max              =   5.3647642093536E-03
(PID.TID 0000.0001) %MON advcfl_vvel_max              =   2.6304653127084E-03
(PID.TID 0000.0001) %MON advcfl_wvel_max              =   5.6878939918850E-03
(PID.TID 0000.0001) %MON advcfl_W_hf_max              =   4.6731950595176E-03
(PID.TID 0000.0001) %MON pe_b_mean                    =   5.0805184102749E-04
(PID.TID 0000.0001) %MON ke_max                       =   7.4236026547424E-01
(PID.TID 0000.0001) %MON ke_mean                      =   1.7240057186546E-04
(PID.TID 0000.0001) %MON ke_vol                       =   1.3398084607111E+18
(PID.TID 0000.0001) %MON vort_r_min                   =  -8.7166446774808E-06
(PID.TID 0000.0001) %MON vort_r_max                   =   2.9075058042673E-06
(PID.TID 0000.0001) %MON vort_a_mean                  =  -2.0549865324846E-05
(PID.TID 0000.0001) %MON vort_a_sd                    =   7.5259515348334E-05
(PID.TID 0000.0001) %MON vort_p_mean                  =  -2.4783359669870E-05
(PID.TID 0000.0001) %MON vort_p_sd                    =   1.2811914724046E-04
(PID.TID 0000.0001) %MON surfExpan_theta_mean         =  -7.4353739797953E-06
(PID.TID 0000.0001) %MON surfExpan_salt_mean          =   1.5406852991001E-06
(PID.TID 0000.0001) // =======================================================
(PID.TID 0000.0001) // End MONITOR dynamic field statistics
(PID.TID 0000.0001) // =======================================================
 Computing Diagnostic #     81  oceTAUX      Counter:       1   Parms: UU      U1      
           Vector  Mate for  oceTAUX      Diagnostic #     82  oceTAUY  exists 
 Computing Diagnostic #     82  oceTAUY      Counter:       1   Parms: VV      U1      
           Vector  Mate for  oceTAUY      Diagnostic #     81  oceTAUX  exists 
 Computing Diagnostic #     85  oceFWflx     Counter:       1   Parms: SM      U1      
 Computing Diagnostic #     86  oceSflux     Counter:       1   Parms: SM      U1      
 Computing Diagnostic #     87  oceQnet      Counter:       1   Parms: SM      U1      
 Computing Diagnostic #     88  oceQsw       Counter:       1   Parms: SM      U1      
 Computing Diagnostic #     27  SALT         Counter:       1   Parms: SMR     MR      
 Computing Diagnostic #     26  THETA        Counter:       1   Parms: SMR     MR      
 Computing Diagnostic #     45  UVELMASS     Counter:       1   Parms: UUr     MR      
           Vector  Mate for  UVELMASS     Diagnostic #     46  VVELMASS exists 
 Computing Diagnostic #     46  VVELMASS     Counter:       1   Parms: VVr     MR      
           Vector  Mate for  VVELMASS     Diagnostic #     45  UVELMASS exists 
 cg2d: Sum(rhs),rhsMax =  -1.64948077131928E+01  9.03589353684135E+01
(PID.TID 0000.0001)      cg2d_init_res =   1.93330466755965E-01
(PID.TID 0000.0001)      cg2d_iters(min,last) =      -1      10
(PID.TID 0000.0001)      cg2d_last_res =   3.08935525197542E-08
(PID.TID 0000.0001) // =======================================================
(PID.TID 0000.0001) // Begin MONITOR dynamic field statistics
(PID.TID 0000.0001) // =======================================================
(PID.TID 0000.0001) %MON time_tsnumber                =                 72020
(PID.TID 0000.0001) %MON time_secondsf                =   6.4818000000000E+07
(PID.TID 0000.0001) %MON dynstat_eta_max              =   4.1278929374804E+00
(PID.TID 0000.0001) %MON dynstat_eta_min              =  -3.6436950275256E+00
(PID.TID 0000.0001) %MON dynstat_eta_mean             =   1.7318869338103E-02
(PID.TID 0000.0001) %MON dynstat_eta_sd               =   6.1851762746288E-01
(PID.TID 0000.0001) %MON dynstat_eta_del2             =   3.7742039704373E-03
(PID.TID 0000.0001) %MON dynstat_uvel_max             =   1.4769459442885E+00
(PID.TID 0000.0001) %MON dynstat_uvel_min             =  -8.0670789426723E-01
(PID.TID 0000.0001) %MON dynstat_uvel_mean            =   5.3741447896968E-06
(PID.TID 0000.0001) %MON dynstat_uvel_sd              =   1.3467070030066E-02
(PID.TID 0000.0001) %MON dynstat_uvel_del2            =   1.0832742139812E-04
(PID.TID 0000.0001) %MON dynstat_vvel_max             =   6.2941913040881E-01
(PID.TID 0000.0001) %MON dynstat_vvel_min             =  -8.4047484215691E-01
(PID.TID 0000.0001) %MON dynstat_vvel_mean            =  -4.2987303291943E-04
(PID.TID 0000.0001) %MON dynstat_vvel_sd              =   1.3699838320186E-02
(PID.TID 0000.0001) %MON dynstat_vvel_del2            =   1.0603380914822E-04
(PID.TID 0000.0001) %MON dynstat_wvel_max             =   1.0744276659578E-04
(PID.TID 0000.0001) %MON dynstat_wvel_min             =  -4.0080787221112E-04
(PID.TID 0000.0001) %MON dynstat_wvel_mean            =  -3.4013650243040E-07
(PID.TID 0000.0001) %MON dynstat_wvel_sd              =   9.1210998466528E-06
(PID.TID 0000.0001) %MON dynstat_wvel_del2            =   8.2351728055156E-08
(PID.TID 0000.0001) %MON dynstat_theta_max            =   3.0922191018568E+01
(PID.TID 0000.0001) %MON dynstat_theta_min            =  -3.0073575956133E+00
(PID.TID 0000.0001) %MON dynstat_theta_mean           =   3.9090873291274E+00
(PID.TID 0000.0001) %MON dynstat_theta_sd             =   4.5712097436988E+00
(PID.TID 0000.0001) %MON dynstat_theta_del2           =   2.6471625670416E-03
(PID.TID 0000.0001) %MON dynstat_salt_max             =   4.1362237630108E+01
(PID.TID 0000.0001) %MON dynstat_salt_min             =   1.8518569358157E+01
(PID.TID 0000.0001) %MON dynstat_salt_mean            =   3.4772076299804E+01
(PID.TID 0000.0001) %MON dynstat_salt_sd              =   5.3124073533259E-01
(PID.TID 0000.0001) %MON dynstat_salt_del2            =   8.7147462205635E-04
(PID.TID 0000.0001) %MON dynstat_sst_max              =   3.0922191018568E+01
(PID.TID 0000.0001) %MON dynstat_sst_min              =  -1.8993127897982E+00
(PID.TID 0000.0001) %MON dynstat_sst_mean             =   1.8107204542087E+01
(PID.TID 0000.0001) %MON dynstat_sst_sd               =   9.8070116676240E+00
(PID.TID 0000.0001) %MON dynstat_sst_del2             =   1.5137011399687E-02
(PID.TID 0000.0001) %MON dynstat_sss_max              =   4.1362237630108E+01
(PID.TID 0000.0001) %MON dynstat_sss_min              =   1.8751386660242E+01
(PID.TID 0000.0001) %MON dynstat_sss_mean             =   3.4633254739020E+01
(PID.TID 0000.0001) %MON dynstat_sss_sd               =   1.4645126684958E+00
(PID.TID 0000.0001) %MON dynstat_sss_del2             =   9.0728782367688E-03
(PID.TID 0000.0001) %MON forcing_qnet_max             =   5.2603925781250E+03
(PID.TID 0000.0001) %MON forcing_qnet_min             =  -2.0573219959186E+03
(PID.TID 0000.0001) %MON forcing_qnet_mean            =  -4.6900424588739E+01
(PID.TID 0000.0001) %MON forcing_qnet_sd              =   3.2111631831946E+02
(PID.TID 0000.0001) %MON forcing_qnet_del2            =   9.4264351887013E+00
(PID.TID 0000.0001) %MON forcing_qsw_max              =   0.0000000000000E+00
(PID.TID 0000.0001) %MON forcing_qsw_min              =  -1.0655614839025E+02
(PID.TID 0000.0001) %MON forcing_qsw_mean             =  -1.9540941800950E+01
(PID.TID 0000.0001) %MON forcing_qsw_sd               =   2.8121957120729E+01
(PID.TID 0000.0001) %MON forcing_qsw_del2             =   2.5631489264452E-01
(PID.TID 0000.0001) %MON forcing_empmr_max            =   1.1540195904672E-02
(PID.TID 0000.0001) %MON forcing_empmr_min            =  -1.5889342129230E-01
(PID.TID 0000.0001) %MON forcing_empmr_mean           =  -4.5051824607591E-04
(PID.TID 0000.0001) %MON forcing_empmr_sd             =   6.6142221304561E-03
(PID.TID 0000.0001) %MON forcing_empmr_del2           =   2.6947371657877E-04
(PID.TID 0000.0001) %MON forcing_fu_max               =   6.0528319458423E-01
(PID.TID 0000.0001) %MON forcing_fu_min               =  -4.1615615272000E-01
(PID.TID 0000.0001) %MON forcing_fu_mean              =  -4.2390806568475E-03
(PID.TID 0000.0001) %MON forcing_fu_sd                =   7.3420748758455E-02
(PID.TID 0000.0001) %MON forcing_fu_del2              =   7.3320326295315E-04
(PID.TID 0000.0001) %MON forcing_fv_max               =   3.0316105621801E-01
(PID.TID 0000.0001) %MON forcing_fv_min               =  -3.5626986842584E-01
(PID.TID 0000.0001) %MON forcing_fv_mean              =  -1.1148320825058E-02
(PID.TID 0000.0001) %MON forcing_fv_sd                =   7.1901411326743E-02
(PID.TID 0000.0001) %MON forcing_fv_del2              =   6.3526117339302E-04
(PID.TID 0000.0001) %MON trAdv_CFL_u_max              =   4.9211263611988E-03
(PID.TID 0000.0001) %MON trAdv_CFL_v_max              =   4.1421831264659E-03
(PID.TID 0000.0001) %MON trAdv_CFL_w_max              =   4.3724556759665E-03
(PID.TID 0000.0001) %MON advcfl_uvel_max              =   4.9252700537153E-03
(PID.TID 0000.0001) %MON advcfl_vvel_max              =   2.8719069506632E-03
(PID.TID 0000.0001) %MON advcfl_wvel_max              =   5.5267276971237E-03
(PID.TID 0000.0001) %MON advcfl_W_hf_max              =   4.3724556759665E-03
(PID.TID 0000.0001) %MON pe_b_mean                    =   5.1004325321014E-04
(PID.TID 0000.0001) %MON ke_max                       =   6.8537442789524E-01
(PID.TID 0000.0001) %MON ke_mean                      =   1.7047885742018E-04
(PID.TID 0000.0001) %MON ke_vol                       =   1.3398086049152E+18
(PID.TID 0000.0001) %MON vort_r_min                   =  -8.4995625534444E-06
(PID.TID 0000.0001) %MON vort_r_max                   =   2.9133379773263E-06
(PID.TID 0000.0001) %MON vort_a_mean                  =  -2.0549865324846E-05
(PID.TID 0000.0001) %MON vort_a_sd                    =   7.5259514936889E-05
(PID.TID 0000.0001) %MON vort_p_mean                  =  -2.4783356657201E-05
(PID.TID 0000.0001) %MON vort_p_sd                    =   1.2811914770097E-04
(PID.TID 0000.0001) %MON surfExpan_theta_mean         =  -7.3902106650118E-06
(PID.TID 0000.0001) %MON surfExpan_salt_mean          =   1.5096698987715E-06
(PID.TID 0000.0001) // =======================================================
(PID.TID 0000.0001) // End MONITOR dynamic field statistics
(PID.TID 0000.0001) // =======================================================
 cg2d: Sum(rhs),rhsMax =  -1.69702918649583E+01  8.97878021082044E+01
(PID.TID 0000.0001)      cg2d_init_res =   1.87163171995045E-01
(PID.TID 0000.0001)      cg2d_iters(min,last) =      -1      10
(PID.TID 0000.0001)      cg2d_last_res =   3.42678369584973E-08
(PID.TID 0000.0001) // =======================================================
(PID.TID 0000.0001) // Begin MONITOR dynamic field statistics
(PID.TID 0000.0001) // =======================================================
(PID.TID 0000.0001) %MON time_tsnumber                =                 72021
(PID.TID 0000.0001) %MON time_secondsf                =   6.4818900000000E+07
(PID.TID 0000.0001) %MON dynstat_eta_max              =   4.1012863542214E+00
(PID.TID 0000.0001) %MON dynstat_eta_min              =  -3.9491087026585E+00
(PID.TID 0000.0001) %MON dynstat_eta_mean             =   1.7705484912066E-02
(PID.TID 0000.0001) %MON dynstat_eta_sd               =   6.1956018886200E-01
(PID.TID 0000.0001) %MON dynstat_eta_del2             =   3.8319789128451E-03
(PID.TID 0000.0001) %MON dynstat_uvel_max             =   1.3297409562399E+00
(PID.TID 0000.0001) %MON dynstat_uvel_min             =  -7.5976934745453E-01
(PID.TID 0000.0001) %MON dynstat_uvel_mean            =   1.6582704980861E-05
(PID.TID 0000.0001) %MON dynstat_uvel_sd              =   1.3339953606615E-02
(PID.TID 0000.0001) %MON dynstat_uvel_del2            =   1.0350832791639E-04
(PID.TID 0000.0001) %MON dynstat_vvel_max             =   5.0290023865342E-01
(PID.TID 0000.0001) %MON dynstat_vvel_min             =  -8.9603110349018E-01
(PID.TID 0000.0001) %MON dynstat_vvel_mean            =  -4.2986257492420E-04
(PID.TID 0000.0001) %MON dynstat_vvel_sd              =   1.3701973699969E-02
(PID.TID 0000.0001) %MON dynstat_vvel_del2            =   1.0318587317785E-04
(PID.TID 0000.0001) %MON dynstat_wvel_max             =   1.0635466744900E-04
(PID.TID 0000.0001) %MON dynstat_wvel_min             =  -3.6937411234615E-04
(PID.TID 0000.0001) %MON dynstat_wvel_mean            =  -3.2381944598989E-07
(PID.TID 0000.0001) %MON dynstat_wvel_sd              =   9.1943437784574E-06
(PID.TID 0000.0001) %MON dynstat_wvel_del2            =   8.2367995352373E-08
(PID.TID 0000.0001) %MON dynstat_theta_max            =   3.0922158155315E+01
(PID.TID 0000.0001) %MON dynstat_theta_min            =  -3.0069714105957E+00
(PID.TID 0000.0001) %MON dynstat_theta_mean           =   3.9090920098416E+00
(PID.TID 0000.0001) %MON dynstat_theta_sd             =   4.5712278771946E+00
(PID.TID 0000.0001) %MON dynstat_theta_del2           =   2.6470145708054E-03
(PID.TID 0000.0001) %MON dynstat_salt_max             =   4.1361586936498E+01
(PID.TID 0000.0001) %MON dynstat_salt_min             =   1.8518579215597E+01
(PID.TID 0000.0001) %MON dynstat_salt_mean            =   3.4772071371502E+01
(PID.TID 0000.0001) %MON dynstat_salt_sd              =   5.3126078610060E-01
(PID.TID 0000.0001) %MON dynstat_salt_del2            =   8.7689813838465E-04
(PID.TID 0000.0001) %MON dynstat_sst_max              =   3.0922158155315E+01
(PID.TID 0000.0001) %MON dynstat_sst_min              =  -1.8992752252683E+00
(PID.TID 0000.0001) %MON dynstat_sst_mean             =   1.8107398918417E+01
(PID.TID 0000.0001) %MON dynstat_sst_sd               =   9.8072253261905E+00
(PID.TID 0000.0001) %MON dynstat_sst_del2             =   1.5133625477359E-02
(PID.TID 0000.0001) %MON dynstat_sss_max              =   4.1361586936498E+01
(PID.TID 0000.0001) %MON dynstat_sss_min              =   1.8751387284566E+01
(PID.TID 0000.0001) %MON dynstat_sss_mean             =   3.4632898063242E+01
(PID.TID 0000.0001) %MON dynstat_sss_sd               =   1.4650160503686E+00
(PID.TID 0000.0001) %MON dynstat_sss_del2             =   9.1549821971980E-03
(PID.TID 0000.0001) %MON forcing_qnet_max             =   3.2228539401510E+03
(PID.TID 0000.0001) %MON forcing_qnet_min             =  -3.0845292968750E+03
(PID.TID 0000.0001) %MON forcing_qnet_mean            =  -4.1717776285299E+01
(PID.TID 0000.0001) %MON forcing_qnet_sd              =   2.9830198303802E+02
(PID.TID 0000.0001) %MON forcing_qnet_del2            =   8.3047028348787E+00
(PID.TID 0000.0001) %MON forcing_qsw_max              =   0.0000000000000E+00
(PID.TID 0000.0001) %MON forcing_qsw_min              =  -1.0896183818655E+02
(PID.TID 0000.0001) %MON forcing_qsw_mean             =  -1.8936699780212E+01
(PID.TID 0000.0001) %MON forcing_qsw_sd               =   2.7466815004179E+01
(PID.TID 0000.0001) %MON forcing_qsw_del2             =   2.6098564459375E-01
(PID.TID 0000.0001) %MON forcing_empmr_max            =   1.1099725961685E-02
(PID.TID 0000.0001) %MON forcing_empmr_min            =  -1.5456403791904E-01
(PID.TID 0000.0001) %MON forcing_empmr_mean           =  -4.4460791005837E-04
(PID.TID 0000.0001) %MON forcing_empmr_sd             =   6.5100369661184E-03
(PID.TID 0000.0001) %MON forcing_empmr_del2           =   2.6478270793931E-04
(PID.TID 0000.0001) %MON forcing_fu_max               =   5.8928539912700E-01
(PID.TID 0000.0001) %MON forcing_fu_min               =  -4.1203675513235E-01
(PID.TID 0000.0001) %MON forcing_fu_mean              =  -4.1927670891223E-03
(PID.TID 0000.0001) %MON forcing_fu_sd                =   7.2913042732052E-02
(PID.TID 0000.0001) %MON forcing_fu_del2              =   7.2428691448007E-04
(PID.TID 0000.0001) %MON forcing_fv_max               =   3.0707383759415E-01
(PID.TID 0000.0001) %MON forcing_fv_min               =  -3.5257720467245E-01
(PID.TID 0000.0001) %MON forcing_fv_mean              =  -1.1137455225355E-02
(PID.TID 0000.0001) %MON forcing_fv_sd                =   7.1364878038028E-02
(PID.TID 0000.0001) %MON forcing_fv_del2              =   6.2946113225411E-04
(PID.TID 0000.0001) %MON trAdv_CFL_u_max              =   4.4405978506991E-03
(PID.TID 0000.0001) %MON trAdv_CFL_v_max              =   3.2116296472123E-03
(PID.TID 0000.0001) %MON trAdv_CFL_w_max              =   4.0698195605092E-03
(PID.TID 0000.0001) %MON advcfl_uvel_max              =   4.4343757713639E-03
(PID.TID 0000.0001) %MON advcfl_vvel_max              =   3.0617429874760E-03
(PID.TID 0000.0001) %MON advcfl_wvel_max              =   5.3761404493581E-03
(PID.TID 0000.0001) %MON advcfl_W_hf_max              =   4.0698195605092E-03
(PID.TID 0000.0001) %MON pe_b_mean                    =   5.1178077685165E-04
(PID.TID 0000.0001) %MON ke_max                       =   6.2718262751283E-01
(PID.TID 0000.0001) %MON ke_mean                      =   1.6894069018322E-04
(PID.TID 0000.0001) %MON ke_vol                       =   1.3398087474696E+18
(PID.TID 0000.0001) %MON vort_r_min                   =  -8.1686058901826E-06
(PID.TID 0000.0001) %MON vort_r_max                   =   2.9413368507332E-06
(PID.TID 0000.0001) %MON vort_a_mean                  =  -2.0549865324846E-05
(PID.TID 0000.0001) %MON vort_a_sd                    =   7.5259514324540E-05
(PID.TID 0000.0001) %MON vort_p_mean                  =  -2.4783353744268E-05
(PID.TID 0000.0001) %MON vort_p_sd                    =   1.2811914354404E-04
(PID.TID 0000.0001) %MON surfExpan_theta_mean         =  -7.3371808473975E-06
(PID.TID 0000.0001) %MON surfExpan_salt_mean          =   1.4762164882991E-06
(PID.TID 0000.0001) // =======================================================
(PID.TID 0000.0001) // End MONITOR dynamic field statistics
(PID.TID 0000.0001) // =======================================================
 cg2d: Sum(rhs),rhsMax =  -1.76319178616870E+01  8.82770628129742E+01
(PID.TID 0000.0001)      cg2d_init_res =   1.84844085901365E-01
(PID.TID 0000.0001)      cg2d_iters(min,last) =      -1       9
(PID.TID 0000.0001)      cg2d_last_res =   8.97762044018050E-08
(PID.TID 0000.0001) // =======================================================
(PID.TID 0000.0001) // Begin MONITOR dynamic field statistics
(PID.TID 0000.0001) // =======================================================
(PID.TID 0000.0001) %MON time_tsnumber                =                 72022
(PID.TID 0000.0001) %MON time_secondsf                =   6.4819800000000E+07
(PID.TID 0000.0001) %MON dynstat_eta_max              =   4.0320832469042E+00
(PID.TID 0000.0001) %MON dynstat_eta_min              =  -4.1760452969828E+00
(PID.TID 0000.0001) %MON dynstat_eta_mean             =   1.8086253011794E-02
(PID.TID 0000.0001) %MON dynstat_eta_sd               =   6.2044169549369E-01
(PID.TID 0000.0001) %MON dynstat_eta_del2             =   3.8518854182016E-03
(PID.TID 0000.0001) %MON dynstat_uvel_max             =   1.1691747970710E+00
(PID.TID 0000.0001) %MON dynstat_uvel_min             =  -7.0978455764124E-01
(PID.TID 0000.0001) %MON dynstat_uvel_mean            =   2.3558585930366E-05
(PID.TID 0000.0001) %MON dynstat_uvel_sd              =   1.3221803267266E-02
(PID.TID 0000.0001) %MON dynstat_uvel_del2            =   9.9102392376405E-05
(PID.TID 0000.0001) %MON dynstat_vvel_max             =   3.7590169612504E-01
(PID.TID 0000.0001) %MON dynstat_vvel_min             =  -9.3636997571723E-01
(PID.TID 0000.0001) %MON dynstat_vvel_mean            =  -4.3077303519953E-04
(PID.TID 0000.0001) %MON dynstat_vvel_sd              =   1.3722033318706E-02
(PID.TID 0000.0001) %MON dynstat_vvel_del2            =   1.0227764365822E-04
(PID.TID 0000.0001) %MON dynstat_wvel_max             =   1.0653925523484E-04
(PID.TID 0000.0001) %MON dynstat_wvel_min             =  -4.0942443199085E-04
(PID.TID 0000.0001) %MON dynstat_wvel_mean            =  -3.0638383936178E-07
(PID.TID 0000.0001) %MON dynstat_wvel_sd              =   9.1980592015347E-06
(PID.TID 0000.0001) %MON dynstat_wvel_del2            =   8.1977075529970E-08
(PID.TID 0000.0001) %MON dynstat_theta_max            =   3.0922143030210E+01
(PID.TID 0000.0001) %MON dynstat_theta_min            =  -3.0066519397037E+00
(PID.TID 0000.0001) %MON dynstat_theta_mean           =   3.9090966037809E+00
(PID.TID 0000.0001) %MON dynstat_theta_sd             =   4.5712457258665E+00
(PID.TID 0000.0001) %MON dynstat_theta_del2           =   2.6468493662669E-03
(PID.TID 0000.0001) %MON dynstat_salt_max             =   4.1360984200035E+01
(PID.TID 0000.0001) %MON dynstat_salt_min             =   1.8518589082716E+01
(PID.TID 0000.0001) %MON dynstat_salt_mean            =   3.4772066652372E+01
(PID.TID 0000.0001) %MON dynstat_salt_sd              =   5.3128089159122E-01
(PID.TID 0000.0001) %MON dynstat_salt_del2            =   8.8237194133305E-04
(PID.TID 0000.0001) %MON dynstat_sst_max              =   3.0922143030210E+01
(PID.TID 0000.0001) %MON dynstat_sst_min              =  -1.8992337143743E+00
(PID.TID 0000.0001) %MON dynstat_sst_mean             =   1.8107589992813E+01
(PID.TID 0000.0001) %MON dynstat_sst_sd               =   9.8074327918523E+00
(PID.TID 0000.0001) %MON dynstat_sst_del2             =   1.5129772453003E-02
(PID.TID 0000.0001) %MON dynstat_sss_max              =   4.1360984200035E+01
(PID.TID 0000.0001) %MON dynstat_sss_min              =   1.8751387879043E+01
(PID.TID 0000.0001) %MON dynstat_sss_mean             =   3.4632556021042E+01
(PID.TID 0000.0001) %MON dynstat_sss_sd               =   1.4655208083036E+00
(PID.TID 0000.0001) %MON dynstat_sss_del2             =   9.2376294577926E-03
(PID.TID 0000.0001) %MON forcing_qnet_max             =   3.1771322056527E+03
(PID.TID 0000.0001) %MON forcing_qnet_min             =  -1.0439088867188E+04
(PID.TID 0000.0001) %MON forcing_qnet_mean            =  -4.0774766831554E+01
(PID.TID 0000.0001) %MON forcing_qnet_sd              =   3.3497518446481E+02
(PID.TID 0000.0001) %MON forcing_qnet_del2            =   1.0503790674463E+01
(PID.TID 0000.0001) %MON forcing_qsw_max              =   0.0000000000000E+00
(PID.TID 0000.0001) %MON forcing_qsw_min              =  -1.0946487536905E+02
(PID.TID 0000.0001) %MON forcing_qsw_mean             =  -1.8703469508535E+01
(PID.TID 0000.0001) %MON forcing_qsw_sd               =   2.7152416397354E+01
(PID.TID 0000.0001) %MON forcing_qsw_del2             =   2.6259888943375E-01
(PID.TID 0000.0001) %MON forcing_empmr_max            =   1.0533392429352E-02
(PID.TID 0000.0001) %MON forcing_empmr_min            =  -1.5110269188881E-01
(PID.TID 0000.0001) %MON forcing_empmr_mean           =  -4.3788331468683E-04
(PID.TID 0000.0001) %MON forcing_empmr_sd             =   6.4086729780185E-03
(PID.TID 0000.0001) %MON forcing_empmr_del2           =   2.6014609649640E-04
(PID.TID 0000.0001) %MON forcing_fu_max               =   5.7624851397131E-01
(PID.TID 0000.0001) %MON forcing_fu_min               =  -4.0798640278554E-01
(PID.TID 0000.0001) %MON forcing_fu_mean              =  -4.1744577956797E-03
(PID.TID 0000.0001) %MON forcing_fu_sd                =   7.2411401886892E-02
(PID.TID 0000.0001) %MON forcing_fu_del2              =   7.1688710837029E-04
(PID.TID 0000.0001) %MON forcing_fv_max               =   3.0990533790907E-01
(PID.TID 0000.0001) %MON forcing_fv_min               =  -3.4398688896544E-01
(PID.TID 0000.0001) %MON forcing_fv_mean              =  -1.1145062674615E-02
(PID.TID 0000.0001) %MON forcing_fv_sd                =   7.0801192506181E-02
(PID.TID 0000.0001) %MON forcing_fv_del2              =   6.2335861939289E-04
(PID.TID 0000.0001) %MON trAdv_CFL_u_max              =   3.9124960394554E-03
(PID.TID 0000.0001) %MON trAdv_CFL_v_max              =   3.0522849158265E-03
(PID.TID 0000.0001) %MON trAdv_CFL_w_max              =   3.7652977158863E-03
(PID.TID 0000.0001) %MON advcfl_uvel_max              =   3.8989251013834E-03
(PID.TID 0000.0001) %MON advcfl_vvel_max              =   3.1995811257759E-03
(PID.TID 0000.0001) %MON advcfl_wvel_max              =   5.2557458048281E-03
(PID.TID 0000.0001) %MON advcfl_W_hf_max              =   3.7652977158863E-03
(PID.TID 0000.0001) %MON pe_b_mean                    =   5.1325504258775E-04
(PID.TID 0000.0001) %MON ke_max                       =   5.6974690052339E-01
(PID.TID 0000.0001) %MON ke_mean                      =   1.6775473075910E-04
(PID.TID 0000.0001) %MON ke_vol                       =   1.3398088881539E+18
(PID.TID 0000.0001) %MON vort_r_min                   =  -7.7307832544765E-06
(PID.TID 0000.0001) %MON vort_r_max                   =   2.9494950237590E-06
(PID.TID 0000.0001) %MON vort_a_mean                  =  -2.0549865324846E-05
(PID.TID 0000.0001) %MON vort_a_sd                    =   7.5259513396121E-05
(PID.TID 0000.0001) %MON vort_p_mean                  =  -2.4783350925582E-05
(PID.TID 0000.0001) %MON vort_p_sd                    =   1.2811913425773E-04
(PID.TID 0000.0001) %MON surfExpan_theta_mean         =  -7.2709589710654E-06
(PID.TID 0000.0001) %MON surfExpan_salt_mean          =   1.4410615559899E-06
(PID.TID 0000.0001) // =======================================================
(PID.TID 0000.0001) // End MONITOR dynamic field statistics
(PID.TID 0000.0001) // =======================================================
 cg2d: Sum(rhs),rhsMax =  -1.85046441842288E+01  8.58669679910739E+01
(PID.TID 0000.0001)      cg2d_init_res =   1.84594791205516E-01
(PID.TID 0000.0001)      cg2d_iters(min,last) =      -1      10
(PID.TID 0000.0001)      cg2d_last_res =   3.83704405275593E-08
(PID.TID 0000.0001) // =======================================================
(PID.TID 0000.0001) // Begin MONITOR dynamic field statistics
(PID.TID 0000.0001) // =======================================================
(PID.TID 0000.0001) %MON time_tsnumber                =                 72023
(PID.TID 0000.0001) %MON time_secondsf                =   6.4820700000000E+07
(PID.TID 0000.0001) %MON dynstat_eta_max              =   3.9220884850024E+00
(PID.TID 0000.0001) %MON dynstat_eta_min              =  -4.3234755389073E+00
(PID.TID 0000.0001) %MON dynstat_eta_mean             =   1.8463245309550E-02
(PID.TID 0000.0001) %MON dynstat_eta_sd               =   6.2115982610851E-01
(PID.TID 0000.0001) %MON dynstat_eta_del2             =   3.8368493259291E-03
(PID.TID 0000.0001) %MON dynstat_uvel_max             =   9.9777486656963E-01
(PID.TID 0000.0001) %MON dynstat_uvel_min             =  -6.5760187833985E-01
(PID.TID 0000.0001) %MON dynstat_uvel_mean            =   2.5768625848921E-05
(PID.TID 0000.0001) %MON dynstat_uvel_sd              =   1.3114224197750E-02
(PID.TID 0000.0001) %MON dynstat_uvel_del2            =   9.5189195333802E-05
(PID.TID 0000.0001) %MON dynstat_vvel_max             =   3.1406656460435E-01
(PID.TID 0000.0001) %MON dynstat_vvel_min             =  -9.6146383565459E-01
(PID.TID 0000.0001) %MON dynstat_vvel_mean            =  -4.3271207179715E-04
(PID.TID 0000.0001) %MON dynstat_vvel_sd              =   1.3755934179125E-02
(PID.TID 0000.0001) %MON dynstat_vvel_del2            =   1.0304182445601E-04
(PID.TID 0000.0001) %MON dynstat_wvel_max             =   1.0822566237265E-04
(PID.TID 0000.0001) %MON dynstat_wvel_min             =  -4.3461304238415E-04
(PID.TID 0000.0001) %MON dynstat_wvel_mean            =  -2.8911479787241E-07
(PID.TID 0000.0001) %MON dynstat_wvel_sd              =   9.1357056562327E-06
(PID.TID 0000.0001) %MON dynstat_wvel_del2            =   8.1211744611120E-08
(PID.TID 0000.0001) %MON dynstat_theta_max            =   3.0922144700417E+01
(PID.TID 0000.0001) %MON dynstat_theta_min            =  -3.0064028243655E+00
(PID.TID 0000.0001) %MON dynstat_theta_mean           =   3.9091007694593E+00
(PID.TID 0000.0001) %MON dynstat_theta_sd             =   4.5712616945746E+00
(PID.TID 0000.0001) %MON dynstat_theta_del2           =   2.6466793765048E-03
(PID.TID 0000.0001) %MON dynstat_salt_max             =   4.1360428568947E+01
(PID.TID 0000.0001) %MON dynstat_salt_min             =   1.8518598967658E+01
(PID.TID 0000.0001) %MON dynstat_salt_mean            =   3.4772061969702E+01
(PID.TID 0000.0001) %MON dynstat_salt_sd              =   5.3130110139747E-01
(PID.TID 0000.0001) %MON dynstat_salt_del2            =   8.8786211600988E-04
(PID.TID 0000.0001) %MON dynstat_sst_max              =   3.0922144700417E+01
(PID.TID 0000.0001) %MON dynstat_sst_min              =  -1.8991863700967E+00
(PID.TID 0000.0001) %MON dynstat_sst_mean             =   1.8107754541022E+01
(PID.TID 0000.0001) %MON dynstat_sst_sd               =   9.8076200896622E+00
(PID.TID 0000.0001) %MON dynstat_sst_del2             =   1.5125856244151E-02
(PID.TID 0000.0001) %MON dynstat_sss_max              =   4.1360428568947E+01
(PID.TID 0000.0001) %MON dynstat_sss_min              =   1.8751388529680E+01
(PID.TID 0000.0001) %MON dynstat_sss_mean             =   3.4632217444256E+01
(PID.TID 0000.0001) %MON dynstat_sss_sd               =   1.4660297174156E+00
(PID.TID 0000.0001) %MON dynstat_sss_del2             =   9.3203125761865E-03
(PID.TID 0000.0001) %MON forcing_qnet_max             =   5.1086269506025E+03
(PID.TID 0000.0001) %MON forcing_qnet_min             =  -4.4066767578125E+03
(PID.TID 0000.0001) %MON forcing_qnet_mean            =  -3.3689789336283E+01
(PID.TID 0000.0001) %MON forcing_qnet_sd              =   2.9480512733565E+02
(PID.TID 0000.0001) %MON forcing_qnet_del2            =   8.8052428894875E+00
(PID.TID 0000.0001) %MON forcing_qsw_max              =   0.0000000000000E+00
(PID.TID 0000.0001) %MON forcing_qsw_min              =  -1.0977102897534E+02
(PID.TID 0000.0001) %MON forcing_qsw_mean             =  -1.8429136126966E+01
(PID.TID 0000.0001) %MON forcing_qsw_sd               =   2.6800506584074E+01
(PID.TID 0000.0001) %MON forcing_qsw_del2             =   2.6349876847180E-01
(PID.TID 0000.0001) %MON forcing_empmr_max            =   9.9117746576667E-03
(PID.TID 0000.0001) %MON forcing_empmr_min            =  -1.4728663861752E-01
(PID.TID 0000.0001) %MON forcing_empmr_mean           =  -4.3354114241911E-04
(PID.TID 0000.0001) %MON forcing_empmr_sd             =   6.3074324804368E-03
(PID.TID 0000.0001) %MON forcing_empmr_del2           =   2.5550683307306E-04
(PID.TID 0000.0001) %MON forcing_fu_max               =   5.6384225013411E-01
(PID.TID 0000.0001) %MON forcing_fu_min               =  -4.0463182236838E-01
(PID.TID 0000.0001) %MON forcing_fu_mean              =  -4.1561483406401E-03
(PID.TID 0000.0001) %MON forcing_fu_sd                =   7.2005991872588E-02
(PID.TID 0000.0001) %MON forcing_fu_del2              =   7.1032447013990E-04
(PID.TID 0000.0001) %MON forcing_fv_max               =   3.1280344236244E-01
(PID.TID 0000.0001) %MON forcing_fv_min               =  -3.3541363623711E-01
(PID.TID 0000.0001) %MON forcing_fv_mean              =  -1.1162050592121E-02
(PID.TID 0000.0001) %MON forcing_fv_sd                =   7.0278950926287E-02
(PID.TID 0000.0001) %MON forcing_fv_del2              =   6.1795026602334E-04
(PID.TID 0000.0001) %MON trAdv_CFL_u_max              =   3.3450011339570E-03
(PID.TID 0000.0001) %MON trAdv_CFL_v_max              =   3.1384620428850E-03
(PID.TID 0000.0001) %MON trAdv_CFL_w_max              =   3.4600812044381E-03
(PID.TID 0000.0001) %MON advcfl_uvel_max              =   3.3273463322536E-03
(PID.TID 0000.0001) %MON advcfl_vvel_max              =   3.2853269769998E-03
(PID.TID 0000.0001) %MON advcfl_wvel_max              =   5.1230135171310E-03
(PID.TID 0000.0001) %MON advcfl_W_hf_max              =   3.4600812044381E-03
(PID.TID 0000.0001) %MON pe_b_mean                    =   5.1446115827757E-04
(PID.TID 0000.0001) %MON ke_max                       =   5.1500691650300E-01
(PID.TID 0000.0001) %MON ke_mean                      =   1.6688623326195E-04
(PID.TID 0000.0001) %MON ke_vol                       =   1.3398090267104E+18
(PID.TID 0000.0001) %MON vort_r_min                   =  -7.1953028462569E-06
(PID.TID 0000.0001) %MON vort_r_max                   =   2.9379449513766E-06
(PID.TID 0000.0001) %MON vort_a_mean                  =  -2.0549865324846E-05
(PID.TID 0000.0001) %MON vort_a_sd                    =   7.5259512092499E-05
(PID.TID 0000.0001) %MON vort_p_mean                  =  -2.4783348198896E-05
(PID.TID 0000.0001) %MON vort_p_sd                    =   1.2811912023466E-04
(PID.TID 0000.0001) %MON surfExpan_theta_mean         =  -7.2555235506391E-06
(PID.TID 0000.0001) %MON surfExpan_salt_mean          =   1.4064856345603E-06
(PID.TID 0000.0001) // =======================================================
(PID.TID 0000.0001) // End MONITOR dynamic field statistics
(PID.TID 0000.0001) // =======================================================
 Computing Diagnostic #     81  oceTAUX      Counter:       1   Parms: UU      U1      
           Vector  Mate for  oceTAUX      Diagnostic #     82  oceTAUY  exists 
 Computing Diagnostic #     82  oceTAUY      Counter:       1   Parms: VV      U1      
           Vector  Mate for  oceTAUY      Diagnostic #     81  oceTAUX  exists 
 Computing Diagnostic #     85  oceFWflx     Counter:       1   Parms: SM      U1      
 Computing Diagnostic #     86  oceSflux     Counter:       1   Parms: SM      U1      
 Computing Diagnostic #     87  oceQnet      Counter:       1   Parms: SM      U1      
 Computing Diagnostic #     88  oceQsw       Counter:       1   Parms: SM      U1      
 Computing Diagnostic #     27  SALT         Counter:       1   Parms: SMR     MR      
 Computing Diagnostic #     26  THETA        Counter:       1   Parms: SMR     MR      
 Computing Diagnostic #     45  UVELMASS     Counter:       1   Parms: UUr     MR      
           Vector  Mate for  UVELMASS     Diagnostic #     46  VVELMASS exists 
 Computing Diagnostic #     46  VVELMASS     Counter:       1   Parms: VVr     MR      
           Vector  Mate for  VVELMASS     Diagnostic #     45  UVELMASS exists 
 cg2d: Sum(rhs),rhsMax =  -1.96202680496883E+01  8.26132680500455E+01
(PID.TID 0000.0001)      cg2d_init_res =   1.86078561951591E-01
(PID.TID 0000.0001)      cg2d_iters(min,last) =      -1      10
(PID.TID 0000.0001)      cg2d_last_res =   5.73844196542917E-08
(PID.TID 0000.0001) // =======================================================
(PID.TID 0000.0001) // Begin MONITOR dynamic field statistics
(PID.TID 0000.0001) // =======================================================
(PID.TID 0000.0001) %MON time_tsnumber                =                 72024
(PID.TID 0000.0001) %MON time_secondsf                =   6.4821600000000E+07
(PID.TID 0000.0001) %MON dynstat_eta_max              =   3.7738107736455E+00
(PID.TID 0000.0001) %MON dynstat_eta_min              =  -4.3915274715947E+00
(PID.TID 0000.0001) %MON dynstat_eta_mean             =   1.8834578783984E-02
(PID.TID 0000.0001) %MON dynstat_eta_sd               =   6.2170645572079E-01
(PID.TID 0000.0001) %MON dynstat_eta_del2             =   3.7891268984640E-03
(PID.TID 0000.0001) %MON dynstat_uvel_max             =   8.1849389026034E-01
(PID.TID 0000.0001) %MON dynstat_uvel_min             =  -6.0405365834981E-01
(PID.TID 0000.0001) %MON dynstat_uvel_mean            =   2.2826935711058E-05
(PID.TID 0000.0001) %MON dynstat_uvel_sd              =   1.3019401802018E-02
(PID.TID 0000.0001) %MON dynstat_uvel_del2            =   9.1840587362192E-05
(PID.TID 0000.0001) %MON dynstat_vvel_max             =   3.2263284137129E-01
(PID.TID 0000.0001) %MON dynstat_vvel_min             =  -9.7136484329826E-01
(PID.TID 0000.0001) %MON dynstat_vvel_mean            =  -4.3560574466272E-04
(PID.TID 0000.0001) %MON dynstat_vvel_sd              =   1.3799639059739E-02
(PID.TID 0000.0001) %MON dynstat_vvel_del2            =   1.0509003887516E-04
(PID.TID 0000.0001) %MON dynstat_wvel_max             =   1.2449854074067E-04
(PID.TID 0000.0001) %MON dynstat_wvel_min             =  -4.4538484466661E-04
(PID.TID 0000.0001) %MON dynstat_wvel_mean            =  -2.7000670311447E-07
(PID.TID 0000.0001) %MON dynstat_wvel_sd              =   9.0248736139371E-06
(PID.TID 0000.0001) %MON dynstat_wvel_del2            =   8.0189443021330E-08
(PID.TID 0000.0001) %MON dynstat_theta_max            =   3.0922163411015E+01
(PID.TID 0000.0001) %MON dynstat_theta_min            =  -3.0062204151775E+00
(PID.TID 0000.0001) %MON dynstat_theta_mean           =   3.9091047452076E+00
(PID.TID 0000.0001) %MON dynstat_theta_sd             =   4.5712771345219E+00
(PID.TID 0000.0001) %MON dynstat_theta_del2           =   2.6465248851214E-03
(PID.TID 0000.0001) %MON dynstat_salt_max             =   4.1359917651556E+01
(PID.TID 0000.0001) %MON dynstat_salt_min             =   1.8518608878404E+01
(PID.TID 0000.0001) %MON dynstat_salt_mean            =   3.4772057432655E+01
(PID.TID 0000.0001) %MON dynstat_salt_sd              =   5.3132139237622E-01
(PID.TID 0000.0001) %MON dynstat_salt_del2            =   8.9337650599424E-04
(PID.TID 0000.0001) %MON dynstat_sst_max              =   3.0922163411015E+01
(PID.TID 0000.0001) %MON dynstat_sst_min              =  -1.8991336288168E+00
(PID.TID 0000.0001) %MON dynstat_sst_mean             =   1.8107908684411E+01
(PID.TID 0000.0001) %MON dynstat_sst_sd               =   9.8078022053117E+00
(PID.TID 0000.0001) %MON dynstat_sst_del2             =   1.5122369463597E-02
(PID.TID 0000.0001) %MON dynstat_sss_max              =   4.1359917651556E+01
(PID.TID 0000.0001) %MON dynstat_sss_min              =   1.8751389224639E+01
(PID.TID 0000.0001) %MON dynstat_sss_mean             =   3.4631888729527E+01
(PID.TID 0000.0001) %MON dynstat_sss_sd               =   1.4665402672658E+00
(PID.TID 0000.0001) %MON dynstat_sss_del2             =   9.4031503728857E-03
(PID.TID 0000.0001) %MON forcing_qnet_max             =   3.0904437984700E+03
(PID.TID 0000.0001) %MON forcing_qnet_min             =  -2.4523378906250E+03
(PID.TID 0000.0001) %MON forcing_qnet_mean            =  -3.1030919440080E+01
(PID.TID 0000.0001) %MON forcing_qnet_sd              =   2.6865985038621E+02
(PID.TID 0000.0001) %MON forcing_qnet_del2            =   7.2345120904703E+00
(PID.TID 0000.0001) %MON forcing_qsw_max              =   0.0000000000000E+00
(PID.TID 0000.0001) %MON forcing_qsw_min              =  -1.1023806603827E+02
(PID.TID 0000.0001) %MON forcing_qsw_mean             =  -1.8113250402715E+01
(PID.TID 0000.0001) %MON forcing_qsw_sd               =   2.6416719938940E+01
(PID.TID 0000.0001) %MON forcing_qsw_del2             =   2.6366641417524E-01
(PID.TID 0000.0001) %MON forcing_empmr_max            =   9.2512127012014E-03
(PID.TID 0000.0001) %MON forcing_empmr_min            =  -1.4384765923023E-01
(PID.TID 0000.0001) %MON forcing_empmr_mean           =  -4.2703349559995E-04
(PID.TID 0000.0001) %MON forcing_empmr_sd             =   6.2109210102346E-03
(PID.TID 0000.0001) %MON forcing_empmr_del2           =   2.5110970631704E-04
(PID.TID 0000.0001) %MON forcing_fu_max               =   5.4273819339190E-01
(PID.TID 0000.0001) %MON forcing_fu_min               =  -3.9928079551094E-01
(PID.TID 0000.0001) %MON forcing_fu_mean              =  -4.1330929104189E-03
(PID.TID 0000.0001) %MON forcing_fu_sd                =   7.1541413514666E-02
(PID.TID 0000.0001) %MON forcing_fu_del2              =   7.0239338219485E-04
(PID.TID 0000.0001) %MON forcing_fv_max               =   3.1516404358880E-01
(PID.TID 0000.0001) %MON forcing_fv_min               =  -3.2779585247049E-01
(PID.TID 0000.0001) %MON forcing_fv_mean              =  -1.1226849910193E-02
(PID.TID 0000.0001) %MON forcing_fv_sd                =   6.9743323354412E-02
(PID.TID 0000.0001) %MON forcing_fv_del2              =   6.1259505349742E-04
(PID.TID 0000.0001) %MON trAdv_CFL_u_max              =   2.7480111649086E-03
(PID.TID 0000.0001) %MON trAdv_CFL_v_max              =   3.1763721361141E-03
(PID.TID 0000.0001) %MON trAdv_CFL_w_max              =   3.1566037602508E-03
(PID.TID 0000.0001) %MON advcfl_uvel_max              =   2.7294861145309E-03
(PID.TID 0000.0001) %MON advcfl_vvel_max              =   3.3191587721282E-03
(PID.TID 0000.0001) %MON advcfl_wvel_max              =   5.0033968427907E-03
(PID.TID 0000.0001) %MON advcfl_W_hf_max              =   3.1566037602508E-03
(PID.TID 0000.0001) %MON pe_b_mean                    =   5.1538462135453E-04
(PID.TID 0000.0001) %MON ke_max                       =   4.6475838381795E-01
(PID.TID 0000.0001) %MON ke_mean                      =   1.6630774403910E-04
(PID.TID 0000.0001) %MON ke_vol                       =   1.3398091638929E+18
(PID.TID 0000.0001) %MON vort_r_min                   =  -6.5733360588605E-06
(PID.TID 0000.0001) %MON vort_r_max                   =   2.9070850701585E-06
(PID.TID 0000.0001) %MON vort_a_mean                  =  -2.0549865324846E-05
(PID.TID 0000.0001) %MON vort_a_sd                    =   7.5259510413987E-05
(PID.TID 0000.0001) %MON vort_p_mean                  =  -2.4783345543917E-05
(PID.TID 0000.0001) %MON vort_p_sd                    =   1.2811910254802E-04
(PID.TID 0000.0001) %MON surfExpan_theta_mean         =  -7.1987389004656E-06
(PID.TID 0000.0001) %MON surfExpan_salt_mean          =   1.3686712560293E-06
(PID.TID 0000.0001) // =======================================================
(PID.TID 0000.0001) // End MONITOR dynamic field statistics
(PID.TID 0000.0001) // =======================================================
 cg2d: Sum(rhs),rhsMax =  -2.10272163002182E+01  7.85852918006412E+01
(PID.TID 0000.0001)      cg2d_init_res =   1.90224378997137E-01
(PID.TID 0000.0001)      cg2d_iters(min,last) =      -1      10
(PID.TID 0000.0001)      cg2d_last_res =   6.59087220230146E-08
(PID.TID 0000.0001) // =======================================================
(PID.TID 0000.0001) // Begin MONITOR dynamic field statistics
(PID.TID 0000.0001) // =======================================================
(PID.TID 0000.0001) %MON time_tsnumber                =                 72025
(PID.TID 0000.0001) %MON time_secondsf                =   6.4822500000000E+07
(PID.TID 0000.0001) %MON dynstat_eta_max              =   3.5903763716583E+00
(PID.TID 0000.0001) %MON dynstat_eta_min              =  -4.3815139567286E+00
(PID.TID 0000.0001) %MON dynstat_eta_mean             =   1.9201016707829E-02
(PID.TID 0000.0001) %MON dynstat_eta_sd               =   6.2207132092879E-01
(PID.TID 0000.0001) %MON dynstat_eta_del2             =   3.7106119747272E-03
(PID.TID 0000.0001) %MON dynstat_uvel_max             =   6.3461577472216E-01
(PID.TID 0000.0001) %MON dynstat_uvel_min             =  -6.2509210816926E-01
(PID.TID 0000.0001) %MON dynstat_uvel_mean            =   1.4522617436011E-05
(PID.TID 0000.0001) %MON dynstat_uvel_sd              =   1.2940051609539E-02
(PID.TID 0000.0001) %MON dynstat_uvel_del2            =   8.9115263591261E-05
(PID.TID 0000.0001) %MON dynstat_vvel_max             =   3.2972921492657E-01
(PID.TID 0000.0001) %MON dynstat_vvel_min             =  -9.6622770337410E-01
(PID.TID 0000.0001) %MON dynstat_vvel_mean            =  -4.3915324318510E-04
(PID.TID 0000.0001) %MON dynstat_vvel_sd              =   1.3849340620856E-02
(PID.TID 0000.0001) %MON dynstat_vvel_del2            =   1.0799677788715E-04
(PID.TID 0000.0001) %MON dynstat_wvel_max             =   1.3876535467739E-04
(PID.TID 0000.0001) %MON dynstat_wvel_min             =  -4.4404981248981E-04
(PID.TID 0000.0001) %MON dynstat_wvel_mean            =  -2.4978160615245E-07
(PID.TID 0000.0001) %MON dynstat_wvel_sd              =   8.8911654959665E-06
(PID.TID 0000.0001) %MON dynstat_wvel_del2            =   7.9062868863020E-08
(PID.TID 0000.0001) %MON dynstat_theta_max            =   3.0922210815153E+01
(PID.TID 0000.0001) %MON dynstat_theta_min            =  -3.0060954116275E+00
(PID.TID 0000.0001) %MON dynstat_theta_mean           =   3.9091085028965E+00
(PID.TID 0000.0001) %MON dynstat_theta_sd             =   4.5712919434439E+00
(PID.TID 0000.0001) %MON dynstat_theta_del2           =   2.6463788928376E-03
(PID.TID 0000.0001) %MON dynstat_salt_max             =   4.1359448804220E+01
(PID.TID 0000.0001) %MON dynstat_salt_min             =   1.8518618822763E+01
(PID.TID 0000.0001) %MON dynstat_salt_mean            =   3.4772053038781E+01
(PID.TID 0000.0001) %MON dynstat_salt_sd              =   5.3134172931693E-01
(PID.TID 0000.0001) %MON dynstat_salt_del2            =   8.9890373914726E-04
(PID.TID 0000.0001) %MON dynstat_sst_max              =   3.0922210815153E+01
(PID.TID 0000.0001) %MON dynstat_sst_min              =  -1.8990737875396E+00
(PID.TID 0000.0001) %MON dynstat_sst_mean             =   1.8108048873722E+01
(PID.TID 0000.0001) %MON dynstat_sst_sd               =   9.8079862556113E+00
(PID.TID 0000.0001) %MON dynstat_sst_del2             =   1.5119138165990E-02
(PID.TID 0000.0001) %MON dynstat_sss_max              =   4.1359448804220E+01
(PID.TID 0000.0001) %MON dynstat_sss_min              =   1.8751389863689E+01
(PID.TID 0000.0001) %MON dynstat_sss_mean             =   3.4631570620008E+01
(PID.TID 0000.0001) %MON dynstat_sss_sd               =   1.4670526136390E+00
(PID.TID 0000.0001) %MON dynstat_sss_del2             =   9.4859740059929E-03
(PID.TID 0000.0001) %MON forcing_qnet_max             =   3.0464509988686E+03
(PID.TID 0000.0001) %MON forcing_qnet_min             =  -2.4551345214844E+03
(PID.TID 0000.0001) %MON forcing_qnet_mean            =  -2.7697242326564E+01
(PID.TID 0000.0001) %MON forcing_qnet_sd              =   2.6216532813291E+02
(PID.TID 0000.0001) %MON forcing_qnet_del2            =   6.9660470875815E+00
(PID.TID 0000.0001) %MON forcing_qsw_max              =   0.0000000000000E+00
(PID.TID 0000.0001) %MON forcing_qsw_min              =  -1.0872792852591E+02
(PID.TID 0000.0001) %MON forcing_qsw_mean             =  -1.7641164207927E+01
(PID.TID 0000.0001) %MON forcing_qsw_sd               =   2.5867525922633E+01
(PID.TID 0000.0001) %MON forcing_qsw_del2             =   2.6450064321826E-01
(PID.TID 0000.0001) %MON forcing_empmr_max            =   8.6518526077271E-03
(PID.TID 0000.0001) %MON forcing_empmr_min            =  -1.4053292572498E-01
(PID.TID 0000.0001) %MON forcing_empmr_mean           =  -4.2140361242101E-04
(PID.TID 0000.0001) %MON forcing_empmr_sd             =   6.1176999563383E-03
(PID.TID 0000.0001) %MON forcing_empmr_del2           =   2.4689891355833E-04
(PID.TID 0000.0001) %MON forcing_fu_max               =   5.2201752032558E-01
(PID.TID 0000.0001) %MON forcing_fu_min               =  -3.9533524930490E-01
(PID.TID 0000.0001) %MON forcing_fu_mean              =  -4.1517598916094E-03
(PID.TID 0000.0001) %MON forcing_fu_sd                =   7.0990133885437E-02
(PID.TID 0000.0001) %MON forcing_fu_del2              =   6.9557054270966E-04
(PID.TID 0000.0001) %MON forcing_fv_max               =   3.1852340458509E-01
(PID.TID 0000.0001) %MON forcing_fv_min               =  -3.2101174955931E-01
(PID.TID 0000.0001) %MON forcing_fv_mean              =  -1.1258898613269E-02
(PID.TID 0000.0001) %MON forcing_fv_sd                =   6.9290068691176E-02
(PID.TID 0000.0001) %MON forcing_fv_del2              =   6.0786518832005E-04
(PID.TID 0000.0001) %MON trAdv_CFL_u_max              =   2.1368486792929E-03
(PID.TID 0000.0001) %MON trAdv_CFL_v_max              =   3.2384721912884E-03
(PID.TID 0000.0001) %MON trAdv_CFL_w_max              =   2.8583812171552E-03
(PID.TID 0000.0001) %MON advcfl_uvel_max              =   2.1162955103006E-03
(PID.TID 0000.0001) %MON advcfl_vvel_max              =   3.3016051380220E-03
(PID.TID 0000.0001) %MON advcfl_wvel_max              =   4.8881017643472E-03
(PID.TID 0000.0001) %MON advcfl_W_hf_max              =   2.8583812171552E-03
(PID.TID 0000.0001) %MON pe_b_mean                    =   5.1600769419113E-04
(PID.TID 0000.0001) %MON ke_max                       =   4.2052153410020E-01
(PID.TID 0000.0001) %MON ke_mean                      =   1.6600038799635E-04
(PID.TID 0000.0001) %MON ke_vol                       =   1.3398092990162E+18
(PID.TID 0000.0001) %MON vort_r_min                   =  -5.8777432241446E-06
(PID.TID 0000.0001) %MON vort_r_max                   =   2.8575963629865E-06
(PID.TID 0000.0001) %MON vort_a_mean                  =  -2.0549865324846E-05
(PID.TID 0000.0001) %MON vort_a_sd                    =   7.5259508425660E-05
(PID.TID 0000.0001) %MON vort_p_mean                  =  -2.4783342970862E-05
(PID.TID 0000.0001) %MON vort_p_sd                    =   1.2811908286247E-04
(PID.TID 0000.0001) %MON surfExpan_theta_mean         =  -7.1590574306762E-06
(PID.TID 0000.0001) %MON surfExpan_salt_mean          =   1.3329198602757E-06
(PID.TID 0000.0001) // =======================================================
(PID.TID 0000.0001) // End MONITOR dynamic field statistics
(PID.TID 0000.0001) // =======================================================
 cg2d: Sum(rhs),rhsMax =  -2.20784756840173E+01  7.62538710490297E+01
(PID.TID 0000.0001)      cg2d_init_res =   1.92584988322573E-01
(PID.TID 0000.0001)      cg2d_iters(min,last) =      -1      10
(PID.TID 0000.0001)      cg2d_last_res =   6.79624559004720E-08
(PID.TID 0000.0001) // =======================================================
(PID.TID 0000.0001) // Begin MONITOR dynamic field statistics
(PID.TID 0000.0001) // =======================================================
(PID.TID 0000.0001) %MON time_tsnumber                =                 72026
(PID.TID 0000.0001) %MON time_secondsf                =   6.4823400000000E+07
(PID.TID 0000.0001) %MON dynstat_eta_max              =   3.3754363009048E+00
(PID.TID 0000.0001) %MON dynstat_eta_min              =  -4.2957100120373E+00
(PID.TID 0000.0001) %MON dynstat_eta_mean             =   1.9562851350951E-02
(PID.TID 0000.0001) %MON dynstat_eta_sd               =   6.2224615931515E-01
(PID.TID 0000.0001) %MON dynstat_eta_del2             =   3.6035002313090E-03
(PID.TID 0000.0001) %MON dynstat_uvel_max             =   4.5576943930316E-01
(PID.TID 0000.0001) %MON dynstat_uvel_min             =  -6.7420314116256E-01
(PID.TID 0000.0001) %MON dynstat_uvel_mean            =   8.8675185555060E-07
(PID.TID 0000.0001) %MON dynstat_uvel_sd              =   1.2878642523659E-02
(PID.TID 0000.0001) %MON dynstat_uvel_del2            =   8.7041296330082E-05
(PID.TID 0000.0001) %MON dynstat_vvel_max             =   3.3534925796633E-01
(PID.TID 0000.0001) %MON dynstat_vvel_min             =  -9.5265255712332E-01
(PID.TID 0000.0001) %MON dynstat_vvel_mean            =  -4.4291829171337E-04
(PID.TID 0000.0001) %MON dynstat_vvel_sd              =   1.3901257207053E-02
(PID.TID 0000.0001) %MON dynstat_vvel_del2            =   1.1136337274148E-04
(PID.TID 0000.0001) %MON dynstat_wvel_max             =   1.5097609325358E-04
(PID.TID 0000.0001) %MON dynstat_wvel_min             =  -4.3318199538333E-04
(PID.TID 0000.0001) %MON dynstat_wvel_mean            =  -2.2832485920436E-07
(PID.TID 0000.0001) %MON dynstat_wvel_sd              =   8.7607179162543E-06
(PID.TID 0000.0001) %MON dynstat_wvel_del2            =   7.7975541872565E-08
(PID.TID 0000.0001) %MON dynstat_theta_max            =   3.0922274711340E+01
(PID.TID 0000.0001) %MON dynstat_theta_min            =  -3.0060149455692E+00
(PID.TID 0000.0001) %MON dynstat_theta_mean           =   3.9091120266406E+00
(PID.TID 0000.0001) %MON dynstat_theta_sd             =   4.5713059179230E+00
(PID.TID 0000.0001) %MON dynstat_theta_del2           =   2.6462331883008E-03
(PID.TID 0000.0001) %MON dynstat_salt_max             =   4.1359018034635E+01
(PID.TID 0000.0001) %MON dynstat_salt_min             =   1.8518628806503E+01
(PID.TID 0000.0001) %MON dynstat_salt_mean            =   3.4772048738157E+01
(PID.TID 0000.0001) %MON dynstat_salt_sd              =   5.3136202513545E-01
(PID.TID 0000.0001) %MON dynstat_salt_del2            =   9.0443341538471E-04
(PID.TID 0000.0001) %MON dynstat_sst_max              =   3.0922274711340E+01
(PID.TID 0000.0001) %MON dynstat_sst_min              =  -1.8990074932609E+00
(PID.TID 0000.0001) %MON dynstat_sst_mean             =   1.8108175153151E+01
(PID.TID 0000.0001) %MON dynstat_sst_sd               =   9.8081644791799E+00
(PID.TID 0000.0001) %MON dynstat_sst_del2             =   1.5115937716354E-02
(PID.TID 0000.0001) %MON dynstat_sss_max              =   4.1359018034635E+01
(PID.TID 0000.0001) %MON dynstat_sss_min              =   1.8751390462964E+01
(PID.TID 0000.0001) %MON dynstat_sss_mean             =   3.4631259520517E+01
(PID.TID 0000.0001) %MON dynstat_sss_sd               =   1.4675642420113E+00
(PID.TID 0000.0001) %MON dynstat_sss_del2             =   9.5686281670142E-03
(PID.TID 0000.0001) %MON forcing_qnet_max             =   3.0045455390377E+03
(PID.TID 0000.0001) %MON forcing_qnet_min             =  -2.4027573242188E+03
(PID.TID 0000.0001) %MON forcing_qnet_mean            =  -2.4124279700037E+01
(PID.TID 0000.0001) %MON forcing_qnet_sd              =   2.5944188024249E+02
(PID.TID 0000.0001) %MON forcing_qnet_del2            =   6.7169416861758E+00
(PID.TID 0000.0001) %MON forcing_qsw_max              =   0.0000000000000E+00
(PID.TID 0000.0001) %MON forcing_qsw_min              =  -1.0828504747115E+02
(PID.TID 0000.0001) %MON forcing_qsw_mean             =  -1.7443519539612E+01
(PID.TID 0000.0001) %MON forcing_qsw_sd               =   2.5624220595172E+01
(PID.TID 0000.0001) %MON forcing_qsw_del2             =   2.6379835410265E-01
(PID.TID 0000.0001) %MON forcing_empmr_max            =   8.5626496002078E-03
(PID.TID 0000.0001) %MON forcing_empmr_min            =  -1.3714337348938E-01
(PID.TID 0000.0001) %MON forcing_empmr_mean           =  -4.1610983959009E-04
(PID.TID 0000.0001) %MON forcing_empmr_sd             =   6.0258037741704E-03
(PID.TID 0000.0001) %MON forcing_empmr_del2           =   2.4277605476823E-04
(PID.TID 0000.0001) %MON forcing_fu_max               =   5.0766273263607E-01
(PID.TID 0000.0001) %MON forcing_fu_min               =  -3.8944542237446E-01
(PID.TID 0000.0001) %MON forcing_fu_mean              =  -4.1209420295719E-03
(PID.TID 0000.0001) %MON forcing_fu_sd                =   7.0330676751974E-02
(PID.TID 0000.0001) %MON forcing_fu_del2              =   6.8770635989193E-04
(PID.TID 0000.0001) %MON forcing_fv_max               =   3.2101109981359E-01
(PID.TID 0000.0001) %MON forcing_fv_min               =  -3.1397322353896E-01
(PID.TID 0000.0001) %MON forcing_fv_mean              =  -1.1286080916146E-02
(PID.TID 0000.0001) %MON forcing_fv_sd                =   6.8862179977445E-02
(PID.TID 0000.0001) %MON forcing_fv_del2              =   6.0291565188961E-04
(PID.TID 0000.0001) %MON trAdv_CFL_u_max              =   1.9825465648388E-03
(PID.TID 0000.0001) %MON trAdv_CFL_v_max              =   3.7115082871203E-03
(PID.TID 0000.0001) %MON trAdv_CFL_w_max              =   2.5696813710157E-03
(PID.TID 0000.0001) %MON advcfl_uvel_max              =   1.9843396629262E-03
(PID.TID 0000.0001) %MON advcfl_vvel_max              =   3.2337062771766E-03
(PID.TID 0000.0001) %MON advcfl_wvel_max              =   4.7702042952828E-03
(PID.TID 0000.0001) %MON advcfl_W_hf_max              =   2.5696813710157E-03
(PID.TID 0000.0001) %MON pe_b_mean                    =   5.1631614934302E-04
(PID.TID 0000.0001) %MON ke_max                       =   3.8341997692149E-01
(PID.TID 0000.0001) %MON ke_mean                      =   1.6594197709647E-04
(PID.TID 0000.0001) %MON ke_vol                       =   1.3398094323581E+18
(PID.TID 0000.0001) %MON vort_r_min                   =  -5.3376002945488E-06
(PID.TID 0000.0001) %MON vort_r_max                   =   2.7904479491306E-06
(PID.TID 0000.0001) %MON vort_a_mean                  =  -2.0549865324846E-05
(PID.TID 0000.0001) %MON vort_a_sd                    =   7.5259506245312E-05
(PID.TID 0000.0001) %MON vort_p_mean                  =  -2.4783340472025E-05
(PID.TID 0000.0001) %MON vort_p_sd                    =   1.2811906302867E-04
(PID.TID 0000.0001) %MON surfExpan_theta_mean         =  -7.1218721172567E-06
(PID.TID 0000.0001) %MON surfExpan_salt_mean          =   1.2974770071897E-06
(PID.TID 0000.0001) // =======================================================
(PID.TID 0000.0001) // End MONITOR dynamic field statistics
(PID.TID 0000.0001) // =======================================================
 cg2d: Sum(rhs),rhsMax =  -2.33349300239169E+01  7.34654183699149E+01
(PID.TID 0000.0001)      cg2d_init_res =   1.99539985926357E-01
(PID.TID 0000.0001)      cg2d_iters(min,last) =      -1      10
(PID.TID 0000.0001)      cg2d_last_res =   6.91053542588120E-08
(PID.TID 0000.0001) // =======================================================
(PID.TID 0000.0001) // Begin MONITOR dynamic field statistics
(PID.TID 0000.0001) // =======================================================
(PID.TID 0000.0001) %MON time_tsnumber                =                 72027
(PID.TID 0000.0001) %MON time_secondsf                =   6.4824300000000E+07
(PID.TID 0000.0001) %MON dynstat_eta_max              =   3.1330687608964E+00
(PID.TID 0000.0001) %MON dynstat_eta_min              =  -4.1379079487470E+00
(PID.TID 0000.0001) %MON dynstat_eta_mean             =   1.9920059543987E-02
(PID.TID 0000.0001) %MON dynstat_eta_sd               =   6.2223391529114E-01
(PID.TID 0000.0001) %MON dynstat_eta_del2             =   3.4709889396348E-03
(PID.TID 0000.0001) %MON dynstat_uvel_max             =   4.1937395289059E-01
(PID.TID 0000.0001) %MON dynstat_uvel_min             =  -7.2177163151710E-01
(PID.TID 0000.0001) %MON dynstat_uvel_mean            =  -1.7867944305943E-05
(PID.TID 0000.0001) %MON dynstat_uvel_sd              =   1.2836912319031E-02
(PID.TID 0000.0001) %MON dynstat_uvel_del2            =   8.5604667539445E-05
(PID.TID 0000.0001) %MON dynstat_vvel_max             =   4.7391869714392E-01
(PID.TID 0000.0001) %MON dynstat_vvel_min             =  -9.5258387221468E-01
(PID.TID 0000.0001) %MON dynstat_vvel_mean            =  -4.4635269262427E-04
(PID.TID 0000.0001) %MON dynstat_vvel_sd              =   1.3951651619047E-02
(PID.TID 0000.0001) %MON dynstat_vvel_del2            =   1.1485382382658E-04
(PID.TID 0000.0001) %MON dynstat_wvel_max             =   1.6122398280038E-04
(PID.TID 0000.0001) %MON dynstat_wvel_min             =  -4.1493972605592E-04
(PID.TID 0000.0001) %MON dynstat_wvel_mean            =  -2.0601671990990E-07
(PID.TID 0000.0001) %MON dynstat_wvel_sd              =   8.6530285001608E-06
(PID.TID 0000.0001) %MON dynstat_wvel_del2            =   7.7024453020203E-08
(PID.TID 0000.0001) %MON dynstat_theta_max            =   3.0922352903550E+01
(PID.TID 0000.0001) %MON dynstat_theta_min            =  -3.0059647185792E+00
(PID.TID 0000.0001) %MON dynstat_theta_mean           =   3.9091153808239E+00
(PID.TID 0000.0001) %MON dynstat_theta_sd             =   4.5713191617147E+00
(PID.TID 0000.0001) %MON dynstat_theta_del2           =   2.6461015500966E-03
(PID.TID 0000.0001) %MON dynstat_salt_max             =   4.1358621926290E+01
(PID.TID 0000.0001) %MON dynstat_salt_min             =   1.8518638835193E+01
(PID.TID 0000.0001) %MON dynstat_salt_mean            =   3.4772044536840E+01
(PID.TID 0000.0001) %MON dynstat_salt_sd              =   5.3138213414270E-01
(PID.TID 0000.0001) %MON dynstat_salt_del2            =   9.0995857841864E-04
(PID.TID 0000.0001) %MON dynstat_sst_max              =   3.0922352903550E+01
(PID.TID 0000.0001) %MON dynstat_sst_min              =  -1.9000374028290E+00
(PID.TID 0000.0001) %MON dynstat_sst_mean             =   1.8108283938864E+01
(PID.TID 0000.0001) %MON dynstat_sst_sd               =   9.8083504075124E+00
(PID.TID 0000.0001) %MON dynstat_sst_del2             =   1.5113121080941E-02
(PID.TID 0000.0001) %MON dynstat_sss_max              =   4.1358621926290E+01
(PID.TID 0000.0001) %MON dynstat_sss_min              =   1.8751391080220E+01
(PID.TID 0000.0001) %MON dynstat_sss_mean             =   3.4630955523026E+01
(PID.TID 0000.0001) %MON dynstat_sss_sd               =   1.4680714701524E+00
(PID.TID 0000.0001) %MON dynstat_sss_del2             =   9.6510140829788E-03
(PID.TID 0000.0001) %MON forcing_qnet_max             =   3.2091279296875E+03
(PID.TID 0000.0001) %MON forcing_qnet_min             =  -1.0528641601562E+04
(PID.TID 0000.0001) %MON forcing_qnet_mean            =  -2.1610844184862E+01
(PID.TID 0000.0001) %MON forcing_qnet_sd              =   2.9696973445611E+02
(PID.TID 0000.0001) %MON forcing_qnet_del2            =   7.5000828240675E+00
(PID.TID 0000.0001) %MON forcing_qsw_max              =   0.0000000000000E+00
(PID.TID 0000.0001) %MON forcing_qsw_min              =  -1.0739230226014E+02
(PID.TID 0000.0001) %MON forcing_qsw_mean             =  -1.7201290303924E+01
(PID.TID 0000.0001) %MON forcing_qsw_sd               =   2.5367442364487E+01
(PID.TID 0000.0001) %MON forcing_qsw_del2             =   2.6229917659746E-01
(PID.TID 0000.0001) %MON forcing_empmr_max            =   8.4743816405535E-03
(PID.TID 0000.0001) %MON forcing_empmr_min            =  -1.3359013199806E-01
(PID.TID 0000.0001) %MON forcing_empmr_mean           =  -4.1078942199083E-04
(PID.TID 0000.0001) %MON forcing_empmr_sd             =   5.9314489812185E-03
(PID.TID 0000.0001) %MON forcing_empmr_del2           =   2.3850083929695E-04
(PID.TID 0000.0001) %MON forcing_fu_max               =   4.8946997313547E-01
(PID.TID 0000.0001) %MON forcing_fu_min               =  -3.8526180325331E-01
(PID.TID 0000.0001) %MON forcing_fu_mean              =  -4.0689909803449E-03
(PID.TID 0000.0001) %MON forcing_fu_sd                =   6.9763073291644E-02
(PID.TID 0000.0001) %MON forcing_fu_del2              =   6.8019837254906E-04
(PID.TID 0000.0001) %MON forcing_fv_max               =   3.2380138418606E-01
(PID.TID 0000.0001) %MON forcing_fv_min               =  -3.0845634905128E-01
(PID.TID 0000.0001) %MON forcing_fv_mean              =  -1.1341468891713E-02
(PID.TID 0000.0001) %MON forcing_fv_sd                =   6.8511812376990E-02
(PID.TID 0000.0001) %MON forcing_fv_del2              =   5.9899180042707E-04
(PID.TID 0000.0001) %MON trAdv_CFL_u_max              =   2.1229147621489E-03
(PID.TID 0000.0001) %MON trAdv_CFL_v_max              =   4.1316182650810E-03
(PID.TID 0000.0001) %MON trAdv_CFL_w_max              =   2.2950412519047E-03
(PID.TID 0000.0001) %MON advcfl_uvel_max              =   2.1243450060536E-03
(PID.TID 0000.0001) %MON advcfl_vvel_max              =   3.1171810781550E-03
(PID.TID 0000.0001) %MON advcfl_wvel_max              =   4.6466132868891E-03
(PID.TID 0000.0001) %MON advcfl_W_hf_max              =   2.2950412519047E-03
(PID.TID 0000.0001) %MON pe_b_mean                    =   5.1631458814725E-04
(PID.TID 0000.0001) %MON ke_max                       =   3.9118421843384E-01
(PID.TID 0000.0001) %MON ke_mean                      =   1.6610186528383E-04
(PID.TID 0000.0001) %MON ke_vol                       =   1.3398095640249E+18
(PID.TID 0000.0001) %MON vort_r_min                   =  -5.4941603860300E-06
(PID.TID 0000.0001) %MON vort_r_max                   =   2.7068922815592E-06
(PID.TID 0000.0001) %MON vort_a_mean                  =  -2.0549865324846E-05
(PID.TID 0000.0001) %MON vort_a_sd                    =   7.5259504032300E-05
(PID.TID 0000.0001) %MON vort_p_mean                  =  -2.4783338044029E-05
(PID.TID 0000.0001) %MON vort_p_sd                    =   1.2811904483470E-04
(PID.TID 0000.0001) %MON surfExpan_theta_mean         =  -7.0903547790345E-06
(PID.TID 0000.0001) %MON surfExpan_salt_mean          =   1.2598940935605E-06
(PID.TID 0000.0001) // =======================================================
(PID.TID 0000.0001) // End MONITOR dynamic field statistics
(PID.TID 0000.0001) // =======================================================
 Computing Diagnostic #     81  oceTAUX      Counter:       1   Parms: UU      U1      
           Vector  Mate for  oceTAUX      Diagnostic #     82  oceTAUY  exists 
 Computing Diagnostic #     82  oceTAUY      Counter:       1   Parms: VV      U1      
           Vector  Mate for  oceTAUY      Diagnostic #     81  oceTAUX  exists 
 Computing Diagnostic #     85  oceFWflx     Counter:       1   Parms: SM      U1      
 Computing Diagnostic #     86  oceSflux     Counter:       1   Parms: SM      U1      
 Computing Diagnostic #     87  oceQnet      Counter:       1   Parms: SM      U1      
 Computing Diagnostic #     88  oceQsw       Counter:       1   Parms: SM      U1      
 Computing Diagnostic #     27  SALT         Counter:       1   Parms: SMR     MR      
 Computing Diagnostic #     26  THETA        Counter:       1   Parms: SMR     MR      
 Computing Diagnostic #     45  UVELMASS     Counter:       1   Parms: UUr     MR      
           Vector  Mate for  UVELMASS     Diagnostic #     46  VVELMASS exists 
 Computing Diagnostic #     46  VVELMASS     Counter:       1   Parms: VVr     MR      
           Vector  Mate for  VVELMASS     Diagnostic #     45  UVELMASS exists 
 cg2d: Sum(rhs),rhsMax =  -2.51079138464147E+01  6.94810849656682E+01
(PID.TID 0000.0001)      cg2d_init_res =   2.14077606496493E-01
(PID.TID 0000.0001)      cg2d_iters(min,last) =      -1      10
(PID.TID 0000.0001)      cg2d_last_res =   7.24243296268248E-08
(PID.TID 0000.0001) // =======================================================
(PID.TID 0000.0001) // Begin MONITOR dynamic field statistics
(PID.TID 0000.0001) // =======================================================
(PID.TID 0000.0001) %MON time_tsnumber                =                 72028
(PID.TID 0000.0001) %MON time_secondsf                =   6.4825200000000E+07
(PID.TID 0000.0001) %MON dynstat_eta_max              =   2.8676797925014E+00
(PID.TID 0000.0001) %MON dynstat_eta_min              =  -3.9128865955836E+00
(PID.TID 0000.0001) %MON dynstat_eta_mean             =   2.0271150334202E-02
(PID.TID 0000.0001) %MON dynstat_eta_sd               =   6.2205076652562E-01
(PID.TID 0000.0001) %MON dynstat_eta_del2             =   3.3175264911394E-03
(PID.TID 0000.0001) %MON dynstat_uvel_max             =   4.0145444096263E-01
(PID.TID 0000.0001) %MON dynstat_uvel_min             =  -7.6700373561181E-01
(PID.TID 0000.0001) %MON dynstat_uvel_mean            =  -4.1374455199274E-05
(PID.TID 0000.0001) %MON dynstat_uvel_sd              =   1.2814827418254E-02
(PID.TID 0000.0001) %MON dynstat_uvel_del2            =   8.4744960545328E-05
(PID.TID 0000.0001) %MON dynstat_vvel_max             =   6.0855745155588E-01
(PID.TID 0000.0001) %MON dynstat_vvel_min             =  -9.4336626523300E-01
(PID.TID 0000.0001) %MON dynstat_vvel_mean            =  -4.4881430619343E-04
(PID.TID 0000.0001) %MON dynstat_vvel_sd              =   1.3996830206495E-02
(PID.TID 0000.0001) %MON dynstat_vvel_del2            =   1.1820543808664E-04
(PID.TID 0000.0001) %MON dynstat_wvel_max             =   1.6968689799740E-04
(PID.TID 0000.0001) %MON dynstat_wvel_min             =  -3.9297462249489E-04
(PID.TID 0000.0001) %MON dynstat_wvel_mean            =  -1.8266941182037E-07
(PID.TID 0000.0001) %MON dynstat_wvel_sd              =   8.5768730700746E-06
(PID.TID 0000.0001) %MON dynstat_wvel_del2            =   7.6232337820836E-08
(PID.TID 0000.0001) %MON dynstat_theta_max            =   3.0922445576696E+01
(PID.TID 0000.0001) %MON dynstat_theta_min            =  -3.0059307800427E+00
(PID.TID 0000.0001) %MON dynstat_theta_mean           =   3.9091182452968E+00
(PID.TID 0000.0001) %MON dynstat_theta_sd             =   4.5713308775851E+00
(PID.TID 0000.0001) %MON dynstat_theta_del2           =   2.6459656176352E-03
(PID.TID 0000.0001) %MON dynstat_salt_max             =   4.1358255842835E+01
(PID.TID 0000.0001) %MON dynstat_salt_min             =   1.8518648912584E+01
(PID.TID 0000.0001) %MON dynstat_salt_mean            =   3.4772040352009E+01
(PID.TID 0000.0001) %MON dynstat_salt_sd              =   5.3140198097937E-01
(PID.TID 0000.0001) %MON dynstat_salt_del2            =   9.1547157325161E-04
(PID.TID 0000.0001) %MON dynstat_sst_max              =   3.0922445576696E+01
(PID.TID 0000.0001) %MON dynstat_sst_min              =  -1.9038919400405E+00
(PID.TID 0000.0001) %MON dynstat_sst_mean             =   1.8108367071156E+01
(PID.TID 0000.0001) %MON dynstat_sst_sd               =   9.8085199635420E+00
(PID.TID 0000.0001) %MON dynstat_sst_del2             =   1.5110244831589E-02
(PID.TID 0000.0001) %MON dynstat_sss_max              =   4.1358255842835E+01
(PID.TID 0000.0001) %MON dynstat_sss_min              =   1.8751391708835E+01
(PID.TID 0000.0001) %MON dynstat_sss_mean             =   3.4630653196111E+01
(PID.TID 0000.0001) %MON dynstat_sss_sd               =   1.4685713687757E+00
(PID.TID 0000.0001) %MON dynstat_sss_del2             =   9.7330208784696E-03
(PID.TID 0000.0001) %MON forcing_qnet_max             =   1.2241551208751E+04
(PID.TID 0000.0001) %MON forcing_qnet_min             =  -2.3601259765625E+03
(PID.TID 0000.0001) %MON forcing_qnet_mean            =  -1.3751022208143E+01
(PID.TID 0000.0001) %MON forcing_qnet_sd              =   3.0528921738263E+02
(PID.TID 0000.0001) %MON forcing_qnet_del2            =   9.4972552212077E+00
(PID.TID 0000.0001) %MON forcing_qsw_max              =   0.0000000000000E+00
(PID.TID 0000.0001) %MON forcing_qsw_min              =  -1.0605353492493E+02
(PID.TID 0000.0001) %MON forcing_qsw_mean             =  -1.6913720699935E+01
(PID.TID 0000.0001) %MON forcing_qsw_sd               =   2.5101182460099E+01
(PID.TID 0000.0001) %MON forcing_qsw_del2             =   2.6002096358242E-01
(PID.TID 0000.0001) %MON forcing_empmr_max            =   8.3870477974415E-03
(PID.TID 0000.0001) %MON forcing_empmr_min            =  -1.2717881798744E-01
(PID.TID 0000.0001) %MON forcing_empmr_mean           =  -4.0375440874831E-04
(PID.TID 0000.0001) %MON forcing_empmr_sd             =   5.8168275352286E-03
(PID.TID 0000.0001) %MON forcing_empmr_del2           =   2.3330607955132E-04
(PID.TID 0000.0001) %MON forcing_fu_max               =   4.6994922596252E-01
(PID.TID 0000.0001) %MON forcing_fu_min               =  -3.8042082319174E-01
(PID.TID 0000.0001) %MON forcing_fu_mean              =  -4.0763569398823E-03
(PID.TID 0000.0001) %MON forcing_fu_sd                =   6.9034036402833E-02
(PID.TID 0000.0001) %MON forcing_fu_del2              =   6.7170477762228E-04
(PID.TID 0000.0001) %MON forcing_fv_max               =   3.2498700693572E-01
(PID.TID 0000.0001) %MON forcing_fv_min               =  -3.0393256841568E-01
(PID.TID 0000.0001) %MON forcing_fv_mean              =  -1.1399897474731E-02
(PID.TID 0000.0001) %MON forcing_fv_sd                =   6.8147812602906E-02
(PID.TID 0000.0001) %MON forcing_fv_del2              =   5.9504386642023E-04
(PID.TID 0000.0001) %MON trAdv_CFL_u_max              =   2.2569041652924E-03
(PID.TID 0000.0001) %MON trAdv_CFL_v_max              =   4.4937150818458E-03
(PID.TID 0000.0001) %MON trAdv_CFL_w_max              =   2.0766876962512E-03
(PID.TID 0000.0001) %MON advcfl_uvel_max              =   2.2574738105827E-03
(PID.TID 0000.0001) %MON advcfl_vvel_max              =   2.9546168447706E-03
(PID.TID 0000.0001) %MON advcfl_wvel_max              =   4.4236110604328E-03
(PID.TID 0000.0001) %MON advcfl_W_hf_max              =   2.0387960008528E-03
(PID.TID 0000.0001) %MON pe_b_mean                    =   5.1602974720991E-04
(PID.TID 0000.0001) %MON ke_max                       =   4.0056655670182E-01
(PID.TID 0000.0001) %MON ke_mean                      =   1.6642917505527E-04
(PID.TID 0000.0001) %MON ke_vol                       =   1.3398096940082E+18
(PID.TID 0000.0001) %MON vort_r_min                   =  -5.6131002547205E-06
(PID.TID 0000.0001) %MON vort_r_max                   =   2.6084437971900E-06
(PID.TID 0000.0001) %MON vort_a_mean                  =  -2.0549865324846E-05
(PID.TID 0000.0001) %MON vort_a_sd                    =   7.5259501962705E-05
(PID.TID 0000.0001) %MON vort_p_mean                  =  -2.4783335685506E-05
(PID.TID 0000.0001) %MON vort_p_sd                    =   1.2811902980447E-04
(PID.TID 0000.0001) %MON surfExpan_theta_mean         =  -7.0510484667553E-06
(PID.TID 0000.0001) %MON surfExpan_salt_mean          =   1.2215291866498E-06
(PID.TID 0000.0001) // =======================================================
(PID.TID 0000.0001) // End MONITOR dynamic field statistics
(PID.TID 0000.0001) // =======================================================
 cg2d: Sum(rhs),rhsMax =  -2.75484586852422E+01  6.44013143996350E+01
(PID.TID 0000.0001)      cg2d_init_res =   2.36936826743480E-01
(PID.TID 0000.0001)      cg2d_iters(min,last) =      -1      10
(PID.TID 0000.0001)      cg2d_last_res =   7.84780992250869E-08
(PID.TID 0000.0001) // =======================================================
(PID.TID 0000.0001) // Begin MONITOR dynamic field statistics
(PID.TID 0000.0001) // =======================================================
(PID.TID 0000.0001) %MON time_tsnumber                =                 72029
(PID.TID 0000.0001) %MON time_secondsf                =   6.4826100000000E+07
(PID.TID 0000.0001) %MON dynstat_eta_max              =   2.5839017701076E+00
(PID.TID 0000.0001) %MON dynstat_eta_min              =  -3.6263463142030E+00
(PID.TID 0000.0001) %MON dynstat_eta_mean             =   2.0615468546349E-02
(PID.TID 0000.0001) %MON dynstat_eta_sd               =   6.2172708295308E-01
(PID.TID 0000.0001) %MON dynstat_eta_del2             =   3.1488580062315E-03
(PID.TID 0000.0001) %MON dynstat_uvel_max             =   3.9248773855096E-01
(PID.TID 0000.0001) %MON dynstat_uvel_min             =  -8.0910172168112E-01
(PID.TID 0000.0001) %MON dynstat_uvel_mean            =  -6.9070659546786E-05
(PID.TID 0000.0001) %MON dynstat_uvel_sd              =   1.2810917908694E-02
(PID.TID 0000.0001) %MON dynstat_uvel_del2            =   8.4365426959951E-05
(PID.TID 0000.0001) %MON dynstat_vvel_max             =   7.2945675122734E-01
(PID.TID 0000.0001) %MON dynstat_vvel_min             =  -9.6399919838856E-01
(PID.TID 0000.0001) %MON dynstat_vvel_mean            =  -4.4965174366758E-04
(PID.TID 0000.0001) %MON dynstat_vvel_sd              =   1.4033361010554E-02
(PID.TID 0000.0001) %MON dynstat_vvel_del2            =   1.2122583074629E-04
(PID.TID 0000.0001) %MON dynstat_wvel_max             =   1.7657833324874E-04
(PID.TID 0000.0001) %MON dynstat_wvel_min             =  -3.6762521107093E-04
(PID.TID 0000.0001) %MON dynstat_wvel_mean            =  -1.5857823369431E-07
(PID.TID 0000.0001) %MON dynstat_wvel_sd              =   8.5316927431377E-06
(PID.TID 0000.0001) %MON dynstat_wvel_del2            =   7.5614554282742E-08
(PID.TID 0000.0001) %MON dynstat_theta_max            =   3.0922555973497E+01
(PID.TID 0000.0001) %MON dynstat_theta_min            =  -3.0059009205577E+00
(PID.TID 0000.0001) %MON dynstat_theta_mean           =   3.9091208911515E+00
(PID.TID 0000.0001) %MON dynstat_theta_sd             =   4.5713416688511E+00
(PID.TID 0000.0001) %MON dynstat_theta_del2           =   2.6458283507337E-03
(PID.TID 0000.0001) %MON dynstat_salt_max             =   4.1357887686457E+01
(PID.TID 0000.0001) %MON dynstat_salt_min             =   1.8518659041990E+01
(PID.TID 0000.0001) %MON dynstat_salt_mean            =   3.4772036299608E+01
(PID.TID 0000.0001) %MON dynstat_salt_sd              =   5.3142203768279E-01
(PID.TID 0000.0001) %MON dynstat_salt_del2            =   9.2096445062249E-04
(PID.TID 0000.0001) %MON dynstat_sst_max              =   3.0922555973497E+01
(PID.TID 0000.0001) %MON dynstat_sst_min              =  -1.8987630495141E+00
(PID.TID 0000.0001) %MON dynstat_sst_mean             =   1.8108439324511E+01
(PID.TID 0000.0001) %MON dynstat_sst_sd               =   9.8086756804740E+00
(PID.TID 0000.0001) %MON dynstat_sst_del2             =   1.5107374827954E-02
(PID.TID 0000.0001) %MON dynstat_sss_max              =   4.1357887686457E+01
(PID.TID 0000.0001) %MON dynstat_sss_min              =   1.8751392317266E+01
(PID.TID 0000.0001) %MON dynstat_sss_mean             =   3.4630361029998E+01
(PID.TID 0000.0001) %MON dynstat_sss_sd               =   1.4690773594884E+00
(PID.TID 0000.0001) %MON dynstat_sss_del2             =   9.8145356706895E-03
(PID.TID 0000.0001) %MON forcing_qnet_max             =   2.8794616688173E+03
(PID.TID 0000.0001) %MON forcing_qnet_min             =  -2.2484096679688E+03
(PID.TID 0000.0001) %MON forcing_qnet_mean            =  -1.0261703084142E+01
(PID.TID 0000.0001) %MON forcing_qnet_sd              =   2.4532769364965E+02
(PID.TID 0000.0001) %MON forcing_qnet_del2            =   6.0642182505668E+00
(PID.TID 0000.0001) %MON forcing_qsw_max              =   0.0000000000000E+00
(PID.TID 0000.0001) %MON forcing_qsw_min              =  -1.0274602341599E+02
(PID.TID 0000.0001) %MON forcing_qsw_mean             =  -1.6358259731234E+01
(PID.TID 0000.0001) %MON forcing_qsw_sd               =   2.4651144578913E+01
(PID.TID 0000.0001) %MON forcing_qsw_del2             =   2.5595865839763E-01
(PID.TID 0000.0001) %MON forcing_empmr_max            =   8.3005512133241E-03
(PID.TID 0000.0001) %MON forcing_empmr_min            =  -1.2212643027306E-01
(PID.TID 0000.0001) %MON forcing_empmr_mean           =  -3.9596594396854E-04
(PID.TID 0000.0001) %MON forcing_empmr_sd             =   5.7005559583917E-03
(PID.TID 0000.0001) %MON forcing_empmr_del2           =   2.2775292991708E-04
(PID.TID 0000.0001) %MON forcing_fu_max               =   4.5629214839660E-01
(PID.TID 0000.0001) %MON forcing_fu_min               =  -3.7681387112189E-01
(PID.TID 0000.0001) %MON forcing_fu_mean              =  -4.0838980846443E-03
(PID.TID 0000.0001) %MON forcing_fu_sd                =   6.8331609802266E-02
(PID.TID 0000.0001) %MON forcing_fu_del2              =   6.6445302112779E-04
(PID.TID 0000.0001) %MON forcing_fv_max               =   3.2478899119419E-01
(PID.TID 0000.0001) %MON forcing_fv_min               =  -3.0051027342883E-01
(PID.TID 0000.0001) %MON forcing_fv_mean              =  -1.1500625181432E-02
(PID.TID 0000.0001) %MON forcing_fv_sd                =   6.7712584596963E-02
(PID.TID 0000.0001) %MON forcing_fv_del2              =   5.9053673004957E-04
(PID.TID 0000.0001) %MON trAdv_CFL_u_max              =   2.3822480550072E-03
(PID.TID 0000.0001) %MON trAdv_CFL_v_max              =   4.7937138621488E-03
(PID.TID 0000.0001) %MON trAdv_CFL_w_max              =   2.0251081431041E-03
(PID.TID 0000.0001) %MON advcfl_uvel_max              =   2.3813781628267E-03
(PID.TID 0000.0001) %MON advcfl_vvel_max              =   3.1458810225653E-03
(PID.TID 0000.0001) %MON advcfl_wvel_max              =   4.2478758355846E-03
(PID.TID 0000.0001) %MON advcfl_W_hf_max              =   1.9922565807174E-03
(PID.TID 0000.0001) %MON pe_b_mean                    =   5.1551213047419E-04
(PID.TID 0000.0001) %MON ke_max                       =   4.0556432195576E-01
(PID.TID 0000.0001) %MON ke_mean                      =   1.6686004606694E-04
(PID.TID 0000.0001) %MON ke_vol                       =   1.3398098217655E+18
(PID.TID 0000.0001) %MON vort_r_min                   =  -5.6918297192509E-06
(PID.TID 0000.0001) %MON vort_r_max                   =   2.4968532184328E-06
(PID.TID 0000.0001) %MON vort_a_mean                  =  -2.0549865324846E-05
(PID.TID 0000.0001) %MON vort_a_sd                    =   7.5259500226375E-05
(PID.TID 0000.0001) %MON vort_p_mean                  =  -2.4783333403697E-05
(PID.TID 0000.0001) %MON vort_p_sd                    =   1.2811901918862E-04
(PID.TID 0000.0001) %MON surfExpan_theta_mean         =  -7.0070111184173E-06
(PID.TID 0000.0001) %MON surfExpan_salt_mean          =   1.1827225644056E-06
(PID.TID 0000.0001) // =======================================================
(PID.TID 0000.0001) // End MONITOR dynamic field statistics
(PID.TID 0000.0001) // =======================================================
 cg2d: Sum(rhs),rhsMax =  -3.09057513728126E+01  5.83425247250412E+01
(PID.TID 0000.0001)      cg2d_init_res =   2.69151604587070E-01
(PID.TID 0000.0001)      cg2d_iters(min,last) =      -1      10
(PID.TID 0000.0001)      cg2d_last_res =   8.67593638153964E-08
(PID.TID 0000.0001) // =======================================================
(PID.TID 0000.0001) // Begin MONITOR dynamic field statistics
(PID.TID 0000.0001) // =======================================================
(PID.TID 0000.0001) %MON time_tsnumber                =                 72030
(PID.TID 0000.0001) %MON time_secondsf                =   6.4827000000000E+07
(PID.TID 0000.0001) %MON dynstat_eta_max              =   2.2864956585414E+00
(PID.TID 0000.0001) %MON dynstat_eta_min              =  -3.2848647366932E+00
(PID.TID 0000.0001) %MON dynstat_eta_mean             =   2.0952010288415E-02
(PID.TID 0000.0001) %MON dynstat_eta_sd               =   6.2130288647089E-01
(PID.TID 0000.0001) %MON dynstat_eta_del2             =   2.9716396960376E-03
(PID.TID 0000.0001) %MON dynstat_uvel_max             =   3.7966662028790E-01
(PID.TID 0000.0001) %MON dynstat_uvel_min             =  -8.4728516291326E-01
(PID.TID 0000.0001) %MON dynstat_uvel_mean            =  -1.0026717220767E-04
(PID.TID 0000.0001) %MON dynstat_uvel_sd              =   1.2822307728750E-02
(PID.TID 0000.0001) %MON dynstat_uvel_del2            =   8.4347596715609E-05
(PID.TID 0000.0001) %MON dynstat_vvel_max             =   8.3545700044258E-01
(PID.TID 0000.0001) %MON dynstat_vvel_min             =  -1.0415772058897E+00
(PID.TID 0000.0001) %MON dynstat_vvel_mean            =  -4.4820995229495E-04
(PID.TID 0000.0001) %MON dynstat_vvel_sd              =   1.4058471474906E-02
(PID.TID 0000.0001) %MON dynstat_vvel_del2            =   1.2378365582577E-04
(PID.TID 0000.0001) %MON dynstat_wvel_max             =   1.8210984023674E-04
(PID.TID 0000.0001) %MON dynstat_wvel_min             =  -3.4088396757912E-04
(PID.TID 0000.0001) %MON dynstat_wvel_mean            =  -1.3429005394642E-07
(PID.TID 0000.0001) %MON dynstat_wvel_sd              =   8.5083636269454E-06
(PID.TID 0000.0001) %MON dynstat_wvel_del2            =   7.5129974833071E-08
(PID.TID 0000.0001) %MON dynstat_theta_max            =   3.0922678869196E+01
(PID.TID 0000.0001) %MON dynstat_theta_min            =  -3.0058654791090E+00
(PID.TID 0000.0001) %MON dynstat_theta_mean           =   3.9091232513910E+00
(PID.TID 0000.0001) %MON dynstat_theta_sd             =   4.5713514552845E+00
(PID.TID 0000.0001) %MON dynstat_theta_del2           =   2.6456911377807E-03
(PID.TID 0000.0001) %MON dynstat_salt_max             =   4.1357537547132E+01
(PID.TID 0000.0001) %MON dynstat_salt_min             =   1.8518669222977E+01
(PID.TID 0000.0001) %MON dynstat_salt_mean            =   3.4772032308759E+01
(PID.TID 0000.0001) %MON dynstat_salt_sd              =   5.3144197995631E-01
(PID.TID 0000.0001) %MON dynstat_salt_del2            =   9.2643311596789E-04
(PID.TID 0000.0001) %MON dynstat_sst_max              =   3.0922678869196E+01
(PID.TID 0000.0001) %MON dynstat_sst_min              =  -1.9005624483328E+00
(PID.TID 0000.0001) %MON dynstat_sst_mean             =   1.8108492466360E+01
(PID.TID 0000.0001) %MON dynstat_sst_sd               =   9.8088282703770E+00
(PID.TID 0000.0001) %MON dynstat_sst_del2             =   1.5104521658296E-02
(PID.TID 0000.0001) %MON dynstat_sss_max              =   4.1357537547132E+01
(PID.TID 0000.0001) %MON dynstat_sss_min              =   1.8751393845353E+01
(PID.TID 0000.0001) %MON dynstat_sss_mean             =   3.4630073393351E+01
(PID.TID 0000.0001) %MON dynstat_sss_sd               =   1.4695804370397E+00
(PID.TID 0000.0001) %MON dynstat_sss_del2             =   9.8955023900307E-03
(PID.TID 0000.0001) %MON forcing_qnet_max             =   5.0889472656250E+03
(PID.TID 0000.0001) %MON forcing_qnet_min             =  -2.0473629150391E+03
(PID.TID 0000.0001) %MON forcing_qnet_mean            =  -6.1019467716443E+00
(PID.TID 0000.0001) %MON forcing_qnet_sd              =   2.5528698707009E+02
(PID.TID 0000.0001) %MON forcing_qnet_del2            =   7.0076103261962E+00
(PID.TID 0000.0001) %MON forcing_qsw_max              =   0.0000000000000E+00
(PID.TID 0000.0001) %MON forcing_qsw_min              =  -1.0056677412176E+02
(PID.TID 0000.0001) %MON forcing_qsw_mean             =  -1.6171708833290E+01
(PID.TID 0000.0001) %MON forcing_qsw_sd               =   2.4576070978384E+01
(PID.TID 0000.0001) %MON forcing_qsw_del2             =   2.5319992671936E-01
(PID.TID 0000.0001) %MON forcing_empmr_max            =   8.2149896770716E-03
(PID.TID 0000.0001) %MON forcing_empmr_min            =  -1.1807961016893E-01
(PID.TID 0000.0001) %MON forcing_empmr_mean           =  -3.8702300337625E-04
(PID.TID 0000.0001) %MON forcing_empmr_sd             =   5.5742459299595E-03
(PID.TID 0000.0001) %MON forcing_empmr_del2           =   2.2151103652277E-04
(PID.TID 0000.0001) %MON forcing_fu_max               =   4.4106825743702E-01
(PID.TID 0000.0001) %MON forcing_fu_min               =  -3.7372012782470E-01
(PID.TID 0000.0001) %MON forcing_fu_mean              =  -4.0720622313139E-03
(PID.TID 0000.0001) %MON forcing_fu_sd                =   6.7647519602560E-02
(PID.TID 0000.0001) %MON forcing_fu_del2              =   6.5709078023499E-04
(PID.TID 0000.0001) %MON forcing_fv_max               =   3.2140037196777E-01
(PID.TID 0000.0001) %MON forcing_fv_min               =  -2.9719832613135E-01
(PID.TID 0000.0001) %MON forcing_fv_mean              =  -1.1628802008896E-02
(PID.TID 0000.0001) %MON forcing_fv_sd                =   6.7232699306080E-02
(PID.TID 0000.0001) %MON forcing_fv_del2              =   5.8510019627993E-04
(PID.TID 0000.0001) %MON trAdv_CFL_u_max              =   2.4967093910412E-03
(PID.TID 0000.0001) %MON trAdv_CFL_v_max              =   5.0285436541429E-03
(PID.TID 0000.0001) %MON trAdv_CFL_w_max              =   1.9691949513108E-03
(PID.TID 0000.0001) %MON advcfl_uvel_max              =   2.4937610816801E-03
(PID.TID 0000.0001) %MON advcfl_vvel_max              =   3.3990463591904E-03
(PID.TID 0000.0001) %MON advcfl_wvel_max              =   4.1071168754412E-03
(PID.TID 0000.0001) %MON advcfl_W_hf_max              =   2.1429709912817E-03
(PID.TID 0000.0001) %MON pe_b_mean                    =   5.1482827597374E-04
(PID.TID 0000.0001) %MON ke_max                       =   4.0611692828741E-01
(PID.TID 0000.0001) %MON ke_mean                      =   1.6732332291542E-04
(PID.TID 0000.0001) %MON ke_vol                       =   1.3398099470584E+18
(PID.TID 0000.0001) %MON vort_r_min                   =  -5.7283160805770E-06
(PID.TID 0000.0001) %MON vort_r_max                   =   2.7575684191393E-06
(PID.TID 0000.0001) %MON vort_a_mean                  =  -2.0549865324846E-05
(PID.TID 0000.0001) %MON vort_a_sd                    =   7.5259499015296E-05
(PID.TID 0000.0001) %MON vort_p_mean                  =  -2.4783331201515E-05
(PID.TID 0000.0001) %MON vort_p_sd                    =   1.2811901361231E-04
(PID.TID 0000.0001) %MON surfExpan_theta_mean         =  -6.9601734338534E-06
(PID.TID 0000.0001) %MON surfExpan_salt_mean          =   1.1440285778350E-06
(PID.TID 0000.0001) // =======================================================
(PID.TID 0000.0001) // End MONITOR dynamic field statistics
(PID.TID 0000.0001) // =======================================================
 cg2d: Sum(rhs),rhsMax =  -3.56036299148848E+01  5.14370930507940E+01
(PID.TID 0000.0001)      cg2d_init_res =   3.13001592421393E-01
(PID.TID 0000.0001)      cg2d_iters(min,last) =      -1      10
(PID.TID 0000.0001)      cg2d_last_res =   9.86868407173749E-08
(PID.TID 0000.0001) // =======================================================
(PID.TID 0000.0001) // Begin MONITOR dynamic field statistics
(PID.TID 0000.0001) // =======================================================
(PID.TID 0000.0001) %MON time_tsnumber                =                 72031
(PID.TID 0000.0001) %MON time_secondsf                =   6.4827900000000E+07
(PID.TID 0000.0001) %MON dynstat_eta_max              =   1.9802579004576E+00
(PID.TID 0000.0001) %MON dynstat_eta_min              =  -2.8958977245088E+00
(PID.TID 0000.0001) %MON dynstat_eta_mean             =   2.1280011970139E-02
(PID.TID 0000.0001) %MON dynstat_eta_sd               =   6.2082163287494E-01
(PID.TID 0000.0001) %MON dynstat_eta_del2             =   2.7930274180217E-03
(PID.TID 0000.0001) %MON dynstat_uvel_max             =   3.6315186532710E-01
(PID.TID 0000.0001) %MON dynstat_uvel_min             =  -8.8080721773228E-01
(PID.TID 0000.0001) %MON dynstat_uvel_mean            =  -1.3419559991770E-04
(PID.TID 0000.0001) %MON dynstat_uvel_sd              =   1.2845276650463E-02
(PID.TID 0000.0001) %MON dynstat_uvel_del2            =   8.4572810258668E-05
(PID.TID 0000.0001) %MON dynstat_vvel_max             =   9.2570780646294E-01
(PID.TID 0000.0001) %MON dynstat_vvel_min             =  -1.1012464868124E+00
(PID.TID 0000.0001) %MON dynstat_vvel_mean            =  -4.4387671823716E-04
(PID.TID 0000.0001) %MON dynstat_vvel_sd              =   1.4070421043539E-02
(PID.TID 0000.0001) %MON dynstat_vvel_del2            =   1.2579776470564E-04
(PID.TID 0000.0001) %MON dynstat_wvel_max             =   1.8646461188530E-04
(PID.TID 0000.0001) %MON dynstat_wvel_min             =  -3.1440071711083E-04
(PID.TID 0000.0001) %MON dynstat_wvel_mean            =  -1.1048631317706E-07
(PID.TID 0000.0001) %MON dynstat_wvel_sd              =   8.4955752282026E-06
(PID.TID 0000.0001) %MON dynstat_wvel_del2            =   7.4789257747137E-08
(PID.TID 0000.0001) %MON dynstat_theta_max            =   3.0922813281098E+01
(PID.TID 0000.0001) %MON dynstat_theta_min            =  -3.0058176220803E+00
(PID.TID 0000.0001) %MON dynstat_theta_mean           =   3.9091254873424E+00
(PID.TID 0000.0001) %MON dynstat_theta_sd             =   4.5713609573291E+00
(PID.TID 0000.0001) %MON dynstat_theta_del2           =   2.6455595073073E-03
(PID.TID 0000.0001) %MON dynstat_salt_max             =   4.1357202046862E+01
(PID.TID 0000.0001) %MON dynstat_salt_min             =   1.8518679455671E+01
(PID.TID 0000.0001) %MON dynstat_salt_mean            =   3.4772028433103E+01
(PID.TID 0000.0001) %MON dynstat_salt_sd              =   5.3146181338586E-01
(PID.TID 0000.0001) %MON dynstat_salt_del2            =   9.3187132213716E-04
(PID.TID 0000.0001) %MON dynstat_sst_max              =   3.0922813281098E+01
(PID.TID 0000.0001) %MON dynstat_sst_min              =  -1.8999071758879E+00
(PID.TID 0000.0001) %MON dynstat_sst_mean             =   1.8108540311706E+01
(PID.TID 0000.0001) %MON dynstat_sst_sd               =   9.8089811950115E+00
(PID.TID 0000.0001) %MON dynstat_sst_del2             =   1.5101845356320E-02
(PID.TID 0000.0001) %MON dynstat_sss_max              =   4.1357202046862E+01
(PID.TID 0000.0001) %MON dynstat_sss_min              =   1.8751396106698E+01
(PID.TID 0000.0001) %MON dynstat_sss_mean             =   3.4629794620690E+01
(PID.TID 0000.0001) %MON dynstat_sss_sd               =   1.4700809333138E+00
(PID.TID 0000.0001) %MON dynstat_sss_del2             =   9.9758335245018E-03
(PID.TID 0000.0001) %MON forcing_qnet_max             =   2.8020068032228E+03
(PID.TID 0000.0001) %MON forcing_qnet_min             =  -1.7636033676918E+03
(PID.TID 0000.0001) %MON forcing_qnet_mean            =  -4.3366731719617E+00
(PID.TID 0000.0001) %MON forcing_qnet_sd              =   2.3924257349696E+02
(PID.TID 0000.0001) %MON forcing_qnet_del2            =   5.6943575979689E+00
(PID.TID 0000.0001) %MON forcing_qsw_max              =   0.0000000000000E+00
(PID.TID 0000.0001) %MON forcing_qsw_min              =  -9.7970445561354E+01
(PID.TID 0000.0001) %MON forcing_qsw_mean             =  -1.5941132271897E+01
(PID.TID 0000.0001) %MON forcing_qsw_sd               =   2.4493641287687E+01
(PID.TID 0000.0001) %MON forcing_qsw_del2             =   2.4980779816040E-01
(PID.TID 0000.0001) %MON forcing_empmr_max            =   8.1302635371685E-03
(PID.TID 0000.0001) %MON forcing_empmr_min            =  -1.1686293035746E-01
(PID.TID 0000.0001) %MON forcing_empmr_mean           =  -3.7720193398208E-04
(PID.TID 0000.0001) %MON forcing_empmr_sd             =   5.4557301549831E-03
(PID.TID 0000.0001) %MON forcing_empmr_del2           =   2.1564291799569E-04
(PID.TID 0000.0001) %MON forcing_fu_max               =   4.2913857510811E-01
(PID.TID 0000.0001) %MON forcing_fu_min               =  -3.7086625024673E-01
(PID.TID 0000.0001) %MON forcing_fu_mean              =  -4.0564264370341E-03
(PID.TID 0000.0001) %MON forcing_fu_sd                =   6.6992365320551E-02
(PID.TID 0000.0001) %MON forcing_fu_del2              =   6.5111786495179E-04
(PID.TID 0000.0001) %MON forcing_fv_max               =   3.1971340377888E-01
(PID.TID 0000.0001) %MON forcing_fv_min               =  -2.9434470188595E-01
(PID.TID 0000.0001) %MON forcing_fv_mean              =  -1.1771865284907E-02
(PID.TID 0000.0001) %MON forcing_fv_sd                =   6.6792365900669E-02
(PID.TID 0000.0001) %MON forcing_fv_del2              =   5.8019865332292E-04
(PID.TID 0000.0001) %MON trAdv_CFL_u_max              =   2.5981212515363E-03
(PID.TID 0000.0001) %MON trAdv_CFL_v_max              =   5.1961530266200E-03
(PID.TID 0000.0001) %MON trAdv_CFL_w_max              =   1.9092621789103E-03
(PID.TID 0000.0001) %MON advcfl_uvel_max              =   2.5924244353474E-03
(PID.TID 0000.0001) %MON advcfl_vvel_max              =   3.5937689884193E-03
(PID.TID 0000.0001) %MON advcfl_wvel_max              =   4.0647975776506E-03
(PID.TID 0000.0001) %MON advcfl_W_hf_max              =   2.2867755126142E-03
(PID.TID 0000.0001) %MON pe_b_mean                    =   5.1405033771297E-04
(PID.TID 0000.0001) %MON ke_max                       =   4.0228182752885E-01
(PID.TID 0000.0001) %MON ke_mean                      =   1.6775201086792E-04
(PID.TID 0000.0001) %MON ke_vol                       =   1.3398100695214E+18
(PID.TID 0000.0001) %MON vort_r_min                   =  -5.7211174972288E-06
(PID.TID 0000.0001) %MON vort_r_max                   =   3.0554566077016E-06
(PID.TID 0000.0001) %MON vort_a_mean                  =  -2.0549865324846E-05
(PID.TID 0000.0001) %MON vort_a_sd                    =   7.5259498511610E-05
(PID.TID 0000.0001) %MON vort_p_mean                  =  -2.4783329083706E-05
(PID.TID 0000.0001) %MON vort_p_sd                    =   1.2811901330095E-04
(PID.TID 0000.0001) %MON surfExpan_theta_mean         =  -6.9170594420890E-06
(PID.TID 0000.0001) %MON surfExpan_salt_mean          =   1.1049409515892E-06
(PID.TID 0000.0001) // =======================================================
(PID.TID 0000.0001) // End MONITOR dynamic field statistics
(PID.TID 0000.0001) // =======================================================
 Computing Diagnostic #     81  oceTAUX      Counter:       1   Parms: UU      U1      
           Vector  Mate for  oceTAUX      Diagnostic #     82  oceTAUY  exists 
 Computing Diagnostic #     82  oceTAUY      Counter:       1   Parms: VV      U1      
           Vector  Mate for  oceTAUY      Diagnostic #     81  oceTAUX  exists 
 Computing Diagnostic #     85  oceFWflx     Counter:       1   Parms: SM      U1      
 Computing Diagnostic #     86  oceSflux     Counter:       1   Parms: SM      U1      
 Computing Diagnostic #     87  oceQnet      Counter:       1   Parms: SM      U1      
 Computing Diagnostic #     88  oceQsw       Counter:       1   Parms: SM      U1      
 Computing Diagnostic #     27  SALT         Counter:       1   Parms: SMR     MR      
 Computing Diagnostic #     26  THETA        Counter:       1   Parms: SMR     MR      
 Computing Diagnostic #     45  UVELMASS     Counter:       1   Parms: UUr     MR      
           Vector  Mate for  UVELMASS     Diagnostic #     46  VVELMASS exists 
 Computing Diagnostic #     46  VVELMASS     Counter:       1   Parms: VVr     MR      
           Vector  Mate for  VVELMASS     Diagnostic #     45  UVELMASS exists 
 cg2d: Sum(rhs),rhsMax =  -4.24111891744577E+01  4.38291671804242E+01
(PID.TID 0000.0001)      cg2d_init_res =   3.73578173626221E-01
(PID.TID 0000.0001)      cg2d_iters(min,last) =      -1      11
(PID.TID 0000.0001)      cg2d_last_res =   3.18069722635201E-08
(PID.TID 0000.0001) // =======================================================
(PID.TID 0000.0001) // Begin MONITOR dynamic field statistics
(PID.TID 0000.0001) // =======================================================
(PID.TID 0000.0001) %MON time_tsnumber                =                 72032
(PID.TID 0000.0001) %MON time_secondsf                =   6.4828800000000E+07
(PID.TID 0000.0001) %MON dynstat_eta_max              =   1.8833002700361E+00
(PID.TID 0000.0001) %MON dynstat_eta_min              =  -2.4675476980139E+00
(PID.TID 0000.0001) %MON dynstat_eta_mean             =   2.1599556880908E-02
(PID.TID 0000.0001) %MON dynstat_eta_sd               =   6.2032067117341E-01
(PID.TID 0000.0001) %MON dynstat_eta_del2             =   2.6200759578210E-03
(PID.TID 0000.0001) %MON dynstat_uvel_max             =   3.4316668313824E-01
(PID.TID 0000.0001) %MON dynstat_uvel_min             =  -9.0897095441216E-01
(PID.TID 0000.0001) %MON dynstat_uvel_mean            =  -1.7002975035555E-04
(PID.TID 0000.0001) %MON dynstat_uvel_sd              =   1.2875808281349E-02
(PID.TID 0000.0001) %MON dynstat_uvel_del2            =   8.4936947454572E-05
(PID.TID 0000.0001) %MON dynstat_vvel_max             =   9.9967257512546E-01
(PID.TID 0000.0001) %MON dynstat_vvel_min             =  -1.1424103743437E+00
(PID.TID 0000.0001) %MON dynstat_vvel_mean            =  -4.3609605005204E-04
(PID.TID 0000.0001) %MON dynstat_vvel_sd              =   1.4068636527583E-02
(PID.TID 0000.0001) %MON dynstat_vvel_del2            =   1.2722401488224E-04
(PID.TID 0000.0001) %MON dynstat_wvel_max             =   1.8978318720519E-04
(PID.TID 0000.0001) %MON dynstat_wvel_min             =  -2.8942408457517E-04
(PID.TID 0000.0001) %MON dynstat_wvel_mean            =  -8.7491694938145E-08
(PID.TID 0000.0001) %MON dynstat_wvel_sd              =   8.4830438207357E-06
(PID.TID 0000.0001) %MON dynstat_wvel_del2            =   7.4615157516025E-08
(PID.TID 0000.0001) %MON dynstat_theta_max            =   3.0922958221613E+01
(PID.TID 0000.0001) %MON dynstat_theta_min            =  -3.0057532777192E+00
(PID.TID 0000.0001) %MON dynstat_theta_mean           =   3.9091275756606E+00
(PID.TID 0000.0001) %MON dynstat_theta_sd             =   4.5713700719306E+00
(PID.TID 0000.0001) %MON dynstat_theta_del2           =   2.6454270956176E-03
(PID.TID 0000.0001) %MON dynstat_salt_max             =   4.1356877838805E+01
(PID.TID 0000.0001) %MON dynstat_salt_min             =   1.8518689738534E+01
(PID.TID 0000.0001) %MON dynstat_salt_mean            =   3.4772024661548E+01
(PID.TID 0000.0001) %MON dynstat_salt_sd              =   5.3148149437760E-01
(PID.TID 0000.0001) %MON dynstat_salt_del2            =   9.3728710377427E-04
(PID.TID 0000.0001) %MON dynstat_sst_max              =   3.0922958221613E+01
(PID.TID 0000.0001) %MON dynstat_sst_min              =  -1.8990887069959E+00
(PID.TID 0000.0001) %MON dynstat_sst_mean             =   1.8108580513817E+01
(PID.TID 0000.0001) %MON dynstat_sst_sd               =   9.8091348391365E+00
(PID.TID 0000.0001) %MON dynstat_sst_del2             =   1.5099183822556E-02
(PID.TID 0000.0001) %MON dynstat_sss_max              =   4.1356877838805E+01
(PID.TID 0000.0001) %MON dynstat_sss_min              =   1.8751399124763E+01
(PID.TID 0000.0001) %MON dynstat_sss_mean             =   3.4629523843805E+01
(PID.TID 0000.0001) %MON dynstat_sss_sd               =   1.4705776097421E+00
(PID.TID 0000.0001) %MON dynstat_sss_del2             =   1.0055653339251E-02
(PID.TID 0000.0001) %MON forcing_qnet_max             =   2.7633739513557E+03
(PID.TID 0000.0001) %MON forcing_qnet_min             =  -4.7317832031250E+03
(PID.TID 0000.0001) %MON forcing_qnet_mean            =  -2.3172568583079E+00
(PID.TID 0000.0001) %MON forcing_qnet_sd              =   2.4879458029580E+02
(PID.TID 0000.0001) %MON forcing_qnet_del2            =   6.4916163454737E+00
(PID.TID 0000.0001) %MON forcing_qsw_max              =   0.0000000000000E+00
(PID.TID 0000.0001) %MON forcing_qsw_min              =  -9.5302763208663E+01
(PID.TID 0000.0001) %MON forcing_qsw_mean             =  -1.5669087045869E+01
(PID.TID 0000.0001) %MON forcing_qsw_sd               =   2.4402267492969E+01
(PID.TID 0000.0001) %MON forcing_qsw_del2             =   2.4579958153506E-01
(PID.TID 0000.0001) %MON forcing_empmr_max            =   8.0465711653233E-03
(PID.TID 0000.0001) %MON forcing_empmr_min            =  -1.1565884202719E-01
(PID.TID 0000.0001) %MON forcing_empmr_mean           =  -3.6747664738477E-04
(PID.TID 0000.0001) %MON forcing_empmr_sd             =   5.3638245556142E-03
(PID.TID 0000.0001) %MON forcing_empmr_del2           =   2.1154762821013E-04
(PID.TID 0000.0001) %MON forcing_fu_max               =   4.2110799108986E-01
(PID.TID 0000.0001) %MON forcing_fu_min               =  -3.7003754812220E-01
(PID.TID 0000.0001) %MON forcing_fu_mean              =  -4.0114150357767E-03
(PID.TID 0000.0001) %MON forcing_fu_sd                =   6.6454334739279E-02
(PID.TID 0000.0001) %MON forcing_fu_del2              =   6.4574279608515E-04
(PID.TID 0000.0001) %MON forcing_fv_max               =   3.2001475410353E-01
(PID.TID 0000.0001) %MON forcing_fv_min               =  -2.9196418883992E-01
(PID.TID 0000.0001) %MON forcing_fv_mean              =  -1.1882803083299E-02
(PID.TID 0000.0001) %MON forcing_fv_sd                =   6.6525712496941E-02
(PID.TID 0000.0001) %MON forcing_fv_del2              =   5.7680846183027E-04
(PID.TID 0000.0001) %MON trAdv_CFL_u_max              =   2.6844290051922E-03
(PID.TID 0000.0001) %MON trAdv_CFL_v_max              =   5.2955493750226E-03
(PID.TID 0000.0001) %MON trAdv_CFL_w_max              =   1.8526474728739E-03
(PID.TID 0000.0001) %MON advcfl_uvel_max              =   2.6753169885529E-03
(PID.TID 0000.0001) %MON advcfl_vvel_max              =   3.7281017687951E-03
(PID.TID 0000.0001) %MON advcfl_wvel_max              =   4.0229162444239E-03
(PID.TID 0000.0001) %MON advcfl_W_hf_max              =   2.4131487453566E-03
(PID.TID 0000.0001) %MON pe_b_mean                    =   5.1324024456728E-04
(PID.TID 0000.0001) %MON ke_max                       =   4.3938478634386E-01
(PID.TID 0000.0001) %MON ke_mean                      =   1.6809133619212E-04
(PID.TID 0000.0001) %MON ke_vol                       =   1.3398101888769E+18
(PID.TID 0000.0001) %MON vort_r_min                   =  -5.6694061741318E-06
(PID.TID 0000.0001) %MON vort_r_max                   =   3.2995899503927E-06
(PID.TID 0000.0001) %MON vort_a_mean                  =  -2.0549865324846E-05
(PID.TID 0000.0001) %MON vort_a_sd                    =   7.5259498883678E-05
(PID.TID 0000.0001) %MON vort_p_mean                  =  -2.4783327052818E-05
(PID.TID 0000.0001) %MON vort_p_sd                    =   1.2811901808186E-04
(PID.TID 0000.0001) %MON surfExpan_theta_mean         =  -6.8605375413927E-06
(PID.TID 0000.0001) %MON surfExpan_salt_mean          =   1.0678482139831E-06
(PID.TID 0000.0001) // =======================================================
(PID.TID 0000.0001) // End MONITOR dynamic field statistics
(PID.TID 0000.0001) // =======================================================
 cg2d: Sum(rhs),rhsMax =  -4.57458863529681E+01  4.12251693547242E+01
(PID.TID 0000.0001)      cg2d_init_res =   4.00054000926401E-01
(PID.TID 0000.0001)      cg2d_iters(min,last) =      -1      11
(PID.TID 0000.0001)      cg2d_last_res =   3.58022818140361E-08
(PID.TID 0000.0001) // =======================================================
(PID.TID 0000.0001) // Begin MONITOR dynamic field statistics
(PID.TID 0000.0001) // =======================================================
(PID.TID 0000.0001) %MON time_tsnumber                =                 72033
(PID.TID 0000.0001) %MON time_secondsf                =   6.4829700000000E+07
(PID.TID 0000.0001) %MON dynstat_eta_max              =   1.8613163214489E+00
(PID.TID 0000.0001) %MON dynstat_eta_min              =  -2.0084088765571E+00
(PID.TID 0000.0001) %MON dynstat_eta_mean             =   2.1913697806924E-02
(PID.TID 0000.0001) %MON dynstat_eta_sd               =   6.1982610027343E-01
(PID.TID 0000.0001) %MON dynstat_eta_del2             =   2.4592368551207E-03
(PID.TID 0000.0001) %MON dynstat_uvel_max             =   3.1999068057491E-01
(PID.TID 0000.0001) %MON dynstat_uvel_min             =  -9.3114543683621E-01
(PID.TID 0000.0001) %MON dynstat_uvel_mean            =  -2.0695182972393E-04
(PID.TID 0000.0001) %MON dynstat_uvel_sd              =   1.2909898803449E-02
(PID.TID 0000.0001) %MON dynstat_uvel_del2            =   8.5356447069930E-05
(PID.TID 0000.0001) %MON dynstat_vvel_max             =   1.0571081137475E+00
(PID.TID 0000.0001) %MON dynstat_vvel_min             =  -1.1648359647180E+00
(PID.TID 0000.0001) %MON dynstat_vvel_mean            =  -4.2444170020751E-04
(PID.TID 0000.0001) %MON dynstat_vvel_sd              =   1.4053617885014E-02
(PID.TID 0000.0001) %MON dynstat_vvel_del2            =   1.2804314045856E-04
(PID.TID 0000.0001) %MON dynstat_wvel_max             =   1.9651491772583E-04
(PID.TID 0000.0001) %MON dynstat_wvel_min             =  -2.6679155849828E-04
(PID.TID 0000.0001) %MON dynstat_wvel_mean            =  -6.6536928856614E-08
(PID.TID 0000.0001) %MON dynstat_wvel_sd              =   8.4640428930804E-06
(PID.TID 0000.0001) %MON dynstat_wvel_del2            =   7.4527368986908E-08
(PID.TID 0000.0001) %MON dynstat_theta_max            =   3.0923104291340E+01
(PID.TID 0000.0001) %MON dynstat_theta_min            =  -3.0056708035105E+00
(PID.TID 0000.0001) %MON dynstat_theta_mean           =   3.9091293029153E+00
(PID.TID 0000.0001) %MON dynstat_theta_sd             =   4.5713776680658E+00
(PID.TID 0000.0001) %MON dynstat_theta_del2           =   2.6452962913697E-03
(PID.TID 0000.0001) %MON dynstat_salt_max             =   4.1356560945039E+01
(PID.TID 0000.0001) %MON dynstat_salt_min             =   1.8518700070884E+01
(PID.TID 0000.0001) %MON dynstat_salt_mean            =   3.4772020931305E+01
(PID.TID 0000.0001) %MON dynstat_salt_sd              =   5.3150104802047E-01
(PID.TID 0000.0001) %MON dynstat_salt_del2            =   9.4264874727976E-04
(PID.TID 0000.0001) %MON dynstat_sst_max              =   3.0923104291340E+01
(PID.TID 0000.0001) %MON dynstat_sst_min              =  -1.8983399649508E+00
(PID.TID 0000.0001) %MON dynstat_sst_mean             =   1.8108596869546E+01
(PID.TID 0000.0001) %MON dynstat_sst_sd               =   9.8092740337412E+00
(PID.TID 0000.0001) %MON dynstat_sst_del2             =   1.5096590199188E-02
(PID.TID 0000.0001) %MON dynstat_sss_max              =   4.1356560945039E+01
(PID.TID 0000.0001) %MON dynstat_sss_min              =   1.8751402745416E+01
(PID.TID 0000.0001) %MON dynstat_sss_mean             =   3.4629256510522E+01
(PID.TID 0000.0001) %MON dynstat_sss_sd               =   1.4710706744883E+00
(PID.TID 0000.0001) %MON dynstat_sss_del2             =   1.0134501618869E-02
(PID.TID 0000.0001) %MON forcing_qnet_max             =   2.7254633857249E+03
(PID.TID 0000.0001) %MON forcing_qnet_min             =  -1.7146594378188E+03
(PID.TID 0000.0001) %MON forcing_qnet_mean            =   3.4736792491488E+00
(PID.TID 0000.0001) %MON forcing_qnet_sd              =   2.3449922313854E+02
(PID.TID 0000.0001) %MON forcing_qnet_del2            =   5.4196486990365E+00
(PID.TID 0000.0001) %MON forcing_qsw_max              =   0.0000000000000E+00
(PID.TID 0000.0001) %MON forcing_qsw_min              =  -9.6420623845839E+01
(PID.TID 0000.0001) %MON forcing_qsw_mean             =  -1.5145531928458E+01
(PID.TID 0000.0001) %MON forcing_qsw_sd               =   2.4410109060678E+01
(PID.TID 0000.0001) %MON forcing_qsw_del2             =   2.3215402783750E-01
(PID.TID 0000.0001) %MON forcing_empmr_max            =   7.9636173322797E-03
(PID.TID 0000.0001) %MON forcing_empmr_min            =  -1.1446733772755E-01
(PID.TID 0000.0001) %MON forcing_empmr_mean           =  -3.6126206491818E-04
(PID.TID 0000.0001) %MON forcing_empmr_sd             =   5.2843175060788E-03
(PID.TID 0000.0001) %MON forcing_empmr_del2           =   2.0833836941259E-04
(PID.TID 0000.0001) %MON forcing_fu_max               =   4.1099183987035E-01
(PID.TID 0000.0001) %MON forcing_fu_min               =  -3.6891114949727E-01
(PID.TID 0000.0001) %MON forcing_fu_mean              =  -3.9823023546273E-03
(PID.TID 0000.0001) %MON forcing_fu_sd                =   6.5826607331499E-02
(PID.TID 0000.0001) %MON forcing_fu_del2              =   6.3968998220253E-04
(PID.TID 0000.0001) %MON forcing_fv_max               =   3.2062642369616E-01
(PID.TID 0000.0001) %MON forcing_fv_min               =  -2.8981065147326E-01
(PID.TID 0000.0001) %MON forcing_fv_mean              =  -1.2005908409045E-02
(PID.TID 0000.0001) %MON forcing_fv_sd                =   6.6332280882528E-02
(PID.TID 0000.0001) %MON forcing_fv_del2              =   5.7424327589999E-04
(PID.TID 0000.0001) %MON trAdv_CFL_u_max              =   2.7537335947683E-03
(PID.TID 0000.0001) %MON trAdv_CFL_v_max              =   5.3267747146980E-03
(PID.TID 0000.0001) %MON trAdv_CFL_w_max              =   1.8041785502548E-03
(PID.TID 0000.0001) %MON advcfl_uvel_max              =   2.7405817467429E-03
(PID.TID 0000.0001) %MON advcfl_vvel_max              =   3.8012846503747E-03
(PID.TID 0000.0001) %MON advcfl_wvel_max              =   3.9814726166103E-03
(PID.TID 0000.0001) %MON advcfl_W_hf_max              =   2.5208991163690E-03
(PID.TID 0000.0001) %MON pe_b_mean                    =   5.1244133184155E-04
(PID.TID 0000.0001) %MON ke_max                       =   4.8433866248513E-01
(PID.TID 0000.0001) %MON ke_mean                      =   1.6830096310502E-04
(PID.TID 0000.0001) %MON ke_vol                       =   1.3398103051550E+18
(PID.TID 0000.0001) %MON vort_r_min                   =  -5.5729843706141E-06
(PID.TID 0000.0001) %MON vort_r_max                   =   3.4891657482572E-06
(PID.TID 0000.0001) %MON vort_a_mean                  =  -2.0549865324846E-05
(PID.TID 0000.0001) %MON vort_a_sd                    =   7.5259500266799E-05
(PID.TID 0000.0001) %MON vort_p_mean                  =  -2.4783325104614E-05
(PID.TID 0000.0001) %MON vort_p_sd                    =   1.2811902737869E-04
(PID.TID 0000.0001) %MON surfExpan_theta_mean         =  -6.8147976000520E-06
(PID.TID 0000.0001) %MON surfExpan_salt_mean          =   1.0339367043752E-06
(PID.TID 0000.0001) // =======================================================
(PID.TID 0000.0001) // End MONITOR dynamic field statistics
(PID.TID 0000.0001) // =======================================================
 cg2d: Sum(rhs),rhsMax =  -4.48708340451648E+01  4.26238993018687E+01
(PID.TID 0000.0001)      cg2d_init_res =   3.86415077755598E-01
(PID.TID 0000.0001)      cg2d_iters(min,last) =      -1      11
(PID.TID 0000.0001)      cg2d_last_res =   3.54956871178442E-08
(PID.TID 0000.0001) // =======================================================
(PID.TID 0000.0001) // Begin MONITOR dynamic field statistics
(PID.TID 0000.0001) // =======================================================
(PID.TID 0000.0001) %MON time_tsnumber                =                 72034
(PID.TID 0000.0001) %MON time_secondsf                =   6.4830600000000E+07
(PID.TID 0000.0001) %MON dynstat_eta_max              =   1.9047135409011E+00
(PID.TID 0000.0001) %MON dynstat_eta_min              =  -1.6072541151253E+00
(PID.TID 0000.0001) %MON dynstat_eta_mean             =   2.2223808825959E-02
(PID.TID 0000.0001) %MON dynstat_eta_sd               =   6.1935864360204E-01
(PID.TID 0000.0001) %MON dynstat_eta_del2             =   2.3165879142008E-03
(PID.TID 0000.0001) %MON dynstat_uvel_max             =   2.9743827645041E-01
(PID.TID 0000.0001) %MON dynstat_uvel_min             =  -9.4677856499266E-01
(PID.TID 0000.0001) %MON dynstat_uvel_mean            =  -2.4416603192682E-04
(PID.TID 0000.0001) %MON dynstat_uvel_sd              =   1.2944034901940E-02
(PID.TID 0000.0001) %MON dynstat_uvel_del2            =   8.5768677536537E-05
(PID.TID 0000.0001) %MON dynstat_vvel_max             =   1.0980509879917E+00
(PID.TID 0000.0001) %MON dynstat_vvel_min             =  -1.1686506183587E+00
(PID.TID 0000.0001) %MON dynstat_vvel_mean            =  -4.0859361257045E-04
(PID.TID 0000.0001) %MON dynstat_vvel_sd              =   1.4026854829804E-02
(PID.TID 0000.0001) %MON dynstat_vvel_del2            =   1.2824951574307E-04
(PID.TID 0000.0001) %MON dynstat_wvel_max             =   2.0427382465977E-04
(PID.TID 0000.0001) %MON dynstat_wvel_min             =  -2.4695976221350E-04
(PID.TID 0000.0001) %MON dynstat_wvel_mean            =  -4.8068591354130E-08
(PID.TID 0000.0001) %MON dynstat_wvel_sd              =   8.4342155580535E-06
(PID.TID 0000.0001) %MON dynstat_wvel_del2            =   7.4466622953657E-08
(PID.TID 0000.0001) %MON dynstat_theta_max            =   3.0923257908379E+01
(PID.TID 0000.0001) %MON dynstat_theta_min            =  -3.0055704424100E+00
(PID.TID 0000.0001) %MON dynstat_theta_mean           =   3.9091308453307E+00
(PID.TID 0000.0001) %MON dynstat_theta_sd             =   4.5713845190424E+00
(PID.TID 0000.0001) %MON dynstat_theta_del2           =   2.6451673931954E-03
(PID.TID 0000.0001) %MON dynstat_salt_max             =   4.1356248095398E+01
(PID.TID 0000.0001) %MON dynstat_salt_min             =   1.8518710447836E+01
(PID.TID 0000.0001) %MON dynstat_salt_mean            =   3.4772017267233E+01
(PID.TID 0000.0001) %MON dynstat_salt_sd              =   5.3152046320934E-01
(PID.TID 0000.0001) %MON dynstat_salt_del2            =   9.4796617012657E-04
(PID.TID 0000.0001) %MON dynstat_sst_max              =   3.0923257908379E+01
(PID.TID 0000.0001) %MON dynstat_sst_min              =  -1.8982207878792E+00
(PID.TID 0000.0001) %MON dynstat_sst_mean             =   1.8108601889769E+01
(PID.TID 0000.0001) %MON dynstat_sst_sd               =   9.8094068972208E+00
(PID.TID 0000.0001) %MON dynstat_sst_del2             =   1.5094064926736E-02
(PID.TID 0000.0001) %MON dynstat_sss_max              =   4.1356248095398E+01
(PID.TID 0000.0001) %MON dynstat_sss_min              =   1.8751406893493E+01
(PID.TID 0000.0001) %MON dynstat_sss_mean             =   3.4628994400659E+01
(PID.TID 0000.0001) %MON dynstat_sss_sd               =   1.4715599107066E+00
(PID.TID 0000.0001) %MON dynstat_sss_del2             =   1.0212532062747E-02
(PID.TID 0000.0001) %MON forcing_qnet_max             =   2.6878603963507E+03
(PID.TID 0000.0001) %MON forcing_qnet_min             =  -1.7629287109375E+03
(PID.TID 0000.0001) %MON forcing_qnet_mean            =   6.2101553068529E+00
(PID.TID 0000.0001) %MON forcing_qnet_sd              =   2.3332730308071E+02
(PID.TID 0000.0001) %MON forcing_qnet_del2            =   5.4694927532374E+00
(PID.TID 0000.0001) %MON forcing_qsw_max              =   0.0000000000000E+00
(PID.TID 0000.0001) %MON forcing_qsw_min              =  -9.8002475079118E+01
(PID.TID 0000.0001) %MON forcing_qsw_mean             =  -1.4967208163548E+01
(PID.TID 0000.0001) %MON forcing_qsw_sd               =   2.4510964509064E+01
(PID.TID 0000.0001) %MON forcing_qsw_del2             =   2.2854546677704E-01
(PID.TID 0000.0001) %MON forcing_empmr_max            =   7.8814504668117E-03
(PID.TID 0000.0001) %MON forcing_empmr_min            =  -1.1328842490911E-01
(PID.TID 0000.0001) %MON forcing_empmr_mean           =  -3.5662767189064E-04
(PID.TID 0000.0001) %MON forcing_empmr_sd             =   5.2114463912692E-03
(PID.TID 0000.0001) %MON forcing_empmr_del2           =   2.0548505665069E-04
(PID.TID 0000.0001) %MON forcing_fu_max               =   4.0222696758387E-01
(PID.TID 0000.0001) %MON forcing_fu_min               =  -3.6828181313741E-01
(PID.TID 0000.0001) %MON forcing_fu_mean              =  -3.9710381339807E-03
(PID.TID 0000.0001) %MON forcing_fu_sd                =   6.5205776850376E-02
(PID.TID 0000.0001) %MON forcing_fu_del2              =   6.3439998621708E-04
(PID.TID 0000.0001) %MON forcing_fv_max               =   3.2033700505848E-01
(PID.TID 0000.0001) %MON forcing_fv_min               =  -2.8677656906134E-01
(PID.TID 0000.0001) %MON forcing_fv_mean              =  -1.2157343081363E-02
(PID.TID 0000.0001) %MON forcing_fv_sd                =   6.6092773514449E-02
(PID.TID 0000.0001) %MON forcing_fv_del2              =   5.7104710570039E-04
(PID.TID 0000.0001) %MON trAdv_CFL_u_max              =   2.8043269986095E-03
(PID.TID 0000.0001) %MON trAdv_CFL_v_max              =   5.2909015620731E-03
(PID.TID 0000.0001) %MON trAdv_CFL_w_max              =   1.8260224145385E-03
(PID.TID 0000.0001) %MON advcfl_uvel_max              =   2.7865937487086E-03
(PID.TID 0000.0001) %MON advcfl_vvel_max              =   3.8137332566764E-03
(PID.TID 0000.0001) %MON advcfl_wvel_max              =   3.9404669533605E-03
(PID.TID 0000.0001) %MON advcfl_W_hf_max              =   2.6086034493407E-03
(PID.TID 0000.0001) %MON pe_b_mean                    =   5.1168783866043E-04
(PID.TID 0000.0001) %MON ke_max                       =   5.1493373219685E-01
(PID.TID 0000.0001) %MON ke_mean                      =   1.6835931439953E-04
(PID.TID 0000.0001) %MON ke_vol                       =   1.3398104194668E+18
(PID.TID 0000.0001) %MON vort_r_min                   =  -5.4322853291473E-06
(PID.TID 0000.0001) %MON vort_r_max                   =   3.6243046925056E-06
(PID.TID 0000.0001) %MON vort_a_mean                  =  -2.0549865324846E-05
(PID.TID 0000.0001) %MON vort_a_sd                    =   7.5259502766751E-05
(PID.TID 0000.0001) %MON vort_p_mean                  =  -2.4783323213117E-05
(PID.TID 0000.0001) %MON vort_p_sd                    =   1.2811904026922E-04
(PID.TID 0000.0001) %MON surfExpan_theta_mean         =  -6.7613402444977E-06
(PID.TID 0000.0001) %MON surfExpan_salt_mean          =   1.0038483768404E-06
(PID.TID 0000.0001) // =======================================================
(PID.TID 0000.0001) // End MONITOR dynamic field statistics
(PID.TID 0000.0001) // =======================================================
 cg2d: Sum(rhs),rhsMax =  -4.24165177153905E+01  4.57106715181821E+01
(PID.TID 0000.0001)      cg2d_init_res =   3.57373216126742E-01
(PID.TID 0000.0001)      cg2d_iters(min,last) =      -1      11
(PID.TID 0000.0001)      cg2d_last_res =   3.26113605742312E-08
(PID.TID 0000.0001) // =======================================================
(PID.TID 0000.0001) // Begin MONITOR dynamic field statistics
(PID.TID 0000.0001) // =======================================================
(PID.TID 0000.0001) %MON time_tsnumber                =                 72035
(PID.TID 0000.0001) %MON time_secondsf                =   6.4831500000000E+07
(PID.TID 0000.0001) %MON dynstat_eta_max              =   2.0416794990126E+00
(PID.TID 0000.0001) %MON dynstat_eta_min              =  -1.6073182749660E+00
(PID.TID 0000.0001) %MON dynstat_eta_mean             =   2.2529615806040E-02
(PID.TID 0000.0001) %MON dynstat_eta_sd               =   6.1893409568465E-01
(PID.TID 0000.0001) %MON dynstat_eta_del2             =   2.1976911209609E-03
(PID.TID 0000.0001) %MON dynstat_uvel_max             =   3.1053560692598E-01
(PID.TID 0000.0001) %MON dynstat_uvel_min             =  -9.5540878247066E-01
(PID.TID 0000.0001) %MON dynstat_uvel_mean            =  -2.8091128160892E-04
(PID.TID 0000.0001) %MON dynstat_uvel_sd              =   1.2975186971297E-02
(PID.TID 0000.0001) %MON dynstat_uvel_del2            =   8.6129302268102E-05
(PID.TID 0000.0001) %MON dynstat_vvel_max             =   1.1227967801635E+00
(PID.TID 0000.0001) %MON dynstat_vvel_min             =  -1.1543271447056E+00
(PID.TID 0000.0001) %MON dynstat_vvel_mean            =  -3.8835849872786E-04
(PID.TID 0000.0001) %MON dynstat_vvel_sd              =   1.3990554518278E-02
(PID.TID 0000.0001) %MON dynstat_vvel_del2            =   1.2784486969866E-04
(PID.TID 0000.0001) %MON dynstat_wvel_max             =   2.0907179616368E-04
(PID.TID 0000.0001) %MON dynstat_wvel_min             =  -2.3006369690120E-04
(PID.TID 0000.0001) %MON dynstat_wvel_mean            =  -3.2834569288752E-08
(PID.TID 0000.0001) %MON dynstat_wvel_sd              =   8.3935765294841E-06
(PID.TID 0000.0001) %MON dynstat_wvel_del2            =   7.4421617425745E-08
(PID.TID 0000.0001) %MON dynstat_theta_max            =   3.0923416932990E+01
(PID.TID 0000.0001) %MON dynstat_theta_min            =  -3.0054538803427E+00
(PID.TID 0000.0001) %MON dynstat_theta_mean           =   3.9091322246822E+00
(PID.TID 0000.0001) %MON dynstat_theta_sd             =   4.5713907043482E+00
(PID.TID 0000.0001) %MON dynstat_theta_del2           =   2.6450396602554E-03
(PID.TID 0000.0001) %MON dynstat_salt_max             =   4.1355937206962E+01
(PID.TID 0000.0001) %MON dynstat_salt_min             =   1.8518720859821E+01
(PID.TID 0000.0001) %MON dynstat_salt_mean            =   3.4772013673530E+01
(PID.TID 0000.0001) %MON dynstat_salt_sd              =   5.3153971537612E-01
(PID.TID 0000.0001) %MON dynstat_salt_del2            =   9.5323511196731E-04
(PID.TID 0000.0001) %MON dynstat_sst_max              =   3.0923416932990E+01
(PID.TID 0000.0001) %MON dynstat_sst_min              =  -1.8980992392091E+00
(PID.TID 0000.0001) %MON dynstat_sst_mean             =   1.8108597619704E+01
(PID.TID 0000.0001) %MON dynstat_sst_sd               =   9.8095334209460E+00
(PID.TID 0000.0001) %MON dynstat_sst_del2             =   1.5091583508048E-02
(PID.TID 0000.0001) %MON dynstat_sss_max              =   4.1355937206962E+01
(PID.TID 0000.0001) %MON dynstat_sss_min              =   1.8751411782743E+01
(PID.TID 0000.0001) %MON dynstat_sss_mean             =   3.4628737942758E+01
(PID.TID 0000.0001) %MON dynstat_sss_sd               =   1.4720447450621E+00
(PID.TID 0000.0001) %MON dynstat_sss_del2             =   1.0289688491011E-02
(PID.TID 0000.0001) %MON forcing_qnet_max             =   2.6507647371631E+03
(PID.TID 0000.0001) %MON forcing_qnet_min             =  -1.7972946777344E+03
(PID.TID 0000.0001) %MON forcing_qnet_mean            =   8.5525559802508E+00
(PID.TID 0000.0001) %MON forcing_qnet_sd              =   2.3199781834432E+02
(PID.TID 0000.0001) %MON forcing_qnet_del2            =   5.3282117409086E+00
(PID.TID 0000.0001) %MON forcing_qsw_max              =   0.0000000000000E+00
(PID.TID 0000.0001) %MON forcing_qsw_min              =  -9.9519041377395E+01
(PID.TID 0000.0001) %MON forcing_qsw_mean             =  -1.4755398821667E+01
(PID.TID 0000.0001) %MON forcing_qsw_sd               =   2.4580891733211E+01
(PID.TID 0000.0001) %MON forcing_qsw_del2             =   2.2453809673453E-01
(PID.TID 0000.0001) %MON forcing_empmr_max            =   7.8002670779824E-03
(PID.TID 0000.0001) %MON forcing_empmr_min            =  -1.1212125420570E-01
(PID.TID 0000.0001) %MON forcing_empmr_mean           =  -3.5167802709318E-04
(PID.TID 0000.0001) %MON forcing_empmr_sd             =   5.1292895889146E-03
(PID.TID 0000.0001) %MON forcing_empmr_del2           =   2.0228446445165E-04
(PID.TID 0000.0001) %MON forcing_fu_max               =   3.9698915141951E-01
(PID.TID 0000.0001) %MON forcing_fu_min               =  -3.6791854814441E-01
(PID.TID 0000.0001) %MON forcing_fu_mean              =  -3.9457625379876E-03
(PID.TID 0000.0001) %MON forcing_fu_sd                =   6.4727724304694E-02
(PID.TID 0000.0001) %MON forcing_fu_del2              =   6.3040374098005E-04
(PID.TID 0000.0001) %MON forcing_fv_max               =   3.1878611109411E-01
(PID.TID 0000.0001) %MON forcing_fv_min               =  -2.8237756675432E-01
(PID.TID 0000.0001) %MON forcing_fv_mean              =  -1.2356007574337E-02
(PID.TID 0000.0001) %MON forcing_fv_sd                =   6.5807567735961E-02
(PID.TID 0000.0001) %MON forcing_fv_del2              =   5.6721317180172E-04
(PID.TID 0000.0001) %MON trAdv_CFL_u_max              =   2.9836797274846E-03
(PID.TID 0000.0001) %MON trAdv_CFL_v_max              =   5.1900083629361E-03
(PID.TID 0000.0001) %MON trAdv_CFL_w_max              =   1.8724687860876E-03
(PID.TID 0000.0001) %MON advcfl_uvel_max              =   2.9703003774911E-03
(PID.TID 0000.0001) %MON advcfl_vvel_max              =   3.7669905373694E-03
(PID.TID 0000.0001) %MON advcfl_wvel_max              =   3.8998697115027E-03
(PID.TID 0000.0001) %MON advcfl_W_hf_max              =   2.6749554086965E-03
(PID.TID 0000.0001) %MON pe_b_mean                    =   5.1100568283957E-04
(PID.TID 0000.0001) %MON ke_max                       =   5.2901416408961E-01
(PID.TID 0000.0001) %MON ke_mean                      =   1.6825974741671E-04
(PID.TID 0000.0001) %MON ke_vol                       =   1.3398105323120E+18
(PID.TID 0000.0001) %MON vort_r_min                   =  -5.2483691161065E-06
(PID.TID 0000.0001) %MON vort_r_max                   =   3.7059824029841E-06
(PID.TID 0000.0001) %MON vort_a_mean                  =  -2.0549865324846E-05
(PID.TID 0000.0001) %MON vort_a_sd                    =   7.5259506455024E-05
(PID.TID 0000.0001) %MON vort_p_mean                  =  -2.4783321365254E-05
(PID.TID 0000.0001) %MON vort_p_sd                    =   1.2811905551370E-04
(PID.TID 0000.0001) %MON surfExpan_theta_mean         =  -6.6981730228330E-06
(PID.TID 0000.0001) %MON surfExpan_salt_mean          =   9.7699238865017E-07
(PID.TID 0000.0001) // =======================================================
(PID.TID 0000.0001) // End MONITOR dynamic field statistics
(PID.TID 0000.0001) // =======================================================
 Computing Diagnostic #     81  oceTAUX      Counter:       1   Parms: UU      U1      
           Vector  Mate for  oceTAUX      Diagnostic #     82  oceTAUY  exists 
 Computing Diagnostic #     82  oceTAUY      Counter:       1   Parms: VV      U1      
           Vector  Mate for  oceTAUY      Diagnostic #     81  oceTAUX  exists 
 Computing Diagnostic #     85  oceFWflx     Counter:       1   Parms: SM      U1      
 Computing Diagnostic #     86  oceSflux     Counter:       1   Parms: SM      U1      
 Computing Diagnostic #     87  oceQnet      Counter:       1   Parms: SM      U1      
 Computing Diagnostic #     88  oceQsw       Counter:       1   Parms: SM      U1      
 Computing Diagnostic #     27  SALT         Counter:       1   Parms: SMR     MR      
 Computing Diagnostic #     26  THETA        Counter:       1   Parms: SMR     MR      
 Computing Diagnostic #     45  UVELMASS     Counter:       1   Parms: UUr     MR      
           Vector  Mate for  UVELMASS     Diagnostic #     46  VVELMASS exists 
 Computing Diagnostic #     46  VVELMASS     Counter:       1   Parms: VVr     MR      
           Vector  Mate for  VVELMASS     Diagnostic #     45  UVELMASS exists 
 cg2d: Sum(rhs),rhsMax =  -4.03155829768961E+01  4.87356317452321E+01
(PID.TID 0000.0001)      cg2d_init_res =   3.30558171937516E-01
(PID.TID 0000.0001)      cg2d_iters(min,last) =      -1      11
(PID.TID 0000.0001)      cg2d_last_res =   2.90423344114528E-08
(PID.TID 0000.0001) // =======================================================
(PID.TID 0000.0001) // Begin MONITOR dynamic field statistics
(PID.TID 0000.0001) // =======================================================
(PID.TID 0000.0001) %MON time_tsnumber                =                 72036
(PID.TID 0000.0001) %MON time_secondsf                =   6.4832400000000E+07
(PID.TID 0000.0001) %MON dynstat_eta_max              =   2.1758705692615E+00
(PID.TID 0000.0001) %MON dynstat_eta_min              =  -1.6075027734529E+00
(PID.TID 0000.0001) %MON dynstat_eta_mean             =   2.2830778336980E-02
(PID.TID 0000.0001) %MON dynstat_eta_sd               =   6.1856307490775E-01
(PID.TID 0000.0001) %MON dynstat_eta_del2             =   2.1073151482431E-03
(PID.TID 0000.0001) %MON dynstat_uvel_max             =   3.2247496844456E-01
(PID.TID 0000.0001) %MON dynstat_uvel_min             =  -9.5667564771603E-01
(PID.TID 0000.0001) %MON dynstat_uvel_mean            =  -3.1649982323401E-04
(PID.TID 0000.0001) %MON dynstat_uvel_sd              =   1.3000798343616E-02
(PID.TID 0000.0001) %MON dynstat_uvel_del2            =   8.6410535619851E-05
(PID.TID 0000.0001) %MON dynstat_vvel_max             =   1.1318809199241E+00
(PID.TID 0000.0001) %MON dynstat_vvel_min             =  -1.1226595356700E+00
(PID.TID 0000.0001) %MON dynstat_vvel_mean            =  -3.6364533265942E-04
(PID.TID 0000.0001) %MON dynstat_vvel_sd              =   1.3947409646938E-02
(PID.TID 0000.0001) %MON dynstat_vvel_del2            =   1.2683658543482E-04
(PID.TID 0000.0001) %MON dynstat_wvel_max             =   2.1146404830917E-04
(PID.TID 0000.0001) %MON dynstat_wvel_min             =  -2.1599327723410E-04
(PID.TID 0000.0001) %MON dynstat_wvel_mean            =  -2.1523423766743E-08
(PID.TID 0000.0001) %MON dynstat_wvel_sd              =   8.3445936537516E-06
(PID.TID 0000.0001) %MON dynstat_wvel_del2            =   7.4395220408108E-08
(PID.TID 0000.0001) %MON dynstat_theta_max            =   3.0923580440376E+01
(PID.TID 0000.0001) %MON dynstat_theta_min            =  -3.0053237819016E+00
(PID.TID 0000.0001) %MON dynstat_theta_mean           =   3.9091334533940E+00
(PID.TID 0000.0001) %MON dynstat_theta_sd             =   4.5713962682177E+00
(PID.TID 0000.0001) %MON dynstat_theta_del2           =   2.6449090175924E-03
(PID.TID 0000.0001) %MON dynstat_salt_max             =   4.1355625471654E+01
(PID.TID 0000.0001) %MON dynstat_salt_min             =   1.8518731308675E+01
(PID.TID 0000.0001) %MON dynstat_salt_mean            =   3.4772010151105E+01
(PID.TID 0000.0001) %MON dynstat_salt_sd              =   5.3155881055805E-01
(PID.TID 0000.0001) %MON dynstat_salt_del2            =   9.5845184353124E-04
(PID.TID 0000.0001) %MON dynstat_sst_max              =   3.0923580440376E+01
(PID.TID 0000.0001) %MON dynstat_sst_min              =  -1.8979755900023E+00
(PID.TID 0000.0001) %MON dynstat_sst_mean             =   1.8108586734594E+01
(PID.TID 0000.0001) %MON dynstat_sst_sd               =   9.8096540503413E+00
(PID.TID 0000.0001) %MON dynstat_sst_del2             =   1.5089003934150E-02
(PID.TID 0000.0001) %MON dynstat_sss_max              =   4.1355625471654E+01
(PID.TID 0000.0001) %MON dynstat_sss_min              =   1.8751417617184E+01
(PID.TID 0000.0001) %MON dynstat_sss_mean             =   3.4628487780189E+01
(PID.TID 0000.0001) %MON dynstat_sss_sd               =   1.4725261732308E+00
(PID.TID 0000.0001) %MON dynstat_sss_del2             =   1.0365913856284E-02
(PID.TID 0000.0001) %MON forcing_qnet_max             =   2.6167963336868E+03
(PID.TID 0000.0001) %MON forcing_qnet_min             =  -1.6467219783608E+03
(PID.TID 0000.0001) %MON forcing_qnet_mean            =   1.0695901333939E+01
(PID.TID 0000.0001) %MON forcing_qnet_sd              =   2.3008984596517E+02
(PID.TID 0000.0001) %MON forcing_qnet_del2            =   5.2165765452039E+00
(PID.TID 0000.0001) %MON forcing_qsw_max              =   0.0000000000000E+00
(PID.TID 0000.0001) %MON forcing_qsw_min              =  -1.0061468733426E+02
(PID.TID 0000.0001) %MON forcing_qsw_mean             =  -1.4511569425770E+01
(PID.TID 0000.0001) %MON forcing_qsw_sd               =   2.4617913994639E+01
(PID.TID 0000.0001) %MON forcing_qsw_del2             =   2.2018491933873E-01
(PID.TID 0000.0001) %MON forcing_empmr_max            =   7.7197728678584E-03
(PID.TID 0000.0001) %MON forcing_empmr_min            =  -1.1096583306789E-01
(PID.TID 0000.0001) %MON forcing_empmr_mean           =  -3.4633691058058E-04
(PID.TID 0000.0001) %MON forcing_empmr_sd             =   5.0404870875398E-03
(PID.TID 0000.0001) %MON forcing_empmr_del2           =   1.9883252492884E-04
(PID.TID 0000.0001) %MON forcing_fu_max               =   3.9458883379577E-01
(PID.TID 0000.0001) %MON forcing_fu_min               =  -3.6697882402950E-01
(PID.TID 0000.0001) %MON forcing_fu_mean              =  -3.8914561292846E-03
(PID.TID 0000.0001) %MON forcing_fu_sd                =   6.4354742303917E-02
(PID.TID 0000.0001) %MON forcing_fu_del2              =   6.2767083175342E-04
(PID.TID 0000.0001) %MON forcing_fv_max               =   3.1834054579908E-01
(PID.TID 0000.0001) %MON forcing_fv_min               =  -2.8096620944835E-01
(PID.TID 0000.0001) %MON forcing_fv_mean              =  -1.2558555391565E-02
(PID.TID 0000.0001) %MON forcing_fv_sd                =   6.5602333390106E-02
(PID.TID 0000.0001) %MON forcing_fv_del2              =   5.6404737736043E-04
(PID.TID 0000.0001) %MON trAdv_CFL_u_max              =   3.1295479069558E-03
(PID.TID 0000.0001) %MON trAdv_CFL_v_max              =   5.0271420336153E-03
(PID.TID 0000.0001) %MON trAdv_CFL_w_max              =   1.9033541587426E-03
(PID.TID 0000.0001) %MON advcfl_uvel_max              =   3.1046376263742E-03
(PID.TID 0000.0001) %MON advcfl_vvel_max              =   3.6636475776847E-03
(PID.TID 0000.0001) %MON advcfl_wvel_max              =   3.8596811501876E-03
(PID.TID 0000.0001) %MON advcfl_W_hf_max              =   2.7190773696322E-03
(PID.TID 0000.0001) %MON pe_b_mean                    =   5.1041218726097E-04
(PID.TID 0000.0001) %MON ke_max                       =   5.2584584701743E-01
(PID.TID 0000.0001) %MON ke_mean                      =   1.6800724237059E-04
(PID.TID 0000.0001) %MON ke_vol                       =   1.3398106435912E+18
(PID.TID 0000.0001) %MON vort_r_min                   =  -5.0228963372085E-06
(PID.TID 0000.0001) %MON vort_r_max                   =   3.7359661566731E-06
(PID.TID 0000.0001) %MON vort_a_mean                  =  -2.0549865324846E-05
(PID.TID 0000.0001) %MON vort_a_sd                    =   7.5259511367585E-05
(PID.TID 0000.0001) %MON vort_p_mean                  =  -2.4783319558823E-05
(PID.TID 0000.0001) %MON vort_p_sd                    =   1.2811907181741E-04
(PID.TID 0000.0001) %MON surfExpan_theta_mean         =  -6.6287900302620E-06
(PID.TID 0000.0001) %MON surfExpan_salt_mean          =   9.5432214373919E-07
(PID.TID 0000.0001) // =======================================================
(PID.TID 0000.0001) // End MONITOR dynamic field statistics
(PID.TID 0000.0001) // =======================================================
 cg2d: Sum(rhs),rhsMax =  -3.85214999350149E+01  5.16642407489292E+01
(PID.TID 0000.0001)      cg2d_init_res =   3.06212344828228E-01
(PID.TID 0000.0001)      cg2d_iters(min,last) =      -1      11
(PID.TID 0000.0001)      cg2d_last_res =   2.53745616976751E-08
(PID.TID 0000.0001) // =======================================================
(PID.TID 0000.0001) // Begin MONITOR dynamic field statistics
(PID.TID 0000.0001) // =======================================================
(PID.TID 0000.0001) %MON time_tsnumber                =                 72037
(PID.TID 0000.0001) %MON time_secondsf                =   6.4833300000000E+07
(PID.TID 0000.0001) %MON dynstat_eta_max              =   2.3057577964067E+00
(PID.TID 0000.0001) %MON dynstat_eta_min              =  -1.6077577173550E+00
(PID.TID 0000.0001) %MON dynstat_eta_mean             =   2.3125674782054E-02
(PID.TID 0000.0001) %MON dynstat_eta_sd               =   6.1825225645235E-01
(PID.TID 0000.0001) %MON dynstat_eta_del2             =   2.0488323138843E-03
(PID.TID 0000.0001) %MON dynstat_uvel_max             =   3.3313541976374E-01
(PID.TID 0000.0001) %MON dynstat_uvel_min             =  -9.5167700200071E-01
(PID.TID 0000.0001) %MON dynstat_uvel_mean            =  -3.5034340257288E-04
(PID.TID 0000.0001) %MON dynstat_uvel_sd              =   1.3018773481029E-02
(PID.TID 0000.0001) %MON dynstat_uvel_del2            =   8.6598152276736E-05
(PID.TID 0000.0001) %MON dynstat_vvel_max             =   1.1260516809827E+00
(PID.TID 0000.0001) %MON dynstat_vvel_min             =  -1.0747259896335E+00
(PID.TID 0000.0001) %MON dynstat_vvel_mean            =  -3.3446426307977E-04
(PID.TID 0000.0001) %MON dynstat_vvel_sd              =   1.3900207746789E-02
(PID.TID 0000.0001) %MON dynstat_vvel_del2            =   1.2523720345764E-04
(PID.TID 0000.0001) %MON dynstat_wvel_max             =   2.1315259264140E-04
(PID.TID 0000.0001) %MON dynstat_wvel_min             =  -2.0447131945174E-04
(PID.TID 0000.0001) %MON dynstat_wvel_mean            =  -1.4103129029783E-08
(PID.TID 0000.0001) %MON dynstat_wvel_sd              =   8.2893275309332E-06
(PID.TID 0000.0001) %MON dynstat_wvel_del2            =   7.4376624147915E-08
(PID.TID 0000.0001) %MON dynstat_theta_max            =   3.0923734753596E+01
(PID.TID 0000.0001) %MON dynstat_theta_min            =  -3.0051834777364E+00
(PID.TID 0000.0001) %MON dynstat_theta_mean           =   3.9091344863976E+00
(PID.TID 0000.0001) %MON dynstat_theta_sd             =   4.5714010325750E+00
(PID.TID 0000.0001) %MON dynstat_theta_del2           =   2.6447738024483E-03
(PID.TID 0000.0001) %MON dynstat_salt_max             =   4.1355310886046E+01
(PID.TID 0000.0001) %MON dynstat_salt_min             =   1.8518741786703E+01
(PID.TID 0000.0001) %MON dynstat_salt_mean            =   3.4772006712216E+01
(PID.TID 0000.0001) %MON dynstat_salt_sd              =   5.3157780191784E-01
(PID.TID 0000.0001) %MON dynstat_salt_del2            =   9.6361295098954E-04
(PID.TID 0000.0001) %MON dynstat_sst_max              =   3.0923734753596E+01
(PID.TID 0000.0001) %MON dynstat_sst_min              =  -1.8978513924389E+00
(PID.TID 0000.0001) %MON dynstat_sst_mean             =   1.8108564676920E+01
(PID.TID 0000.0001) %MON dynstat_sst_sd               =   9.8097669012652E+00
(PID.TID 0000.0001) %MON dynstat_sst_del2             =   1.5086332805677E-02
(PID.TID 0000.0001) %MON dynstat_sss_max              =   4.1355310886046E+01
(PID.TID 0000.0001) %MON dynstat_sss_min              =   1.8751424421086E+01
(PID.TID 0000.0001) %MON dynstat_sss_mean             =   3.4628244356223E+01
(PID.TID 0000.0001) %MON dynstat_sss_sd               =   1.4730051519955E+00
(PID.TID 0000.0001) %MON dynstat_sss_del2             =   1.0441186215288E-02
(PID.TID 0000.0001) %MON forcing_qnet_max             =   2.5823492226574E+03
(PID.TID 0000.0001) %MON forcing_qnet_min             =  -1.6233816914855E+03
(PID.TID 0000.0001) %MON forcing_qnet_mean            =   1.3550178340850E+01
(PID.TID 0000.0001) %MON forcing_qnet_sd              =   2.2643929291089E+02
(PID.TID 0000.0001) %MON forcing_qnet_del2            =   5.1147640564911E+00
(PID.TID 0000.0001) %MON forcing_qsw_max              =   0.0000000000000E+00
(PID.TID 0000.0001) %MON forcing_qsw_min              =  -1.0195201204603E+02
(PID.TID 0000.0001) %MON forcing_qsw_mean             =  -1.4039688355683E+01
(PID.TID 0000.0001) %MON forcing_qsw_sd               =   2.4792482167098E+01
(PID.TID 0000.0001) %MON forcing_qsw_del2             =   2.1239239864601E-01
(PID.TID 0000.0001) %MON forcing_empmr_max            =   7.6402621343732E-03
(PID.TID 0000.0001) %MON forcing_empmr_min            =  -1.0982298851013E-01
(PID.TID 0000.0001) %MON forcing_empmr_mean           =  -3.3913091183450E-04
(PID.TID 0000.0001) %MON forcing_empmr_sd             =   4.9347326786973E-03
(PID.TID 0000.0001) %MON forcing_empmr_del2           =   1.9473995475350E-04
(PID.TID 0000.0001) %MON forcing_fu_max               =   3.9298589765511E-01
(PID.TID 0000.0001) %MON forcing_fu_min               =  -3.6627667078004E-01
(PID.TID 0000.0001) %MON forcing_fu_mean              =  -3.8252688477782E-03
(PID.TID 0000.0001) %MON forcing_fu_sd                =   6.4057633509930E-02
(PID.TID 0000.0001) %MON forcing_fu_del2              =   6.2580820058907E-04
(PID.TID 0000.0001) %MON forcing_fv_max               =   3.1854672242259E-01
(PID.TID 0000.0001) %MON forcing_fv_min               =  -2.8342864874985E-01
(PID.TID 0000.0001) %MON forcing_fv_mean              =  -1.2712492120484E-02
(PID.TID 0000.0001) %MON forcing_fv_sd                =   6.5505559837524E-02
(PID.TID 0000.0001) %MON forcing_fv_del2              =   5.6178953639446E-04
(PID.TID 0000.0001) %MON trAdv_CFL_u_max              =   3.2103866959347E-03
(PID.TID 0000.0001) %MON trAdv_CFL_v_max              =   4.8062644223144E-03
(PID.TID 0000.0001) %MON trAdv_CFL_w_max              =   1.9185319081537E-03
(PID.TID 0000.0001) %MON advcfl_uvel_max              =   3.1736207116380E-03
(PID.TID 0000.0001) %MON advcfl_vvel_max              =   3.5072229322362E-03
(PID.TID 0000.0001) %MON advcfl_wvel_max              =   3.8199300351350E-03
(PID.TID 0000.0001) %MON advcfl_W_hf_max              =   2.7407598687910E-03
(PID.TID 0000.0001) %MON pe_b_mean                    =   5.0991807768840E-04
(PID.TID 0000.0001) %MON ke_max                       =   5.0604197672539E-01
(PID.TID 0000.0001) %MON ke_mean                      =   1.6761312350599E-04
(PID.TID 0000.0001) %MON ke_vol                       =   1.3398107531802E+18
(PID.TID 0000.0001) %MON vort_r_min                   =  -4.7581057197048E-06
(PID.TID 0000.0001) %MON vort_r_max                   =   3.7167257586584E-06
(PID.TID 0000.0001) %MON vort_a_mean                  =  -2.0549865324846E-05
(PID.TID 0000.0001) %MON vort_a_sd                    =   7.5259517500933E-05
(PID.TID 0000.0001) %MON vort_p_mean                  =  -2.4783317792183E-05
(PID.TID 0000.0001) %MON vort_p_sd                    =   1.2811908780195E-04
(PID.TID 0000.0001) %MON surfExpan_theta_mean         =  -6.5454669704463E-06
(PID.TID 0000.0001) %MON surfExpan_salt_mean          =   9.3585453368573E-07
(PID.TID 0000.0001) // =======================================================
(PID.TID 0000.0001) // End MONITOR dynamic field statistics
(PID.TID 0000.0001) // =======================================================
 cg2d: Sum(rhs),rhsMax =  -3.69941987372221E+01  5.44619344147091E+01
(PID.TID 0000.0001)      cg2d_init_res =   2.84354012081635E-01
(PID.TID 0000.0001)      cg2d_iters(min,last) =      -1      10
(PID.TID 0000.0001)      cg2d_last_res =   9.80743595093947E-08
(PID.TID 0000.0001) // =======================================================
(PID.TID 0000.0001) // Begin MONITOR dynamic field statistics
(PID.TID 0000.0001) // =======================================================
(PID.TID 0000.0001) %MON time_tsnumber                =                 72038
(PID.TID 0000.0001) %MON time_secondsf                =   6.4834200000000E+07
(PID.TID 0000.0001) %MON dynstat_eta_max              =   2.4298110097862E+00
(PID.TID 0000.0001) %MON dynstat_eta_min              =  -1.6080301800818E+00
(PID.TID 0000.0001) %MON dynstat_eta_mean             =   2.3411425666411E-02
(PID.TID 0000.0001) %MON dynstat_eta_sd               =   6.1800532416279E-01
(PID.TID 0000.0001) %MON dynstat_eta_del2             =   2.0237430486241E-03
(PID.TID 0000.0001) %MON dynstat_uvel_max             =   3.4240630752411E-01
(PID.TID 0000.0001) %MON dynstat_uvel_min             =  -9.5338375693630E-01
(PID.TID 0000.0001) %MON dynstat_uvel_mean            =  -3.8195081302860E-04
(PID.TID 0000.0001) %MON dynstat_uvel_sd              =   1.3027583942036E-02
(PID.TID 0000.0001) %MON dynstat_uvel_del2            =   8.6690655448024E-05
(PID.TID 0000.0001) %MON dynstat_vvel_max             =   1.1062423242109E+00
(PID.TID 0000.0001) %MON dynstat_vvel_min             =  -1.0118525458733E+00
(PID.TID 0000.0001) %MON dynstat_vvel_mean            =  -3.0094983588295E-04
(PID.TID 0000.0001) %MON dynstat_vvel_sd              =   1.3851612273048E-02
(PID.TID 0000.0001) %MON dynstat_vvel_del2            =   1.2306680228264E-04
(PID.TID 0000.0001) %MON dynstat_wvel_max             =   2.1314199212415E-04
(PID.TID 0000.0001) %MON dynstat_wvel_min             =  -1.9729995418273E-04
(PID.TID 0000.0001) %MON dynstat_wvel_mean            =  -1.0852232476215E-08
(PID.TID 0000.0001) %MON dynstat_wvel_sd              =   8.2301445643843E-06
(PID.TID 0000.0001) %MON dynstat_wvel_del2            =   7.4364180577189E-08
(PID.TID 0000.0001) %MON dynstat_theta_max            =   3.0923888584258E+01
(PID.TID 0000.0001) %MON dynstat_theta_min            =  -3.0050367645200E+00
(PID.TID 0000.0001) %MON dynstat_theta_mean           =   3.9091353854237E+00
(PID.TID 0000.0001) %MON dynstat_theta_sd             =   4.5714052927545E+00
(PID.TID 0000.0001) %MON dynstat_theta_del2           =   2.6446382015063E-03
(PID.TID 0000.0001) %MON dynstat_salt_max             =   4.1354991408967E+01
(PID.TID 0000.0001) %MON dynstat_salt_min             =   1.8518752285416E+01
(PID.TID 0000.0001) %MON dynstat_salt_mean            =   3.4772003351680E+01
(PID.TID 0000.0001) %MON dynstat_salt_sd              =   5.3159665836433E-01
(PID.TID 0000.0001) %MON dynstat_salt_del2            =   9.6871645585558E-04
(PID.TID 0000.0001) %MON dynstat_sst_max              =   3.0923888584258E+01
(PID.TID 0000.0001) %MON dynstat_sst_min              =  -1.8977293967907E+00
(PID.TID 0000.0001) %MON dynstat_sst_mean             =   1.8108534254281E+01
(PID.TID 0000.0001) %MON dynstat_sst_sd               =   9.8098740815214E+00
(PID.TID 0000.0001) %MON dynstat_sst_del2             =   1.5083581528316E-02
(PID.TID 0000.0001) %MON dynstat_sss_max              =   4.1354991408967E+01
(PID.TID 0000.0001) %MON dynstat_sss_min              =   1.8751432581786E+01
(PID.TID 0000.0001) %MON dynstat_sss_mean             =   3.4628006434785E+01
(PID.TID 0000.0001) %MON dynstat_sss_sd               =   1.4734797064752E+00
(PID.TID 0000.0001) %MON dynstat_sss_del2             =   1.0515471733026E-02
(PID.TID 0000.0001) %MON forcing_qnet_max             =   2.5479724183941E+03
(PID.TID 0000.0001) %MON forcing_qnet_min             =  -1.6006389843443E+03
(PID.TID 0000.0001) %MON forcing_qnet_mean            =   1.5267447583720E+01
(PID.TID 0000.0001) %MON forcing_qnet_sd              =   2.2416228704164E+02
(PID.TID 0000.0001) %MON forcing_qnet_del2            =   4.9858439861144E+00
(PID.TID 0000.0001) %MON forcing_qsw_max              =   0.0000000000000E+00
(PID.TID 0000.0001) %MON forcing_qsw_min              =  -1.0218943582638E+02
(PID.TID 0000.0001) %MON forcing_qsw_mean             =  -1.3893040093858E+01
(PID.TID 0000.0001) %MON forcing_qsw_sd               =   2.4881892573443E+01
(PID.TID 0000.0001) %MON forcing_qsw_del2             =   2.0964349750348E-01
(PID.TID 0000.0001) %MON forcing_empmr_max            =   7.5614410452545E-03
(PID.TID 0000.0001) %MON forcing_empmr_min            =  -1.0869106650352E-01
(PID.TID 0000.0001) %MON forcing_empmr_mean           =  -3.2861351701196E-04
(PID.TID 0000.0001) %MON forcing_empmr_sd             =   4.8134286887830E-03
(PID.TID 0000.0001) %MON forcing_empmr_del2           =   1.9005230503568E-04
(PID.TID 0000.0001) %MON forcing_fu_max               =   3.8879452058059E-01
(PID.TID 0000.0001) %MON forcing_fu_min               =  -3.6536784929719E-01
(PID.TID 0000.0001) %MON forcing_fu_mean              =  -3.7564937706727E-03
(PID.TID 0000.0001) %MON forcing_fu_sd                =   6.3808264011278E-02
(PID.TID 0000.0001) %MON forcing_fu_del2              =   6.2458515557487E-04
(PID.TID 0000.0001) %MON forcing_fv_max               =   3.2101983358830E-01
(PID.TID 0000.0001) %MON forcing_fv_min               =  -2.8386700480599E-01
(PID.TID 0000.0001) %MON forcing_fv_mean              =  -1.2857921432095E-02
(PID.TID 0000.0001) %MON forcing_fv_sd                =   6.5446846157729E-02
(PID.TID 0000.0001) %MON forcing_fv_del2              =   5.6017267468490E-04
(PID.TID 0000.0001) %MON trAdv_CFL_u_max              =   3.2274190087029E-03
(PID.TID 0000.0001) %MON trAdv_CFL_v_max              =   4.5321882365930E-03
(PID.TID 0000.0001) %MON trAdv_CFL_w_max              =   1.9184170654854E-03
(PID.TID 0000.0001) %MON advcfl_uvel_max              =   3.1793123410479E-03
(PID.TID 0000.0001) %MON advcfl_vvel_max              =   3.3151531570457E-03
(PID.TID 0000.0001) %MON advcfl_wvel_max              =   3.7805588349052E-03
(PID.TID 0000.0001) %MON advcfl_W_hf_max              =   2.7405958078363E-03
(PID.TID 0000.0001) %MON pe_b_mean                    =   5.0952907610397E-04
(PID.TID 0000.0001) %MON ke_max                       =   4.7138201612100E-01
(PID.TID 0000.0001) %MON ke_mean                      =   1.6709354884083E-04
(PID.TID 0000.0001) %MON ke_vol                       =   1.3398108604891E+18
(PID.TID 0000.0001) %MON vort_r_min                   =  -4.4567893184357E-06
(PID.TID 0000.0001) %MON vort_r_max                   =   3.6513415957294E-06
(PID.TID 0000.0001) %MON vort_a_mean                  =  -2.0549865324846E-05
(PID.TID 0000.0001) %MON vort_a_sd                    =   7.5259524813107E-05
(PID.TID 0000.0001) %MON vort_p_mean                  =  -2.4783316071515E-05
(PID.TID 0000.0001) %MON vort_p_sd                    =   1.2811910228400E-04
(PID.TID 0000.0001) %MON surfExpan_theta_mean         =  -6.4416424262726E-06
(PID.TID 0000.0001) %MON surfExpan_salt_mean          =   9.2002721096526E-07
(PID.TID 0000.0001) // =======================================================
(PID.TID 0000.0001) // End MONITOR dynamic field statistics
(PID.TID 0000.0001) // =======================================================
 cg2d: Sum(rhs),rhsMax =  -3.57059537710668E+01  5.70946812469003E+01
(PID.TID 0000.0001)      cg2d_init_res =   2.64013991392176E-01
(PID.TID 0000.0001)      cg2d_iters(min,last) =      -1      10
(PID.TID 0000.0001)      cg2d_last_res =   8.55692716932583E-08
(PID.TID 0000.0001) // =======================================================
(PID.TID 0000.0001) // Begin MONITOR dynamic field statistics
(PID.TID 0000.0001) // =======================================================
(PID.TID 0000.0001) %MON time_tsnumber                =                 72039
(PID.TID 0000.0001) %MON time_secondsf                =   6.4835100000000E+07
(PID.TID 0000.0001) %MON dynstat_eta_max              =   2.5465238160560E+00
(PID.TID 0000.0001) %MON dynstat_eta_min              =  -1.6082708199764E+00
(PID.TID 0000.0001) %MON dynstat_eta_mean             =   2.3688494710179E-02
(PID.TID 0000.0001) %MON dynstat_eta_sd               =   6.1782295342435E-01
(PID.TID 0000.0001) %MON dynstat_eta_del2             =   2.0309874205051E-03
(PID.TID 0000.0001) %MON dynstat_uvel_max             =   3.5018905378457E-01
(PID.TID 0000.0001) %MON dynstat_uvel_min             =  -9.3702570669552E-01
(PID.TID 0000.0001) %MON dynstat_uvel_mean            =  -4.1094023453042E-04
(PID.TID 0000.0001) %MON dynstat_uvel_sd              =   1.3026250663518E-02
(PID.TID 0000.0001) %MON dynstat_uvel_del2            =   8.6700007517439E-05
(PID.TID 0000.0001) %MON dynstat_vvel_max             =   1.0735460894486E+00
(PID.TID 0000.0001) %MON dynstat_vvel_min             =  -9.3556926086915E-01
(PID.TID 0000.0001) %MON dynstat_vvel_mean            =  -2.6336951241215E-04
(PID.TID 0000.0001) %MON dynstat_vvel_sd              =   1.3804148419421E-02
(PID.TID 0000.0001) %MON dynstat_vvel_del2            =   1.2035885132700E-04
(PID.TID 0000.0001) %MON dynstat_wvel_max             =   2.1154609264988E-04
(PID.TID 0000.0001) %MON dynstat_wvel_min             =  -1.9679567065655E-04
(PID.TID 0000.0001) %MON dynstat_wvel_mean            =  -1.2223641739552E-08
(PID.TID 0000.0001) %MON dynstat_wvel_sd              =   8.1697034440163E-06
(PID.TID 0000.0001) %MON dynstat_wvel_del2            =   7.4390453318698E-08
(PID.TID 0000.0001) %MON dynstat_theta_max            =   3.0924042218884E+01
(PID.TID 0000.0001) %MON dynstat_theta_min            =  -3.0048878397708E+00
(PID.TID 0000.0001) %MON dynstat_theta_mean           =   3.9091361349783E+00
(PID.TID 0000.0001) %MON dynstat_theta_sd             =   4.5714089835675E+00
(PID.TID 0000.0001) %MON dynstat_theta_del2           =   2.6443822403416E-03
(PID.TID 0000.0001) %MON dynstat_salt_max             =   4.1354666181232E+01
(PID.TID 0000.0001) %MON dynstat_salt_min             =   1.8518762799280E+01
(PID.TID 0000.0001) %MON dynstat_salt_mean            =   3.4772000053522E+01
(PID.TID 0000.0001) %MON dynstat_salt_sd              =   5.3161534925863E-01
(PID.TID 0000.0001) %MON dynstat_salt_del2            =   9.7376049879511E-04
(PID.TID 0000.0001) %MON dynstat_sst_max              =   3.0924042218884E+01
(PID.TID 0000.0001) %MON dynstat_sst_min              =  -1.8976101927833E+00
(PID.TID 0000.0001) %MON dynstat_sst_mean             =   1.8108519296776E+01
(PID.TID 0000.0001) %MON dynstat_sst_sd               =   9.8099310646723E+00
(PID.TID 0000.0001) %MON dynstat_sst_del2             =   1.5077007837662E-02
(PID.TID 0000.0001) %MON dynstat_sss_max              =   4.1354666181232E+01
(PID.TID 0000.0001) %MON dynstat_sss_min              =   1.8751442279697E+01
(PID.TID 0000.0001) %MON dynstat_sss_mean             =   3.4627774661421E+01
(PID.TID 0000.0001) %MON dynstat_sss_sd               =   1.4739494162806E+00
(PID.TID 0000.0001) %MON dynstat_sss_del2             =   1.0588736400764E-02
(PID.TID 0000.0001) %MON forcing_qnet_max             =   2.5140526844116E+03
(PID.TID 0000.0001) %MON forcing_qnet_min             =  -1.5795512752638E+03
(PID.TID 0000.0001) %MON forcing_qnet_mean            =   1.7334893634646E+01
(PID.TID 0000.0001) %MON forcing_qnet_sd              =   2.2312501836958E+02
(PID.TID 0000.0001) %MON forcing_qnet_del2            =   5.0081655746300E+00
(PID.TID 0000.0001) %MON forcing_qsw_max              =   0.0000000000000E+00
(PID.TID 0000.0001) %MON forcing_qsw_min              =  -1.0270904525686E+02
(PID.TID 0000.0001) %MON forcing_qsw_mean             =  -1.3722664493144E+01
(PID.TID 0000.0001) %MON forcing_qsw_sd               =   2.4917613797471E+01
(PID.TID 0000.0001) %MON forcing_qsw_del2             =   2.0670415513860E-01
(PID.TID 0000.0001) %MON forcing_empmr_max            =   7.4835051782429E-03
(PID.TID 0000.0001) %MON forcing_empmr_min            =  -1.0757172852755E-01
(PID.TID 0000.0001) %MON forcing_empmr_mean           =  -3.1862940033210E-04
(PID.TID 0000.0001) %MON forcing_empmr_sd             =   4.7377249924408E-03
(PID.TID 0000.0001) %MON forcing_empmr_del2           =   1.8708570705032E-04
(PID.TID 0000.0001) %MON forcing_fu_max               =   3.8472800816094E-01
(PID.TID 0000.0001) %MON forcing_fu_min               =  -3.6467908182908E-01
(PID.TID 0000.0001) %MON forcing_fu_mean              =  -3.6901921607896E-03
(PID.TID 0000.0001) %MON forcing_fu_sd                =   6.3557606083225E-02
(PID.TID 0000.0001) %MON forcing_fu_del2              =   6.2222132049000E-04
(PID.TID 0000.0001) %MON forcing_fv_max               =   3.2033204611572E-01
(PID.TID 0000.0001) %MON forcing_fv_min               =  -2.8287268510563E-01
(PID.TID 0000.0001) %MON forcing_fv_mean              =  -1.3057567351219E-02
(PID.TID 0000.0001) %MON forcing_fv_sd                =   6.5282199491593E-02
(PID.TID 0000.0001) %MON forcing_fv_del2              =   5.5743398228134E-04
(PID.TID 0000.0001) %MON trAdv_CFL_u_max              =   3.1828922259136E-03
(PID.TID 0000.0001) %MON trAdv_CFL_v_max              =   4.2104671628699E-03
(PID.TID 0000.0001) %MON trAdv_CFL_w_max              =   1.9323263624881E-03
(PID.TID 0000.0001) %MON advcfl_uvel_max              =   3.1247620609245E-03
(PID.TID 0000.0001) %MON advcfl_vvel_max              =   3.2171700808934E-03
(PID.TID 0000.0001) %MON advcfl_wvel_max              =   3.7416253400886E-03
(PID.TID 0000.0001) %MON advcfl_W_hf_max              =   2.7200499193703E-03
(PID.TID 0000.0001) %MON pe_b_mean                    =   5.0924617691217E-04
(PID.TID 0000.0001) %MON ke_max                       =   4.2457474261823E-01
(PID.TID 0000.0001) %MON ke_mean                      =   1.6646924368726E-04
(PID.TID 0000.0001) %MON ke_vol                       =   1.3398109644701E+18
(PID.TID 0000.0001) %MON vort_r_min                   =  -4.1222235922126E-06
(PID.TID 0000.0001) %MON vort_r_max                   =   3.8732705683909E-06
(PID.TID 0000.0001) %MON vort_a_mean                  =  -2.0549865324846E-05
(PID.TID 0000.0001) %MON vort_a_sd                    =   7.5259533225663E-05
(PID.TID 0000.0001) %MON vort_p_mean                  =  -2.4783314408616E-05
(PID.TID 0000.0001) %MON vort_p_sd                    =   1.2811911452352E-04
(PID.TID 0000.0001) %MON surfExpan_theta_mean         =  -6.3475380585584E-06
(PID.TID 0000.0001) %MON surfExpan_salt_mean          =   9.1021001961278E-07
(PID.TID 0000.0001) // =======================================================
(PID.TID 0000.0001) // End MONITOR dynamic field statistics
(PID.TID 0000.0001) // =======================================================
 Computing Diagnostic #     81  oceTAUX      Counter:       1   Parms: UU      U1      
           Vector  Mate for  oceTAUX      Diagnostic #     82  oceTAUY  exists 
 Computing Diagnostic #     82  oceTAUY      Counter:       1   Parms: VV      U1      
           Vector  Mate for  oceTAUY      Diagnostic #     81  oceTAUX  exists 
 Computing Diagnostic #     85  oceFWflx     Counter:       1   Parms: SM      U1      
 Computing Diagnostic #     86  oceSflux     Counter:       1   Parms: SM      U1      
 Computing Diagnostic #     87  oceQnet      Counter:       1   Parms: SM      U1      
 Computing Diagnostic #     88  oceQsw       Counter:       1   Parms: SM      U1      
 Computing Diagnostic #     27  SALT         Counter:       1   Parms: SMR     MR      
 Computing Diagnostic #     26  THETA        Counter:       1   Parms: SMR     MR      
 Computing Diagnostic #     45  UVELMASS     Counter:       1   Parms: UUr     MR      
           Vector  Mate for  UVELMASS     Diagnostic #     46  VVELMASS exists 
 Computing Diagnostic #     46  VVELMASS     Counter:       1   Parms: VVr     MR      
           Vector  Mate for  VVELMASS     Diagnostic #     45  UVELMASS exists 
 cg2d: Sum(rhs),rhsMax =  -3.46413785072335E+01  5.95295516100398E+01
(PID.TID 0000.0001)      cg2d_init_res =   2.44074532732724E-01
(PID.TID 0000.0001)      cg2d_iters(min,last) =      -1      10
(PID.TID 0000.0001)      cg2d_last_res =   6.78340648062164E-08
(PID.TID 0000.0001) // =======================================================
(PID.TID 0000.0001) // Begin MONITOR dynamic field statistics
(PID.TID 0000.0001) // =======================================================
(PID.TID 0000.0001) %MON time_tsnumber                =                 72040
(PID.TID 0000.0001) %MON time_secondsf                =   6.4836000000000E+07
(PID.TID 0000.0001) %MON dynstat_eta_max              =   2.6544384708374E+00
(PID.TID 0000.0001) %MON dynstat_eta_min              =  -1.6084336069464E+00
(PID.TID 0000.0001) %MON dynstat_eta_mean             =   2.3962324793629E-02
(PID.TID 0000.0001) %MON dynstat_eta_sd               =   6.1769654631848E-01
(PID.TID 0000.0001) %MON dynstat_eta_del2             =   2.0655638395023E-03
(PID.TID 0000.0001) %MON dynstat_uvel_max             =   3.5639856911489E-01
(PID.TID 0000.0001) %MON dynstat_uvel_min             =  -9.0375863114538E-01
(PID.TID 0000.0001) %MON dynstat_uvel_mean            =  -4.3706247613401E-04
(PID.TID 0000.0001) %MON dynstat_uvel_sd              =   1.3014623257672E-02
(PID.TID 0000.0001) %MON dynstat_uvel_del2            =   8.6659343254408E-05
(PID.TID 0000.0001) %MON dynstat_vvel_max             =   1.0291863013716E+00
(PID.TID 0000.0001) %MON dynstat_vvel_min             =  -8.4756833254994E-01
(PID.TID 0000.0001) %MON dynstat_vvel_mean            =  -2.2210592898470E-04
(PID.TID 0000.0001) %MON dynstat_vvel_sd              =   1.3760234767811E-02
(PID.TID 0000.0001) %MON dynstat_vvel_del2            =   1.1716817668453E-04
(PID.TID 0000.0001) %MON dynstat_wvel_max             =   2.0854014574814E-04
(PID.TID 0000.0001) %MON dynstat_wvel_min             =  -1.9855819732320E-04
(PID.TID 0000.0001) %MON dynstat_wvel_mean            =  -1.8212807737729E-08
(PID.TID 0000.0001) %MON dynstat_wvel_sd              =   8.1103419165524E-06
(PID.TID 0000.0001) %MON dynstat_wvel_del2            =   7.4399441839311E-08
(PID.TID 0000.0001) %MON dynstat_theta_max            =   3.0924193622070E+01
(PID.TID 0000.0001) %MON dynstat_theta_min            =  -3.0047412542273E+00
(PID.TID 0000.0001) %MON dynstat_theta_mean           =   3.9091367077333E+00
(PID.TID 0000.0001) %MON dynstat_theta_sd             =   4.5714120167929E+00
(PID.TID 0000.0001) %MON dynstat_theta_del2           =   2.6442343052210E-03
(PID.TID 0000.0001) %MON dynstat_salt_max             =   4.1354334762643E+01
(PID.TID 0000.0001) %MON dynstat_salt_min             =   1.8518773320846E+01
(PID.TID 0000.0001) %MON dynstat_salt_mean            =   3.4771996810631E+01
(PID.TID 0000.0001) %MON dynstat_salt_sd              =   5.3163386602499E-01
(PID.TID 0000.0001) %MON dynstat_salt_del2            =   9.7874236642749E-04
(PID.TID 0000.0001) %MON dynstat_sst_max              =   3.0924193622070E+01
(PID.TID 0000.0001) %MON dynstat_sst_min              =  -1.8974966531994E+00
(PID.TID 0000.0001) %MON dynstat_sst_mean             =   1.8108471788883E+01
(PID.TID 0000.0001) %MON dynstat_sst_sd               =   9.8100237416923E+00
(PID.TID 0000.0001) %MON dynstat_sst_del2             =   1.5073846746408E-02
(PID.TID 0000.0001) %MON dynstat_sss_max              =   4.1354334762643E+01
(PID.TID 0000.0001) %MON dynstat_sss_min              =   1.8751453680866E+01
(PID.TID 0000.0001) %MON dynstat_sss_mean             =   3.4627546150372E+01
(PID.TID 0000.0001) %MON dynstat_sss_sd               =   1.4744148107661E+00
(PID.TID 0000.0001) %MON dynstat_sss_del2             =   1.0660984809896E-02
(PID.TID 0000.0001) %MON forcing_qnet_max             =   2.4818505012171E+03
(PID.TID 0000.0001) %MON forcing_qnet_min             =  -1.5587158232838E+03
(PID.TID 0000.0001) %MON forcing_qnet_mean            =   1.9938526165852E+01
(PID.TID 0000.0001) %MON forcing_qnet_sd              =   2.2002165231053E+02
(PID.TID 0000.0001) %MON forcing_qnet_del2            =   4.9056106139631E+00
(PID.TID 0000.0001) %MON forcing_qsw_max              =   0.0000000000000E+00
(PID.TID 0000.0001) %MON forcing_qsw_min              =  -1.0398913904335E+02
(PID.TID 0000.0001) %MON forcing_qsw_mean             =  -1.3526852330067E+01
(PID.TID 0000.0001) %MON forcing_qsw_sd               =   2.4899758460825E+01
(PID.TID 0000.0001) %MON forcing_qsw_del2             =   2.0361414193451E-01
(PID.TID 0000.0001) %MON forcing_empmr_max            =   7.4063567444682E-03
(PID.TID 0000.0001) %MON forcing_empmr_min            =  -1.0646329820156E-01
(PID.TID 0000.0001) %MON forcing_empmr_mean           =  -3.1490459596800E-04
(PID.TID 0000.0001) %MON forcing_empmr_sd             =   4.6887346353048E-03
(PID.TID 0000.0001) %MON forcing_empmr_del2           =   1.8514461331760E-04
(PID.TID 0000.0001) %MON forcing_fu_max               =   3.8254969950818E-01
(PID.TID 0000.0001) %MON forcing_fu_min               =  -3.6390000167105E-01
(PID.TID 0000.0001) %MON forcing_fu_mean              =  -3.6643282734077E-03
(PID.TID 0000.0001) %MON forcing_fu_sd                =   6.3302886400979E-02
(PID.TID 0000.0001) %MON forcing_fu_del2              =   6.2168250521332E-04
(PID.TID 0000.0001) %MON forcing_fv_max               =   3.2295722071875E-01
(PID.TID 0000.0001) %MON forcing_fv_min               =  -2.8339819874166E-01
(PID.TID 0000.0001) %MON forcing_fv_mean              =  -1.3254957578845E-02
(PID.TID 0000.0001) %MON forcing_fv_sd                =   6.5129587546790E-02
(PID.TID 0000.0001) %MON forcing_fv_del2              =   5.5561677767005E-04
(PID.TID 0000.0001) %MON trAdv_CFL_u_max              =   3.0799534580654E-03
(PID.TID 0000.0001) %MON trAdv_CFL_v_max              =   3.8472899755735E-03
(PID.TID 0000.0001) %MON trAdv_CFL_w_max              =   2.0026786902143E-03
(PID.TID 0000.0001) %MON advcfl_uvel_max              =   3.0138241274033E-03
(PID.TID 0000.0001) %MON advcfl_vvel_max              =   3.0842340249581E-03
(PID.TID 0000.0001) %MON advcfl_wvel_max              =   3.7030712417934E-03
(PID.TID 0000.0001) %MON advcfl_W_hf_max              =   2.6813762165668E-03
(PID.TID 0000.0001) %MON pe_b_mean                    =   5.0905546391973E-04
(PID.TID 0000.0001) %MON ke_max                       =   3.6897235621448E-01
(PID.TID 0000.0001) %MON ke_mean                      =   1.6576937591139E-04
(PID.TID 0000.0001) %MON ke_vol                       =   1.3398110652918E+18
(PID.TID 0000.0001) %MON vort_r_min                   =  -3.7581185044915E-06
(PID.TID 0000.0001) %MON vort_r_max                   =   4.0127056726796E-06
(PID.TID 0000.0001) %MON vort_a_mean                  =  -2.0549865324846E-05
(PID.TID 0000.0001) %MON vort_a_sd                    =   7.5259542620339E-05
(PID.TID 0000.0001) %MON vort_p_mean                  =  -2.4783312796108E-05
(PID.TID 0000.0001) %MON vort_p_sd                    =   1.2811912356906E-04
(PID.TID 0000.0001) %MON surfExpan_theta_mean         =  -6.2665884163163E-06
(PID.TID 0000.0001) %MON surfExpan_salt_mean          =   9.1277468755191E-07
(PID.TID 0000.0001) // =======================================================
(PID.TID 0000.0001) // End MONITOR dynamic field statistics
(PID.TID 0000.0001) // =======================================================
 cg2d: Sum(rhs),rhsMax =  -3.37819098469666E+01  6.17352488147736E+01
(PID.TID 0000.0001)      cg2d_init_res =   2.25640862376301E-01
(PID.TID 0000.0001)      cg2d_iters(min,last) =      -1      10
(PID.TID 0000.0001)      cg2d_last_res =   4.83071415322386E-08
(PID.TID 0000.0001) // =======================================================
(PID.TID 0000.0001) // Begin MONITOR dynamic field statistics
(PID.TID 0000.0001) // =======================================================
(PID.TID 0000.0001) %MON time_tsnumber                =                 72041
(PID.TID 0000.0001) %MON time_secondsf                =   6.4836900000000E+07
(PID.TID 0000.0001) %MON dynstat_eta_max              =   2.7521694722291E+00
(PID.TID 0000.0001) %MON dynstat_eta_min              =  -1.6084692603083E+00
(PID.TID 0000.0001) %MON dynstat_eta_mean             =   2.4233635685613E-02
(PID.TID 0000.0001) %MON dynstat_eta_sd               =   6.1761568388086E-01
(PID.TID 0000.0001) %MON dynstat_eta_del2             =   2.1203421205789E-03
(PID.TID 0000.0001) %MON dynstat_uvel_max             =   3.6096431342275E-01
(PID.TID 0000.0001) %MON dynstat_uvel_min             =  -8.5495011551720E-01
(PID.TID 0000.0001) %MON dynstat_uvel_mean            =  -4.6011224260789E-04
(PID.TID 0000.0001) %MON dynstat_uvel_sd              =   1.2993236982310E-02
(PID.TID 0000.0001) %MON dynstat_uvel_del2            =   8.6607657178424E-05
(PID.TID 0000.0001) %MON dynstat_vvel_max             =   9.7450352178954E-01
(PID.TID 0000.0001) %MON dynstat_vvel_min             =  -7.4967229590527E-01
(PID.TID 0000.0001) %MON dynstat_vvel_mean            =  -1.7766288851190E-04
(PID.TID 0000.0001) %MON dynstat_vvel_sd              =   1.3721878925392E-02
(PID.TID 0000.0001) %MON dynstat_vvel_del2            =   1.1357200181007E-04
(PID.TID 0000.0001) %MON dynstat_wvel_max             =   2.0435169379037E-04
(PID.TID 0000.0001) %MON dynstat_wvel_min             =  -2.0421827469095E-04
(PID.TID 0000.0001) %MON dynstat_wvel_mean            =  -2.8742448557472E-08
(PID.TID 0000.0001) %MON dynstat_wvel_sd              =   8.0547794902116E-06
(PID.TID 0000.0001) %MON dynstat_wvel_del2            =   7.4432631145706E-08
(PID.TID 0000.0001) %MON dynstat_theta_max            =   3.0924325154371E+01
(PID.TID 0000.0001) %MON dynstat_theta_min            =  -3.0046019362385E+00
(PID.TID 0000.0001) %MON dynstat_theta_mean           =   3.9091371719676E+00
(PID.TID 0000.0001) %MON dynstat_theta_sd             =   4.5714143853154E+00
(PID.TID 0000.0001) %MON dynstat_theta_del2           =   2.6441053896476E-03
(PID.TID 0000.0001) %MON dynstat_salt_max             =   4.1353996926407E+01
(PID.TID 0000.0001) %MON dynstat_salt_min             =   1.8518783843268E+01
(PID.TID 0000.0001) %MON dynstat_salt_mean            =   3.4771993627030E+01
(PID.TID 0000.0001) %MON dynstat_salt_sd              =   5.3165220160777E-01
(PID.TID 0000.0001) %MON dynstat_salt_del2            =   9.8366129293324E-04
(PID.TID 0000.0001) %MON dynstat_sst_max              =   3.0924325154371E+01
(PID.TID 0000.0001) %MON dynstat_sst_min              =  -1.8973905330549E+00
(PID.TID 0000.0001) %MON dynstat_sst_mean             =   1.8108412341323E+01
(PID.TID 0000.0001) %MON dynstat_sst_sd               =   9.8101126255236E+00
(PID.TID 0000.0001) %MON dynstat_sst_del2             =   1.5071288196983E-02
(PID.TID 0000.0001) %MON dynstat_sss_max              =   4.1353996926407E+01
(PID.TID 0000.0001) %MON dynstat_sss_min              =   1.8751466966033E+01
(PID.TID 0000.0001) %MON dynstat_sss_mean             =   3.4627321873431E+01
(PID.TID 0000.0001) %MON dynstat_sss_sd               =   1.4748750945828E+00
(PID.TID 0000.0001) %MON dynstat_sss_del2             =   1.0732195245140E-02
(PID.TID 0000.0001) %MON forcing_qnet_max             =   2.4492367904188E+03
(PID.TID 0000.0001) %MON forcing_qnet_min             =  -1.5364425883203E+03
(PID.TID 0000.0001) %MON forcing_qnet_mean            =   2.1545297762763E+01
(PID.TID 0000.0001) %MON forcing_qnet_sd              =   2.1567603446145E+02
(PID.TID 0000.0001) %MON forcing_qnet_del2            =   4.7637216839109E+00
(PID.TID 0000.0001) %MON forcing_qsw_max              =   0.0000000000000E+00
(PID.TID 0000.0001) %MON forcing_qsw_min              =  -1.0586263840839E+02
(PID.TID 0000.0001) %MON forcing_qsw_mean             =  -1.3162661973045E+01
(PID.TID 0000.0001) %MON forcing_qsw_sd               =   2.4718410866848E+01
(PID.TID 0000.0001) %MON forcing_qsw_del2             =   1.9826064368943E-01
(PID.TID 0000.0001) %MON forcing_empmr_max            =   7.3299957439303E-03
(PID.TID 0000.0001) %MON forcing_empmr_min            =  -1.0536660254002E-01
(PID.TID 0000.0001) %MON forcing_empmr_mean           =  -3.1200752578085E-04
(PID.TID 0000.0001) %MON forcing_empmr_sd             =   4.6403370379622E-03
(PID.TID 0000.0001) %MON forcing_empmr_del2           =   1.8323097802400E-04
(PID.TID 0000.0001) %MON forcing_fu_max               =   3.8107914561637E-01
(PID.TID 0000.0001) %MON forcing_fu_min               =  -3.6390444894050E-01
(PID.TID 0000.0001) %MON forcing_fu_mean              =  -3.5965992165299E-03
(PID.TID 0000.0001) %MON forcing_fu_sd                =   6.3147193479027E-02
(PID.TID 0000.0001) %MON forcing_fu_del2              =   6.2087656479085E-04
(PID.TID 0000.0001) %MON forcing_fv_max               =   3.3016935444458E-01
(PID.TID 0000.0001) %MON forcing_fv_min               =  -2.8419753597577E-01
(PID.TID 0000.0001) %MON forcing_fv_mean              =  -1.3466108162182E-02
(PID.TID 0000.0001) %MON forcing_fv_sd                =   6.5066469644960E-02
(PID.TID 0000.0001) %MON forcing_fv_del2              =   5.5484807952157E-04
(PID.TID 0000.0001) %MON trAdv_CFL_u_max              =   2.9225972530659E-03
(PID.TID 0000.0001) %MON trAdv_CFL_v_max              =   3.4494219711540E-03
(PID.TID 0000.0001) %MON trAdv_CFL_w_max              =   2.0569002011055E-03
(PID.TID 0000.0001) %MON advcfl_uvel_max              =   2.8510591180816E-03
(PID.TID 0000.0001) %MON advcfl_vvel_max              =   2.9203623438626E-03
(PID.TID 0000.0001) %MON advcfl_wvel_max              =   3.6649253057397E-03
(PID.TID 0000.0001) %MON advcfl_W_hf_max              =   2.6275008045761E-03
(PID.TID 0000.0001) %MON pe_b_mean                    =   5.0893977416400E-04
(PID.TID 0000.0001) %MON ke_max                       =   3.1398756402342E-01
(PID.TID 0000.0001) %MON ke_mean                      =   1.6502600857122E-04
(PID.TID 0000.0001) %MON ke_vol                       =   1.3398111649350E+18
(PID.TID 0000.0001) %MON vort_r_min                   =  -3.3685720690115E-06
(PID.TID 0000.0001) %MON vort_r_max                   =   4.0564092689094E-06
(PID.TID 0000.0001) %MON vort_a_mean                  =  -2.0549865324846E-05
(PID.TID 0000.0001) %MON vort_a_sd                    =   7.5259552861761E-05
(PID.TID 0000.0001) %MON vort_p_mean                  =  -2.4783311200265E-05
(PID.TID 0000.0001) %MON vort_p_sd                    =   1.2811912773315E-04
(PID.TID 0000.0001) %MON surfExpan_theta_mean         =  -6.2015539660700E-06
(PID.TID 0000.0001) %MON surfExpan_salt_mean          =   9.2137642719881E-07
(PID.TID 0000.0001) // =======================================================
(PID.TID 0000.0001) // End MONITOR dynamic field statistics
(PID.TID 0000.0001) // =======================================================
 cg2d: Sum(rhs),rhsMax =  -3.31128279865242E+01  6.36825937026327E+01
(PID.TID 0000.0001)      cg2d_init_res =   2.08582534410922E-01
(PID.TID 0000.0001)      cg2d_iters(min,last) =      -1      10
(PID.TID 0000.0001)      cg2d_last_res =   4.50578871508863E-08
(PID.TID 0000.0001) // =======================================================
(PID.TID 0000.0001) // Begin MONITOR dynamic field statistics
(PID.TID 0000.0001) // =======================================================
(PID.TID 0000.0001) %MON time_tsnumber                =                 72042
(PID.TID 0000.0001) %MON time_secondsf                =   6.4837800000000E+07
(PID.TID 0000.0001) %MON dynstat_eta_max              =   2.8384250029359E+00
(PID.TID 0000.0001) %MON dynstat_eta_min              =  -1.6083308050971E+00
(PID.TID 0000.0001) %MON dynstat_eta_mean             =   2.4502939605931E-02
(PID.TID 0000.0001) %MON dynstat_eta_sd               =   6.1756697684652E-01
(PID.TID 0000.0001) %MON dynstat_eta_del2             =   2.1874658408507E-03
(PID.TID 0000.0001) %MON dynstat_uvel_max             =   3.6383095956128E-01
(PID.TID 0000.0001) %MON dynstat_uvel_min             =  -8.0356379767437E-01
(PID.TID 0000.0001) %MON dynstat_uvel_mean            =  -4.7998842027714E-04
(PID.TID 0000.0001) %MON dynstat_uvel_sd              =   1.2963273029910E-02
(PID.TID 0000.0001) %MON dynstat_uvel_del2            =   8.6588501618807E-05
(PID.TID 0000.0001) %MON dynstat_vvel_max             =   9.1089145543685E-01
(PID.TID 0000.0001) %MON dynstat_vvel_min             =  -6.4379597266205E-01
(PID.TID 0000.0001) %MON dynstat_vvel_mean            =  -1.3062341323103E-04
(PID.TID 0000.0001) %MON dynstat_vvel_sd              =   1.3690633320618E-02
(PID.TID 0000.0001) %MON dynstat_vvel_del2            =   1.0967139359940E-04
(PID.TID 0000.0001) %MON dynstat_wvel_max             =   1.9924631347190E-04
(PID.TID 0000.0001) %MON dynstat_wvel_min             =  -2.0873808024090E-04
(PID.TID 0000.0001) %MON dynstat_wvel_mean            =  -4.3344647168519E-08
(PID.TID 0000.0001) %MON dynstat_wvel_sd              =   8.0044380725205E-06
(PID.TID 0000.0001) %MON dynstat_wvel_del2            =   7.4505851881846E-08
(PID.TID 0000.0001) %MON dynstat_theta_max            =   3.0924451415615E+01
(PID.TID 0000.0001) %MON dynstat_theta_min            =  -3.0044750719095E+00
(PID.TID 0000.0001) %MON dynstat_theta_mean           =   3.9091376590525E+00
(PID.TID 0000.0001) %MON dynstat_theta_sd             =   4.5714165043700E+00
(PID.TID 0000.0001) %MON dynstat_theta_del2           =   2.6439712949955E-03
(PID.TID 0000.0001) %MON dynstat_salt_max             =   4.1353653116070E+01
(PID.TID 0000.0001) %MON dynstat_salt_min             =   1.8518794360219E+01
(PID.TID 0000.0001) %MON dynstat_salt_mean            =   3.4771990525077E+01
(PID.TID 0000.0001) %MON dynstat_salt_sd              =   5.3167030973150E-01
(PID.TID 0000.0001) %MON dynstat_salt_del2            =   9.8852113189171E-04
(PID.TID 0000.0001) %MON dynstat_sst_max              =   3.0924451415615E+01
(PID.TID 0000.0001) %MON dynstat_sst_min              =  -1.8972924088391E+00
(PID.TID 0000.0001) %MON dynstat_sst_mean             =   1.8108356059388E+01
(PID.TID 0000.0001) %MON dynstat_sst_sd               =   9.8101918486760E+00
(PID.TID 0000.0001) %MON dynstat_sst_del2             =   1.5068228532925E-02
(PID.TID 0000.0001) %MON dynstat_sss_max              =   4.1353653116070E+01
(PID.TID 0000.0001) %MON dynstat_sss_min              =   1.8751482515541E+01
(PID.TID 0000.0001) %MON dynstat_sss_mean             =   3.4627104299902E+01
(PID.TID 0000.0001) %MON dynstat_sss_sd               =   1.4753302149718E+00
(PID.TID 0000.0001) %MON dynstat_sss_del2             =   1.0802389166325E-02
(PID.TID 0000.0001) %MON forcing_qnet_max             =   2.4190923815230E+03
(PID.TID 0000.0001) %MON forcing_qnet_min             =  -1.0723515625000E+04
(PID.TID 0000.0001) %MON forcing_qnet_mean            =   2.0992336448030E+01
(PID.TID 0000.0001) %MON forcing_qnet_sd              =   2.5790491576402E+02
(PID.TID 0000.0001) %MON forcing_qnet_del2            =   8.9316320088194E+00
(PID.TID 0000.0001) %MON forcing_qsw_max              =   0.0000000000000E+00
(PID.TID 0000.0001) %MON forcing_qsw_min              =  -1.0628455487415E+02
(PID.TID 0000.0001) %MON forcing_qsw_mean             =  -1.3097478040809E+01
(PID.TID 0000.0001) %MON forcing_qsw_sd               =   2.4678462905425E+01
(PID.TID 0000.0001) %MON forcing_qsw_del2             =   1.9708486194625E-01
(PID.TID 0000.0001) %MON forcing_empmr_max            =   7.2544217109680E-03
(PID.TID 0000.0001) %MON forcing_empmr_min            =  -1.0428082942963E-01
(PID.TID 0000.0001) %MON forcing_empmr_mean           =  -3.0969950836632E-04
(PID.TID 0000.0001) %MON forcing_empmr_sd             =   4.5925069242572E-03
(PID.TID 0000.0001) %MON forcing_empmr_del2           =   1.8133801697401E-04
(PID.TID 0000.0001) %MON forcing_fu_max               =   3.7994990352331E-01
(PID.TID 0000.0001) %MON forcing_fu_min               =  -3.6402580817136E-01
(PID.TID 0000.0001) %MON forcing_fu_mean              =  -3.5691134248519E-03
(PID.TID 0000.0001) %MON forcing_fu_sd                =   6.2956540470318E-02
(PID.TID 0000.0001) %MON forcing_fu_del2              =   6.1998752670149E-04
(PID.TID 0000.0001) %MON forcing_fv_max               =   3.2889224288626E-01
(PID.TID 0000.0001) %MON forcing_fv_min               =  -2.8629622663468E-01
(PID.TID 0000.0001) %MON forcing_fv_mean              =  -1.3684684653013E-02
(PID.TID 0000.0001) %MON forcing_fv_sd                =   6.4938980513628E-02
(PID.TID 0000.0001) %MON forcing_fv_del2              =   5.5313580755069E-04
(PID.TID 0000.0001) %MON trAdv_CFL_u_max              =   2.7155542436339E-03
(PID.TID 0000.0001) %MON trAdv_CFL_v_max              =   3.0239536305249E-03
(PID.TID 0000.0001) %MON trAdv_CFL_w_max              =   2.0945171119188E-03
(PID.TID 0000.0001) %MON advcfl_uvel_max              =   2.6415927239066E-03
(PID.TID 0000.0001) %MON advcfl_vvel_max              =   2.7297316493213E-03
(PID.TID 0000.0001) %MON advcfl_wvel_max              =   3.6271592845087E-03
(PID.TID 0000.0001) %MON advcfl_W_hf_max              =   2.5618385982999E-03
(PID.TID 0000.0001) %MON pe_b_mean                    =   5.0887707492021E-04
(PID.TID 0000.0001) %MON ke_max                       =   2.7055478082205E-01
(PID.TID 0000.0001) %MON ke_mean                      =   1.6427313907894E-04
(PID.TID 0000.0001) %MON ke_vol                       =   1.3398112636614E+18
(PID.TID 0000.0001) %MON vort_r_min                   =  -2.9579931105063E-06
(PID.TID 0000.0001) %MON vort_r_max                   =   4.0072095181386E-06
(PID.TID 0000.0001) %MON vort_a_mean                  =  -2.0549865324846E-05
(PID.TID 0000.0001) %MON vort_a_sd                    =   7.5259563788955E-05
(PID.TID 0000.0001) %MON vort_p_mean                  =  -2.4783309610072E-05
(PID.TID 0000.0001) %MON vort_p_sd                    =   1.2811912682093E-04
(PID.TID 0000.0001) %MON surfExpan_theta_mean         =  -6.1562581942296E-06
(PID.TID 0000.0001) %MON surfExpan_salt_mean          =   9.3588746127639E-07
(PID.TID 0000.0001) // =======================================================
(PID.TID 0000.0001) // End MONITOR dynamic field statistics
(PID.TID 0000.0001) // =======================================================
 cg2d: Sum(rhs),rhsMax =  -3.26220869868604E+01  6.53450068238662E+01
(PID.TID 0000.0001)      cg2d_init_res =   1.92753067258209E-01
(PID.TID 0000.0001)      cg2d_iters(min,last) =      -1      10
(PID.TID 0000.0001)      cg2d_last_res =   3.38656095136730E-08
(PID.TID 0000.0001) // =======================================================
(PID.TID 0000.0001) // Begin MONITOR dynamic field statistics
(PID.TID 0000.0001) // =======================================================
(PID.TID 0000.0001) %MON time_tsnumber                =                 72043
(PID.TID 0000.0001) %MON time_secondsf                =   6.4838700000000E+07
(PID.TID 0000.0001) %MON dynstat_eta_max              =   2.9120281386309E+00
(PID.TID 0000.0001) %MON dynstat_eta_min              =  -1.6079768131215E+00
(PID.TID 0000.0001) %MON dynstat_eta_mean             =   2.4769960972757E-02
(PID.TID 0000.0001) %MON dynstat_eta_sd               =   6.1753426814456E-01
(PID.TID 0000.0001) %MON dynstat_eta_del2             =   2.2592041993556E-03
(PID.TID 0000.0001) %MON dynstat_uvel_max             =   3.6495867824091E-01
(PID.TID 0000.0001) %MON dynstat_uvel_min             =  -7.5268134394502E-01
(PID.TID 0000.0001) %MON dynstat_uvel_mean            =  -4.9663151800449E-04
(PID.TID 0000.0001) %MON dynstat_uvel_sd              =   1.2926468747816E-02
(PID.TID 0000.0001) %MON dynstat_uvel_del2            =   8.6642800919976E-05
(PID.TID 0000.0001) %MON dynstat_vvel_max             =   8.3979744388046E-01
(PID.TID 0000.0001) %MON dynstat_vvel_min             =  -5.3192119398432E-01
(PID.TID 0000.0001) %MON dynstat_vvel_mean            =  -8.1618901700947E-05
(PID.TID 0000.0001) %MON dynstat_vvel_sd              =   1.3667665269583E-02
(PID.TID 0000.0001) %MON dynstat_vvel_del2            =   1.0559477937046E-04
(PID.TID 0000.0001) %MON dynstat_wvel_max             =   1.9350701210287E-04
(PID.TID 0000.0001) %MON dynstat_wvel_min             =  -2.1203752718249E-04
(PID.TID 0000.0001) %MON dynstat_wvel_mean            =  -6.1529311123102E-08
(PID.TID 0000.0001) %MON dynstat_wvel_sd              =   7.9604473505503E-06
(PID.TID 0000.0001) %MON dynstat_wvel_del2            =   7.4625072599716E-08
(PID.TID 0000.0001) %MON dynstat_theta_max            =   3.0924570527566E+01
(PID.TID 0000.0001) %MON dynstat_theta_min            =  -3.0043660374150E+00
(PID.TID 0000.0001) %MON dynstat_theta_mean           =   3.9091379284700E+00
(PID.TID 0000.0001) %MON dynstat_theta_sd             =   4.5714179362397E+00
(PID.TID 0000.0001) %MON dynstat_theta_del2           =   2.6438558298063E-03
(PID.TID 0000.0001) %MON dynstat_salt_max             =   4.1353304396279E+01
(PID.TID 0000.0001) %MON dynstat_salt_min             =   1.8518804866929E+01
(PID.TID 0000.0001) %MON dynstat_salt_mean            =   3.4771987438434E+01
(PID.TID 0000.0001) %MON dynstat_salt_sd              =   5.3168828144369E-01
(PID.TID 0000.0001) %MON dynstat_salt_del2            =   9.9330930304216E-04
(PID.TID 0000.0001) %MON dynstat_sst_max              =   3.0924570527566E+01
(PID.TID 0000.0001) %MON dynstat_sst_min              =  -1.8972050389778E+00
(PID.TID 0000.0001) %MON dynstat_sst_mean             =   1.8108283289619E+01
(PID.TID 0000.0001) %MON dynstat_sst_sd               =   9.8102724801181E+00
(PID.TID 0000.0001) %MON dynstat_sst_del2             =   1.5066000789679E-02
(PID.TID 0000.0001) %MON dynstat_sss_max              =   4.1353304396279E+01
(PID.TID 0000.0001) %MON dynstat_sss_min              =   1.8751500465818E+01
(PID.TID 0000.0001) %MON dynstat_sss_mean             =   3.4626887963460E+01
(PID.TID 0000.0001) %MON dynstat_sss_sd               =   1.4757809507130E+00
(PID.TID 0000.0001) %MON dynstat_sss_del2             =   1.0871472698801E-02
(PID.TID 0000.0001) %MON forcing_qnet_max             =   2.3881002901549E+03
(PID.TID 0000.0001) %MON forcing_qnet_min             =  -1.7670500488281E+03
(PID.TID 0000.0001) %MON forcing_qnet_mean            =   2.4534882814096E+01
(PID.TID 0000.0001) %MON forcing_qnet_sd              =   2.0859748392837E+02
(PID.TID 0000.0001) %MON forcing_qnet_del2            =   4.5282113829226E+00
(PID.TID 0000.0001) %MON forcing_qsw_max              =   0.0000000000000E+00
(PID.TID 0000.0001) %MON forcing_qsw_min              =  -1.0677071863650E+02
(PID.TID 0000.0001) %MON forcing_qsw_mean             =  -1.3016842217028E+01
(PID.TID 0000.0001) %MON forcing_qsw_sd               =   2.4577230255990E+01
(PID.TID 0000.0001) %MON forcing_qsw_del2             =   1.9580228052590E-01
(PID.TID 0000.0001) %MON forcing_empmr_max            =   7.1796346455812E-03
(PID.TID 0000.0001) %MON forcing_empmr_min            =  -1.0320679843426E-01
(PID.TID 0000.0001) %MON forcing_empmr_mean           =  -3.0707457184963E-04
(PID.TID 0000.0001) %MON forcing_empmr_sd             =   4.5451711403130E-03
(PID.TID 0000.0001) %MON forcing_empmr_del2           =   1.7945998813250E-04
(PID.TID 0000.0001) %MON forcing_fu_max               =   3.7615804047928E-01
(PID.TID 0000.0001) %MON forcing_fu_min               =  -3.6472026260676E-01
(PID.TID 0000.0001) %MON forcing_fu_mean              =  -3.6003301745777E-03
(PID.TID 0000.0001) %MON forcing_fu_sd                =   6.2616035040808E-02
(PID.TID 0000.0001) %MON forcing_fu_del2              =   6.1791057322668E-04
(PID.TID 0000.0001) %MON forcing_fv_max               =   3.3471931435712E-01
(PID.TID 0000.0001) %MON forcing_fv_min               =  -2.8749892970378E-01
(PID.TID 0000.0001) %MON forcing_fv_mean              =  -1.3846791590404E-02
(PID.TID 0000.0001) %MON forcing_fv_sd                =   6.4803706689847E-02
(PID.TID 0000.0001) %MON forcing_fv_del2              =   5.5191390382629E-04
(PID.TID 0000.0001) %MON trAdv_CFL_u_max              =   2.4642392685722E-03
(PID.TID 0000.0001) %MON trAdv_CFL_v_max              =   2.5782436059708E-03
(PID.TID 0000.0001) %MON trAdv_CFL_w_max              =   2.1148571964865E-03
(PID.TID 0000.0001) %MON advcfl_uvel_max              =   2.3910359859384E-03
(PID.TID 0000.0001) %MON advcfl_vvel_max              =   2.5166792902676E-03
(PID.TID 0000.0001) %MON advcfl_wvel_max              =   3.5898016846698E-03
(PID.TID 0000.0001) %MON advcfl_W_hf_max              =   2.4880284445292E-03
(PID.TID 0000.0001) %MON pe_b_mean                    =   5.0884074704126E-04
(PID.TID 0000.0001) %MON ke_max                       =   2.2605031214059E-01
(PID.TID 0000.0001) %MON ke_mean                      =   1.6354648203855E-04
(PID.TID 0000.0001) %MON ke_vol                       =   1.3398113616575E+18
(PID.TID 0000.0001) %MON vort_r_min                   =  -2.5310366970326E-06
(PID.TID 0000.0001) %MON vort_r_max                   =   3.8696941563258E-06
(PID.TID 0000.0001) %MON vort_a_mean                  =  -2.0549865324846E-05
(PID.TID 0000.0001) %MON vort_a_sd                    =   7.5259575233291E-05
(PID.TID 0000.0001) %MON vort_p_mean                  =  -2.4783308014198E-05
(PID.TID 0000.0001) %MON vort_p_sd                    =   1.2811912108045E-04
(PID.TID 0000.0001) %MON surfExpan_theta_mean         =  -6.1309281843159E-06
(PID.TID 0000.0001) %MON surfExpan_salt_mean          =   9.5538053733479E-07
(PID.TID 0000.0001) // =======================================================
(PID.TID 0000.0001) // End MONITOR dynamic field statistics
(PID.TID 0000.0001) // =======================================================
 Computing Diagnostic #     81  oceTAUX      Counter:       1   Parms: UU      U1      
           Vector  Mate for  oceTAUX      Diagnostic #     82  oceTAUY  exists 
 Computing Diagnostic #     82  oceTAUY      Counter:       1   Parms: VV      U1      
           Vector  Mate for  oceTAUY      Diagnostic #     81  oceTAUX  exists 
 Computing Diagnostic #     85  oceFWflx     Counter:       1   Parms: SM      U1      
 Computing Diagnostic #     86  oceSflux     Counter:       1   Parms: SM      U1      
 Computing Diagnostic #     87  oceQnet      Counter:       1   Parms: SM      U1      
 Computing Diagnostic #     88  oceQsw       Counter:       1   Parms: SM      U1      
 Computing Diagnostic #     27  SALT         Counter:       1   Parms: SMR     MR      
 Computing Diagnostic #     26  THETA        Counter:       1   Parms: SMR     MR      
 Computing Diagnostic #     45  UVELMASS     Counter:       1   Parms: UUr     MR      
           Vector  Mate for  UVELMASS     Diagnostic #     46  VVELMASS exists 
 Computing Diagnostic #     46  VVELMASS     Counter:       1   Parms: VVr     MR      
           Vector  Mate for  VVELMASS     Diagnostic #     45  UVELMASS exists 
 cg2d: Sum(rhs),rhsMax =  -3.23016668661765E+01  6.66989163460139E+01
(PID.TID 0000.0001)      cg2d_init_res =   1.78192813228808E-01
(PID.TID 0000.0001)      cg2d_iters(min,last) =      -1      10
(PID.TID 0000.0001)      cg2d_last_res =   5.72742420236156E-08
(PID.TID 0000.0001) // =======================================================
(PID.TID 0000.0001) // Begin MONITOR dynamic field statistics
(PID.TID 0000.0001) // =======================================================
(PID.TID 0000.0001) %MON time_tsnumber                =                 72044
(PID.TID 0000.0001) %MON time_secondsf                =   6.4839600000000E+07
(PID.TID 0000.0001) %MON dynstat_eta_max              =   2.9719348019678E+00
(PID.TID 0000.0001) %MON dynstat_eta_min              =  -1.6073723051740E+00
(PID.TID 0000.0001) %MON dynstat_eta_mean             =   2.5034843745100E-02
(PID.TID 0000.0001) %MON dynstat_eta_sd               =   6.1749881333208E-01
(PID.TID 0000.0001) %MON dynstat_eta_del2             =   2.3285704096434E-03
(PID.TID 0000.0001) %MON dynstat_uvel_max             =   3.6432313336755E-01
(PID.TID 0000.0001) %MON dynstat_uvel_min             =  -6.9562301583991E-01
(PID.TID 0000.0001) %MON dynstat_uvel_mean            =  -5.0999696479712E-04
(PID.TID 0000.0001) %MON dynstat_uvel_sd              =   1.2885133202881E-02
(PID.TID 0000.0001) %MON dynstat_uvel_del2            =   8.6807462589167E-05
(PID.TID 0000.0001) %MON dynstat_vvel_max             =   7.6269719165787E-01
(PID.TID 0000.0001) %MON dynstat_vvel_min             =  -4.1606306475741E-01
(PID.TID 0000.0001) %MON dynstat_vvel_mean            =  -3.1364226343147E-05
(PID.TID 0000.0001) %MON dynstat_vvel_sd              =   1.3653642286906E-02
(PID.TID 0000.0001) %MON dynstat_vvel_del2            =   1.0149434192724E-04
(PID.TID 0000.0001) %MON dynstat_wvel_max             =   1.8741493088966E-04
(PID.TID 0000.0001) %MON dynstat_wvel_min             =  -2.1401496803381E-04
(PID.TID 0000.0001) %MON dynstat_wvel_mean            =  -8.2617583905980E-08
(PID.TID 0000.0001) %MON dynstat_wvel_sd              =   7.9239291257707E-06
(PID.TID 0000.0001) %MON dynstat_wvel_del2            =   7.4797066948997E-08
(PID.TID 0000.0001) %MON dynstat_theta_max            =   3.0924681854102E+01
(PID.TID 0000.0001) %MON dynstat_theta_min            =  -3.0042801735410E+00
(PID.TID 0000.0001) %MON dynstat_theta_mean           =   3.9091381164093E+00
(PID.TID 0000.0001) %MON dynstat_theta_sd             =   4.5714189784282E+00
(PID.TID 0000.0001) %MON dynstat_theta_del2           =   2.6437306177908E-03
(PID.TID 0000.0001) %MON dynstat_salt_max             =   4.1352951903634E+01
(PID.TID 0000.0001) %MON dynstat_salt_min             =   1.8518815358229E+01
(PID.TID 0000.0001) %MON dynstat_salt_mean            =   3.4771984401372E+01
(PID.TID 0000.0001) %MON dynstat_salt_sd              =   5.3170606594625E-01
(PID.TID 0000.0001) %MON dynstat_salt_del2            =   9.9802768234407E-04
(PID.TID 0000.0001) %MON dynstat_sst_max              =   3.0924681854102E+01
(PID.TID 0000.0001) %MON dynstat_sst_min              =  -1.8971288217306E+00
(PID.TID 0000.0001) %MON dynstat_sst_mean             =   1.8108202968854E+01
(PID.TID 0000.0001) %MON dynstat_sst_sd               =   9.8103494574388E+00
(PID.TID 0000.0001) %MON dynstat_sst_del2             =   1.5063677785089E-02
(PID.TID 0000.0001) %MON dynstat_sss_max              =   4.1352951903634E+01
(PID.TID 0000.0001) %MON dynstat_sss_min              =   1.8751521017576E+01
(PID.TID 0000.0001) %MON dynstat_sss_mean             =   3.4626674873282E+01
(PID.TID 0000.0001) %MON dynstat_sss_sd               =   1.4762266026432E+00
(PID.TID 0000.0001) %MON dynstat_sss_del2             =   1.0939457651125E-02
(PID.TID 0000.0001) %MON forcing_qnet_max             =   2.3599573477449E+03
(PID.TID 0000.0001) %MON forcing_qnet_min             =  -1.4736337322518E+03
(PID.TID 0000.0001) %MON forcing_qnet_mean            =   2.5766291125296E+01
(PID.TID 0000.0001) %MON forcing_qnet_sd              =   2.0547656614849E+02
(PID.TID 0000.0001) %MON forcing_qnet_del2            =   4.2940817880876E+00
(PID.TID 0000.0001) %MON forcing_qsw_max              =   0.0000000000000E+00
(PID.TID 0000.0001) %MON forcing_qsw_min              =  -1.0729453767222E+02
(PID.TID 0000.0001) %MON forcing_qsw_mean             =  -1.2920625557643E+01
(PID.TID 0000.0001) %MON forcing_qsw_sd               =   2.4416458863903E+01
(PID.TID 0000.0001) %MON forcing_qsw_del2             =   1.9441932261485E-01
(PID.TID 0000.0001) %MON forcing_empmr_max            =   7.1056350134313E-03
(PID.TID 0000.0001) %MON forcing_empmr_min            =  -1.0214367508888E-01
(PID.TID 0000.0001) %MON forcing_empmr_mean           =  -3.0461518819395E-04
(PID.TID 0000.0001) %MON forcing_empmr_sd             =   4.4983234935288E-03
(PID.TID 0000.0001) %MON forcing_empmr_del2           =   1.7760023691413E-04
(PID.TID 0000.0001) %MON forcing_fu_max               =   3.7164774689183E-01
(PID.TID 0000.0001) %MON forcing_fu_min               =  -3.6467652738480E-01
(PID.TID 0000.0001) %MON forcing_fu_mean              =  -3.6388851448103E-03
(PID.TID 0000.0001) %MON forcing_fu_sd                =   6.2277372667220E-02
(PID.TID 0000.0001) %MON forcing_fu_del2              =   6.1598835438485E-04
(PID.TID 0000.0001) %MON forcing_fv_max               =   3.2755129164302E-01
(PID.TID 0000.0001) %MON forcing_fv_min               =  -2.8844654536137E-01
(PID.TID 0000.0001) %MON forcing_fv_mean              =  -1.4037484038179E-02
(PID.TID 0000.0001) %MON forcing_fv_sd                =   6.4569349288240E-02
(PID.TID 0000.0001) %MON forcing_fv_del2              =   5.4992336582800E-04
(PID.TID 0000.0001) %MON trAdv_CFL_u_max              =   2.1746473589771E-03
(PID.TID 0000.0001) %MON trAdv_CFL_v_max              =   2.3066506295160E-03
(PID.TID 0000.0001) %MON trAdv_CFL_w_max              =   2.1171803014043E-03
(PID.TID 0000.0001) %MON advcfl_uvel_max              =   2.1053796876190E-03
(PID.TID 0000.0001) %MON advcfl_vvel_max              =   2.2856276129174E-03
(PID.TID 0000.0001) %MON advcfl_wvel_max              =   3.5528234813524E-03
(PID.TID 0000.0001) %MON advcfl_W_hf_max              =   2.4096850555372E-03
(PID.TID 0000.0001) %MON pe_b_mean                    =   5.0879995164466E-04
(PID.TID 0000.0001) %MON ke_max                       =   1.8248255736268E-01
(PID.TID 0000.0001) %MON ke_mean                      =   1.6288211284873E-04
(PID.TID 0000.0001) %MON ke_vol                       =   1.3398114588230E+18
(PID.TID 0000.0001) %MON vort_r_min                   =  -2.6115106215700E-06
(PID.TID 0000.0001) %MON vort_r_max                   =   3.6500266176012E-06
(PID.TID 0000.0001) %MON vort_a_mean                  =  -2.0549865324846E-05
(PID.TID 0000.0001) %MON vort_a_sd                    =   7.5259587024667E-05
(PID.TID 0000.0001) %MON vort_p_mean                  =  -2.4783306406086E-05
(PID.TID 0000.0001) %MON vort_p_sd                    =   1.2811911110471E-04
(PID.TID 0000.0001) %MON surfExpan_theta_mean         =  -6.1249657633494E-06
(PID.TID 0000.0001) %MON surfExpan_salt_mean          =   9.7869069563453E-07
(PID.TID 0000.0001) // =======================================================
(PID.TID 0000.0001) // End MONITOR dynamic field statistics
(PID.TID 0000.0001) // =======================================================
 cg2d: Sum(rhs),rhsMax =  -3.21456125468285E+01  6.77241406952790E+01
(PID.TID 0000.0001)      cg2d_init_res =   1.65102098908601E-01
(PID.TID 0000.0001)      cg2d_iters(min,last) =      -1      10
(PID.TID 0000.0001)      cg2d_last_res =   6.89456180065155E-08
(PID.TID 0000.0001) // =======================================================
(PID.TID 0000.0001) // Begin MONITOR dynamic field statistics
(PID.TID 0000.0001) // =======================================================
(PID.TID 0000.0001) %MON time_tsnumber                =                 72045
(PID.TID 0000.0001) %MON time_secondsf                =   6.4840500000000E+07
(PID.TID 0000.0001) %MON dynstat_eta_max              =   3.0172508086218E+00
(PID.TID 0000.0001) %MON dynstat_eta_min              =  -1.6064946884077E+00
(PID.TID 0000.0001) %MON dynstat_eta_mean             =   2.5296846316411E-02
(PID.TID 0000.0001) %MON dynstat_eta_sd               =   6.1744124121412E-01
(PID.TID 0000.0001) %MON dynstat_eta_del2             =   2.3895981513104E-03
(PID.TID 0000.0001) %MON dynstat_uvel_max             =   3.6191531896560E-01
(PID.TID 0000.0001) %MON dynstat_uvel_min             =  -6.3301112011862E-01
(PID.TID 0000.0001) %MON dynstat_uvel_mean            =  -5.2006239995634E-04
(PID.TID 0000.0001) %MON dynstat_uvel_sd              =   1.2841959167467E-02
(PID.TID 0000.0001) %MON dynstat_uvel_del2            =   8.7111623895856E-05
(PID.TID 0000.0001) %MON dynstat_vvel_max             =   6.8107106273267E-01
(PID.TID 0000.0001) %MON dynstat_vvel_min             =  -4.0295843903495E-01
(PID.TID 0000.0001) %MON dynstat_vvel_mean            =   1.9448623826631E-05
(PID.TID 0000.0001) %MON dynstat_vvel_sd              =   1.3648825330269E-02
(PID.TID 0000.0001) %MON dynstat_vvel_del2            =   9.7543958528381E-05
(PID.TID 0000.0001) %MON dynstat_wvel_max             =   1.8123017888210E-04
(PID.TID 0000.0001) %MON dynstat_wvel_min             =  -2.1455650825185E-04
(PID.TID 0000.0001) %MON dynstat_wvel_mean            =  -1.0555944629704E-07
(PID.TID 0000.0001) %MON dynstat_wvel_sd              =   7.8963177263908E-06
(PID.TID 0000.0001) %MON dynstat_wvel_del2            =   7.5026058157345E-08
(PID.TID 0000.0001) %MON dynstat_theta_max            =   3.0924766541377E+01
(PID.TID 0000.0001) %MON dynstat_theta_min            =  -3.0042224490471E+00
(PID.TID 0000.0001) %MON dynstat_theta_mean           =   3.9091383330464E+00
(PID.TID 0000.0001) %MON dynstat_theta_sd             =   4.5714200132453E+00
(PID.TID 0000.0001) %MON dynstat_theta_del2           =   2.6436037154188E-03
(PID.TID 0000.0001) %MON dynstat_salt_max             =   4.1352597083052E+01
(PID.TID 0000.0001) %MON dynstat_salt_min             =   1.8518825830847E+01
(PID.TID 0000.0001) %MON dynstat_salt_mean            =   3.4771981423569E+01
(PID.TID 0000.0001) %MON dynstat_salt_sd              =   5.3172366688084E-01
(PID.TID 0000.0001) %MON dynstat_salt_del2            =   1.0026784571922E-03
(PID.TID 0000.0001) %MON dynstat_sst_max              =   3.0924766541377E+01
(PID.TID 0000.0001) %MON dynstat_sst_min              =  -1.8970651333644E+00
(PID.TID 0000.0001) %MON dynstat_sst_mean             =   1.8108123316613E+01
(PID.TID 0000.0001) %MON dynstat_sst_sd               =   9.8104238253829E+00
(PID.TID 0000.0001) %MON dynstat_sst_del2             =   1.5061295450701E-02
(PID.TID 0000.0001) %MON dynstat_sss_max              =   4.1352597083052E+01
(PID.TID 0000.0001) %MON dynstat_sss_min              =   1.8751544345684E+01
(PID.TID 0000.0001) %MON dynstat_sss_mean             =   3.4626465628956E+01
(PID.TID 0000.0001) %MON dynstat_sss_sd               =   1.4766674134477E+00
(PID.TID 0000.0001) %MON dynstat_sss_del2             =   1.1006364521725E-02
(PID.TID 0000.0001) %MON forcing_qnet_max             =   2.3300810880426E+03
(PID.TID 0000.0001) %MON forcing_qnet_min             =  -1.4524635259692E+03
(PID.TID 0000.0001) %MON forcing_qnet_mean            =   2.5049260684035E+01
(PID.TID 0000.0001) %MON forcing_qnet_sd              =   2.0488864730281E+02
(PID.TID 0000.0001) %MON forcing_qnet_del2            =   4.3603646517204E+00
(PID.TID 0000.0001) %MON forcing_qsw_max              =   0.0000000000000E+00
(PID.TID 0000.0001) %MON forcing_qsw_min              =  -1.0903727574902E+02
(PID.TID 0000.0001) %MON forcing_qsw_mean             =  -1.2850867968442E+01
(PID.TID 0000.0001) %MON forcing_qsw_sd               =   2.4098672481255E+01
(PID.TID 0000.0001) %MON forcing_qsw_del2             =   1.9095774312961E-01
(PID.TID 0000.0001) %MON forcing_empmr_max            =   7.0324228145182E-03
(PID.TID 0000.0001) %MON forcing_empmr_min            =  -1.0109146684408E-01
(PID.TID 0000.0001) %MON forcing_empmr_mean           =  -3.0130295700782E-04
(PID.TID 0000.0001) %MON forcing_empmr_sd             =   4.4520005004425E-03
(PID.TID 0000.0001) %MON forcing_empmr_del2           =   1.7575239824685E-04
(PID.TID 0000.0001) %MON forcing_fu_max               =   3.7202010588564E-01
(PID.TID 0000.0001) %MON forcing_fu_min               =  -3.6516913011419E-01
(PID.TID 0000.0001) %MON forcing_fu_mean              =  -3.6558309086718E-03
(PID.TID 0000.0001) %MON forcing_fu_sd                =   6.2118478412119E-02
(PID.TID 0000.0001) %MON forcing_fu_del2              =   6.1541097780869E-04
(PID.TID 0000.0001) %MON forcing_fv_max               =   3.3410728655395E-01
(PID.TID 0000.0001) %MON forcing_fv_min               =  -2.8904490788032E-01
(PID.TID 0000.0001) %MON forcing_fv_mean              =  -1.4191825348742E-02
(PID.TID 0000.0001) %MON forcing_fv_sd                =   6.4435585620249E-02
(PID.TID 0000.0001) %MON forcing_fv_del2              =   5.4957399110289E-04
(PID.TID 0000.0001) %MON trAdv_CFL_u_max              =   1.9161773726632E-03
(PID.TID 0000.0001) %MON trAdv_CFL_v_max              =   2.0656163775826E-03
(PID.TID 0000.0001) %MON trAdv_CFL_w_max              =   2.1007488984240E-03
(PID.TID 0000.0001) %MON advcfl_uvel_max              =   1.8631017805090E-03
(PID.TID 0000.0001) %MON advcfl_vvel_max              =   2.0410129267122E-03
(PID.TID 0000.0001) %MON advcfl_wvel_max              =   3.5162249337072E-03
(PID.TID 0000.0001) %MON advcfl_W_hf_max              =   2.3301526248242E-03
(PID.TID 0000.0001) %MON pe_b_mean                    =   5.0872276730232E-04
(PID.TID 0000.0001) %MON ke_max                       =   1.4161801059636E-01
(PID.TID 0000.0001) %MON ke_mean                      =   1.6231530332312E-04
(PID.TID 0000.0001) %MON ke_vol                       =   1.3398115552104E+18
(PID.TID 0000.0001) %MON vort_r_min                   =  -2.6869030623656E-06
(PID.TID 0000.0001) %MON vort_r_max                   =   3.3558014968059E-06
(PID.TID 0000.0001) %MON vort_a_mean                  =  -2.0549865324846E-05
(PID.TID 0000.0001) %MON vort_a_sd                    =   7.5259599001769E-05
(PID.TID 0000.0001) %MON vort_p_mean                  =  -2.4783304775853E-05
(PID.TID 0000.0001) %MON vort_p_sd                    =   1.2811909767160E-04
(PID.TID 0000.0001) %MON surfExpan_theta_mean         =  -6.1261546388490E-06
(PID.TID 0000.0001) %MON surfExpan_salt_mean          =   1.0063932548078E-06
(PID.TID 0000.0001) // =======================================================
(PID.TID 0000.0001) // End MONITOR dynamic field statistics
(PID.TID 0000.0001) // =======================================================
 cg2d: Sum(rhs),rhsMax =  -3.21524067531072E+01  6.84041737934633E+01
(PID.TID 0000.0001)      cg2d_init_res =   1.53870474990523E-01
(PID.TID 0000.0001)      cg2d_iters(min,last) =      -1      10
(PID.TID 0000.0001)      cg2d_last_res =   7.35759100386107E-08
(PID.TID 0000.0001) // =======================================================
(PID.TID 0000.0001) // Begin MONITOR dynamic field statistics
(PID.TID 0000.0001) // =======================================================
(PID.TID 0000.0001) %MON time_tsnumber                =                 72046
(PID.TID 0000.0001) %MON time_secondsf                =   6.4841400000000E+07
(PID.TID 0000.0001) %MON dynstat_eta_max              =   3.0472444908026E+00
(PID.TID 0000.0001) %MON dynstat_eta_min              =  -1.6053399925331E+00
(PID.TID 0000.0001) %MON dynstat_eta_mean             =   2.5556257911144E-02
(PID.TID 0000.0001) %MON dynstat_eta_sd               =   6.1734564175450E-01
(PID.TID 0000.0001) %MON dynstat_eta_del2             =   2.4375285870941E-03
(PID.TID 0000.0001) %MON dynstat_uvel_max             =   3.5774127290153E-01
(PID.TID 0000.0001) %MON dynstat_uvel_min             =  -5.6554732997866E-01
(PID.TID 0000.0001) %MON dynstat_uvel_mean            =  -5.2683143667152E-04
(PID.TID 0000.0001) %MON dynstat_uvel_sd              =   1.2799689230149E-02
(PID.TID 0000.0001) %MON dynstat_uvel_del2            =   8.7571938690084E-05
(PID.TID 0000.0001) %MON dynstat_vvel_max             =   5.9636972314279E-01
(PID.TID 0000.0001) %MON dynstat_vvel_min             =  -3.9805230417367E-01
(PID.TID 0000.0001) %MON dynstat_vvel_mean            =   7.0130076822214E-05
(PID.TID 0000.0001) %MON dynstat_vvel_sd              =   1.3652951182696E-02
(PID.TID 0000.0001) %MON dynstat_vvel_del2            =   9.3927357845412E-05
(PID.TID 0000.0001) %MON dynstat_wvel_max             =   1.7517639934719E-04
(PID.TID 0000.0001) %MON dynstat_wvel_min             =  -2.1355195589579E-04
(PID.TID 0000.0001) %MON dynstat_wvel_mean            =  -1.3051551233070E-07
(PID.TID 0000.0001) %MON dynstat_wvel_sd              =   7.8785843671769E-06
(PID.TID 0000.0001) %MON dynstat_wvel_del2            =   7.5311107817256E-08
(PID.TID 0000.0001) %MON dynstat_theta_max            =   3.0924840635182E+01
(PID.TID 0000.0001) %MON dynstat_theta_min            =  -3.0041971143878E+00
(PID.TID 0000.0001) %MON dynstat_theta_mean           =   3.9091385721999E+00
(PID.TID 0000.0001) %MON dynstat_theta_sd             =   4.5714210665653E+00
(PID.TID 0000.0001) %MON dynstat_theta_del2           =   2.6434668527915E-03
(PID.TID 0000.0001) %MON dynstat_salt_max             =   4.1352241819094E+01
(PID.TID 0000.0001) %MON dynstat_salt_min             =   1.8518836282462E+01
(PID.TID 0000.0001) %MON dynstat_salt_mean            =   3.4771978503695E+01
(PID.TID 0000.0001) %MON dynstat_salt_sd              =   5.3174107084532E-01
(PID.TID 0000.0001) %MON dynstat_salt_del2            =   1.0072598567123E-03
(PID.TID 0000.0001) %MON dynstat_sst_max              =   3.0924840635182E+01
(PID.TID 0000.0001) %MON dynstat_sst_min              =  -1.8970163004625E+00
(PID.TID 0000.0001) %MON dynstat_sst_mean             =   1.8108046911175E+01
(PID.TID 0000.0001) %MON dynstat_sst_sd               =   9.8104981273259E+00
(PID.TID 0000.0001) %MON dynstat_sst_del2             =   1.5058741677258E-02
(PID.TID 0000.0001) %MON dynstat_sss_max              =   4.1352241819094E+01
(PID.TID 0000.0001) %MON dynstat_sss_min              =   1.8751570795315E+01
(PID.TID 0000.0001) %MON dynstat_sss_mean             =   3.4626261242580E+01
(PID.TID 0000.0001) %MON dynstat_sss_sd               =   1.4771041461073E+00
(PID.TID 0000.0001) %MON dynstat_sss_del2             =   1.1072183936327E-02
(PID.TID 0000.0001) %MON forcing_qnet_max             =   2.6355568730861E+03
(PID.TID 0000.0001) %MON forcing_qnet_min             =  -1.9995773925781E+03
(PID.TID 0000.0001) %MON forcing_qnet_mean            =   2.4590006094145E+01
(PID.TID 0000.0001) %MON forcing_qnet_sd              =   2.0880564902050E+02
(PID.TID 0000.0001) %MON forcing_qnet_del2            =   4.7802183191256E+00
(PID.TID 0000.0001) %MON forcing_qsw_max              =   0.0000000000000E+00
(PID.TID 0000.0001) %MON forcing_qsw_min              =  -1.0954025437636E+02
(PID.TID 0000.0001) %MON forcing_qsw_mean             =  -1.2883312849182E+01
(PID.TID 0000.0001) %MON forcing_qsw_sd               =   2.3945381415688E+01
(PID.TID 0000.0001) %MON forcing_qsw_del2             =   1.9107740009803E-01
(PID.TID 0000.0001) %MON forcing_empmr_max            =   6.9598988629878E-03
(PID.TID 0000.0001) %MON forcing_empmr_min            =  -1.0004931688309E-01
(PID.TID 0000.0001) %MON forcing_empmr_mean           =  -2.9832333394296E-04
(PID.TID 0000.0001) %MON forcing_empmr_sd             =   4.4060684259739E-03
(PID.TID 0000.0001) %MON forcing_empmr_del2           =   1.7390764462681E-04
(PID.TID 0000.0001) %MON forcing_fu_max               =   3.7380522363404E-01
(PID.TID 0000.0001) %MON forcing_fu_min               =  -3.6464835529668E-01
(PID.TID 0000.0001) %MON forcing_fu_mean              =  -3.6435514008814E-03
(PID.TID 0000.0001) %MON forcing_fu_sd                =   6.2021718631752E-02
(PID.TID 0000.0001) %MON forcing_fu_del2              =   6.1508114842880E-04
(PID.TID 0000.0001) %MON forcing_fv_max               =   3.3579352643115E-01
(PID.TID 0000.0001) %MON forcing_fv_min               =  -2.8907283429052E-01
(PID.TID 0000.0001) %MON forcing_fv_mean              =  -1.4323901251713E-02
(PID.TID 0000.0001) %MON forcing_fv_sd                =   6.4288107556588E-02
(PID.TID 0000.0001) %MON forcing_fv_del2              =   5.4830049724076E-04
(PID.TID 0000.0001) %MON trAdv_CFL_u_max              =   1.7148335092781E-03
(PID.TID 0000.0001) %MON trAdv_CFL_v_max              =   1.8717997227668E-03
(PID.TID 0000.0001) %MON trAdv_CFL_w_max              =   2.0649876728890E-03
(PID.TID 0000.0001) %MON advcfl_uvel_max              =   1.6645398539727E-03
(PID.TID 0000.0001) %MON advcfl_vvel_max              =   1.7871825432583E-03
(PID.TID 0000.0001) %MON advcfl_wvel_max              =   3.4799762394117E-03
(PID.TID 0000.0001) %MON advcfl_W_hf_max              =   2.2523064299225E-03
(PID.TID 0000.0001) %MON pe_b_mean                    =   5.0858304839111E-04
(PID.TID 0000.0001) %MON ke_max                       =   1.2586261467861E-01
(PID.TID 0000.0001) %MON ke_mean                      =   1.6187500783840E-04
(PID.TID 0000.0001) %MON ke_vol                       =   1.3398116505496E+18
(PID.TID 0000.0001) %MON vort_r_min                   =  -2.7540506702163E-06
(PID.TID 0000.0001) %MON vort_r_max                   =   2.9957966070172E-06
(PID.TID 0000.0001) %MON vort_a_mean                  =  -2.0549865324846E-05
(PID.TID 0000.0001) %MON vort_a_sd                    =   7.5259611010706E-05
(PID.TID 0000.0001) %MON vort_p_mean                  =  -2.4783303120046E-05
(PID.TID 0000.0001) %MON vort_p_sd                    =   1.2811908164340E-04
(PID.TID 0000.0001) %MON surfExpan_theta_mean         =  -6.1686266585695E-06
(PID.TID 0000.0001) %MON surfExpan_salt_mean          =   1.0362087208894E-06
(PID.TID 0000.0001) // =======================================================
(PID.TID 0000.0001) // End MONITOR dynamic field statistics
(PID.TID 0000.0001) // =======================================================
 cg2d: Sum(rhs),rhsMax =  -3.23230121083562E+01  6.87264616045259E+01
(PID.TID 0000.0001)      cg2d_init_res =   1.44938054321233E-01
(PID.TID 0000.0001)      cg2d_iters(min,last) =      -1      10
(PID.TID 0000.0001)      cg2d_last_res =   7.54895403569999E-08
(PID.TID 0000.0001) // =======================================================
(PID.TID 0000.0001) // Begin MONITOR dynamic field statistics
(PID.TID 0000.0001) // =======================================================
(PID.TID 0000.0001) %MON time_tsnumber                =                 72047
(PID.TID 0000.0001) %MON time_secondsf                =   6.4842300000000E+07
(PID.TID 0000.0001) %MON dynstat_eta_max              =   3.0669323580467E+00
(PID.TID 0000.0001) %MON dynstat_eta_min              =  -1.6039269158690E+00
(PID.TID 0000.0001) %MON dynstat_eta_mean             =   2.5812910933425E-02
(PID.TID 0000.0001) %MON dynstat_eta_sd               =   6.1719766568715E-01
(PID.TID 0000.0001) %MON dynstat_eta_del2             =   2.4688100997727E-03
(PID.TID 0000.0001) %MON dynstat_uvel_max             =   3.5182177554071E-01
(PID.TID 0000.0001) %MON dynstat_uvel_min             =  -5.6550629732619E-01
(PID.TID 0000.0001) %MON dynstat_uvel_mean            =  -5.3032648280744E-04
(PID.TID 0000.0001) %MON dynstat_uvel_sd              =   1.2760955065437E-02
(PID.TID 0000.0001) %MON dynstat_uvel_del2            =   8.8193350495820E-05
(PID.TID 0000.0001) %MON dynstat_vvel_max             =   5.1000782899666E-01
(PID.TID 0000.0001) %MON dynstat_vvel_min             =  -4.0007047072823E-01
(PID.TID 0000.0001) %MON dynstat_vvel_mean            =   1.2002342030081E-04
(PID.TID 0000.0001) %MON dynstat_vvel_sd              =   1.3665360036276E-02
(PID.TID 0000.0001) %MON dynstat_vvel_del2            =   9.0826689562687E-05
(PID.TID 0000.0001) %MON dynstat_wvel_max             =   1.6954099106596E-04
(PID.TID 0000.0001) %MON dynstat_wvel_min             =  -2.1090787904382E-04
(PID.TID 0000.0001) %MON dynstat_wvel_mean            =  -1.5633289015318E-07
(PID.TID 0000.0001) %MON dynstat_wvel_sd              =   7.8720746561801E-06
(PID.TID 0000.0001) %MON dynstat_wvel_del2            =   7.5656925479557E-08
(PID.TID 0000.0001) %MON dynstat_theta_max            =   3.0924903744672E+01
(PID.TID 0000.0001) %MON dynstat_theta_min            =  -3.0042073826830E+00
(PID.TID 0000.0001) %MON dynstat_theta_mean           =   3.9091390497890E+00
(PID.TID 0000.0001) %MON dynstat_theta_sd             =   4.5714227279718E+00
(PID.TID 0000.0001) %MON dynstat_theta_del2           =   2.6433130517215E-03
(PID.TID 0000.0001) %MON dynstat_salt_max             =   4.1351888072361E+01
(PID.TID 0000.0001) %MON dynstat_salt_min             =   1.8518846712022E+01
(PID.TID 0000.0001) %MON dynstat_salt_mean            =   3.4771975712256E+01
(PID.TID 0000.0001) %MON dynstat_salt_sd              =   5.3175826924306E-01
(PID.TID 0000.0001) %MON dynstat_salt_del2            =   1.0117750135340E-03
(PID.TID 0000.0001) %MON dynstat_sst_max              =   3.0924903744672E+01
(PID.TID 0000.0001) %MON dynstat_sst_min              =  -1.8969821988016E+00
(PID.TID 0000.0001) %MON dynstat_sst_mean             =   1.8107992550062E+01
(PID.TID 0000.0001) %MON dynstat_sst_sd               =   9.8105688578924E+00
(PID.TID 0000.0001) %MON dynstat_sst_del2             =   1.5055701847813E-02
(PID.TID 0000.0001) %MON dynstat_sss_max              =   4.1351888072361E+01
(PID.TID 0000.0001) %MON dynstat_sss_min              =   1.8751600465989E+01
(PID.TID 0000.0001) %MON dynstat_sss_mean             =   3.4626067516804E+01
(PID.TID 0000.0001) %MON dynstat_sss_sd               =   1.4775367363035E+00
(PID.TID 0000.0001) %MON dynstat_sss_del2             =   1.1136973384102E-02
(PID.TID 0000.0001) %MON forcing_qnet_max             =   4.0212124345326E+03
(PID.TID 0000.0001) %MON forcing_qnet_min             =  -1.8722925781250E+04
(PID.TID 0000.0001) %MON forcing_qnet_mean            =   2.0398292554780E+01
(PID.TID 0000.0001) %MON forcing_qnet_sd              =   3.5992248623112E+02
(PID.TID 0000.0001) %MON forcing_qnet_del2            =   1.2345486514864E+01
(PID.TID 0000.0001) %MON forcing_qsw_max              =   0.0000000000000E+00
(PID.TID 0000.0001) %MON forcing_qsw_min              =  -1.0958925025974E+02
(PID.TID 0000.0001) %MON forcing_qsw_mean             =  -1.2895161869174E+01
(PID.TID 0000.0001) %MON forcing_qsw_sd               =   2.3750131928409E+01
(PID.TID 0000.0001) %MON forcing_qsw_del2             =   1.9094490995606E-01
(PID.TID 0000.0001) %MON forcing_empmr_max            =   6.8881628103554E-03
(PID.TID 0000.0001) %MON forcing_empmr_min            =  -9.9018916487694E-02
(PID.TID 0000.0001) %MON forcing_empmr_mean           =  -2.9515097562324E-04
(PID.TID 0000.0001) %MON forcing_empmr_sd             =   4.3612259595556E-03
(PID.TID 0000.0001) %MON forcing_empmr_del2           =   1.7210156636917E-04
(PID.TID 0000.0001) %MON forcing_fu_max               =   3.7848414145796E-01
(PID.TID 0000.0001) %MON forcing_fu_min               =  -3.6455577047769E-01
(PID.TID 0000.0001) %MON forcing_fu_mean              =  -3.5898562534434E-03
(PID.TID 0000.0001) %MON forcing_fu_sd                =   6.2072367125227E-02
(PID.TID 0000.0001) %MON forcing_fu_del2              =   6.1613010829521E-04
(PID.TID 0000.0001) %MON forcing_fv_max               =   3.3387468996810E-01
(PID.TID 0000.0001) %MON forcing_fv_min               =  -2.9003371754421E-01
(PID.TID 0000.0001) %MON forcing_fv_mean              =  -1.4444025202186E-02
(PID.TID 0000.0001) %MON forcing_fv_sd                =   6.4078735401779E-02
(PID.TID 0000.0001) %MON forcing_fv_del2              =   5.4666884006460E-04
(PID.TID 0000.0001) %MON trAdv_CFL_u_max              =   1.6054114960454E-03
(PID.TID 0000.0001) %MON trAdv_CFL_v_max              =   1.7707273587572E-03
(PID.TID 0000.0001) %MON trAdv_CFL_w_max              =   2.0095881655518E-03
(PID.TID 0000.0001) %MON advcfl_uvel_max              =   1.6086946827467E-03
(PID.TID 0000.0001) %MON advcfl_vvel_max              =   1.5283758607069E-03
(PID.TID 0000.0001) %MON advcfl_wvel_max              =   3.4441362256589E-03
(PID.TID 0000.0001) %MON advcfl_W_hf_max              =   2.1783797335720E-03
(PID.TID 0000.0001) %MON pe_b_mean                    =   5.0835721038699E-04
(PID.TID 0000.0001) %MON ke_max                       =   1.3725207913432E-01
(PID.TID 0000.0001) %MON ke_mean                      =   1.6158356660987E-04
(PID.TID 0000.0001) %MON ke_vol                       =   1.3398117449461E+18
(PID.TID 0000.0001) %MON vort_r_min                   =  -2.8799564332705E-06
(PID.TID 0000.0001) %MON vort_r_max                   =   2.5797986002168E-06
(PID.TID 0000.0001) %MON vort_a_mean                  =  -2.0549865324846E-05
(PID.TID 0000.0001) %MON vort_a_sd                    =   7.5259622910355E-05
(PID.TID 0000.0001) %MON vort_p_mean                  =  -2.4783301428507E-05
(PID.TID 0000.0001) %MON vort_p_sd                    =   1.2811906396266E-04
(PID.TID 0000.0001) %MON surfExpan_theta_mean         =  -6.2299253767714E-06
(PID.TID 0000.0001) %MON surfExpan_salt_mean          =   1.0674508944417E-06
(PID.TID 0000.0001) // =======================================================
(PID.TID 0000.0001) // End MONITOR dynamic field statistics
(PID.TID 0000.0001) // =======================================================
 Computing Diagnostic #     81  oceTAUX      Counter:       1   Parms: UU      U1      
           Vector  Mate for  oceTAUX      Diagnostic #     82  oceTAUY  exists 
 Computing Diagnostic #     82  oceTAUY      Counter:       1   Parms: VV      U1      
           Vector  Mate for  oceTAUY      Diagnostic #     81  oceTAUX  exists 
 Computing Diagnostic #     85  oceFWflx     Counter:       1   Parms: SM      U1      
 Computing Diagnostic #     86  oceSflux     Counter:       1   Parms: SM      U1      
 Computing Diagnostic #     87  oceQnet      Counter:       1   Parms: SM      U1      
 Computing Diagnostic #     88  oceQsw       Counter:       1   Parms: SM      U1      
 Computing Diagnostic #     27  SALT         Counter:       1   Parms: SMR     MR      
 Computing Diagnostic #     26  THETA        Counter:       1   Parms: SMR     MR      
 Computing Diagnostic #     45  UVELMASS     Counter:       1   Parms: UUr     MR      
           Vector  Mate for  UVELMASS     Diagnostic #     46  VVELMASS exists 
 Computing Diagnostic #     46  VVELMASS     Counter:       1   Parms: VVr     MR      
           Vector  Mate for  VVELMASS     Diagnostic #     45  UVELMASS exists 
 cg2d: Sum(rhs),rhsMax =  -3.26634031935486E+01  6.86825586705817E+01
(PID.TID 0000.0001)      cg2d_init_res =   1.38752351477125E-01
(PID.TID 0000.0001)      cg2d_iters(min,last) =      -1      10
(PID.TID 0000.0001)      cg2d_last_res =   7.62630337079874E-08
(PID.TID 0000.0001) // =======================================================
(PID.TID 0000.0001) // Begin MONITOR dynamic field statistics
(PID.TID 0000.0001) // =======================================================
(PID.TID 0000.0001) %MON time_tsnumber                =                 72048
(PID.TID 0000.0001) %MON time_secondsf                =   6.4843200000000E+07
(PID.TID 0000.0001) %MON dynstat_eta_max              =   3.1036003839529E+00
(PID.TID 0000.0001) %MON dynstat_eta_min              =  -1.6022998009102E+00
(PID.TID 0000.0001) %MON dynstat_eta_mean             =   2.6068081544429E-02
(PID.TID 0000.0001) %MON dynstat_eta_sd               =   6.1698753573720E-01
(PID.TID 0000.0001) %MON dynstat_eta_del2             =   2.4810695488216E-03
(PID.TID 0000.0001) %MON dynstat_uvel_max             =   3.4419206690427E-01
(PID.TID 0000.0001) %MON dynstat_uvel_min             =  -5.6707745463317E-01
(PID.TID 0000.0001) %MON dynstat_uvel_mean            =  -5.3061367053888E-04
(PID.TID 0000.0001) %MON dynstat_uvel_sd              =   1.2728065489230E-02
(PID.TID 0000.0001) %MON dynstat_uvel_del2            =   8.8965656539240E-05
(PID.TID 0000.0001) %MON dynstat_vvel_max             =   4.2334277856421E-01
(PID.TID 0000.0001) %MON dynstat_vvel_min             =  -4.3180469160155E-01
(PID.TID 0000.0001) %MON dynstat_vvel_mean            =   1.6852573780595E-04
(PID.TID 0000.0001) %MON dynstat_vvel_sd              =   1.3684885117578E-02
(PID.TID 0000.0001) %MON dynstat_vvel_del2            =   8.8403128720840E-05
(PID.TID 0000.0001) %MON dynstat_wvel_max             =   1.6410008249316E-04
(PID.TID 0000.0001) %MON dynstat_wvel_min             =  -2.0655983274367E-04
(PID.TID 0000.0001) %MON dynstat_wvel_mean            =  -1.8303297383656E-07
(PID.TID 0000.0001) %MON dynstat_wvel_sd              =   7.8771486237368E-06
(PID.TID 0000.0001) %MON dynstat_wvel_del2            =   7.6053816514630E-08
(PID.TID 0000.0001) %MON dynstat_theta_max            =   3.0924954371028E+01
(PID.TID 0000.0001) %MON dynstat_theta_min            =  -3.0042550868203E+00
(PID.TID 0000.0001) %MON dynstat_theta_mean           =   3.9091392025638E+00
(PID.TID 0000.0001) %MON dynstat_theta_sd             =   4.5714234850081E+00
(PID.TID 0000.0001) %MON dynstat_theta_del2           =   2.6431884179728E-03
(PID.TID 0000.0001) %MON dynstat_salt_max             =   4.1351537812731E+01
(PID.TID 0000.0001) %MON dynstat_salt_min             =   1.8518857119525E+01
(PID.TID 0000.0001) %MON dynstat_salt_mean            =   3.4771972866666E+01
(PID.TID 0000.0001) %MON dynstat_salt_sd              =   5.3177527486193E-01
(PID.TID 0000.0001) %MON dynstat_salt_del2            =   1.0162187156046E-03
(PID.TID 0000.0001) %MON dynstat_sst_max              =   3.0924954371028E+01
(PID.TID 0000.0001) %MON dynstat_sst_min              =  -1.8969635996966E+00
(PID.TID 0000.0001) %MON dynstat_sst_mean             =   1.8107910020661E+01
(PID.TID 0000.0001) %MON dynstat_sst_sd               =   9.8106437491333E+00
(PID.TID 0000.0001) %MON dynstat_sst_del2             =   1.5053422129166E-02
(PID.TID 0000.0001) %MON dynstat_sss_max              =   4.1351537812731E+01
(PID.TID 0000.0001) %MON dynstat_sss_min              =   1.8751633633975E+01
(PID.TID 0000.0001) %MON dynstat_sss_mean             =   3.4625868252028E+01
(PID.TID 0000.0001) %MON dynstat_sss_sd               =   1.4779634806500E+00
(PID.TID 0000.0001) %MON dynstat_sss_del2             =   1.1200636130745E-02
(PID.TID 0000.0001) %MON forcing_qnet_max             =   6.5834767605147E+03
(PID.TID 0000.0001) %MON forcing_qnet_min             =  -1.3928334263106E+03
(PID.TID 0000.0001) %MON forcing_qnet_mean            =   2.5833709575712E+01
(PID.TID 0000.0001) %MON forcing_qnet_sd              =   2.2708490388093E+02
(PID.TID 0000.0001) %MON forcing_qnet_del2            =   6.5601360423183E+00
(PID.TID 0000.0001) %MON forcing_qsw_max              =   0.0000000000000E+00
(PID.TID 0000.0001) %MON forcing_qsw_min              =  -1.0918402611178E+02
(PID.TID 0000.0001) %MON forcing_qsw_mean             =  -1.2883182373335E+01
(PID.TID 0000.0001) %MON forcing_qsw_sd               =   2.3517569782421E+01
(PID.TID 0000.0001) %MON forcing_qsw_del2             =   1.9055735760438E-01
(PID.TID 0000.0001) %MON forcing_empmr_max            =   6.8172137252986E-03
(PID.TID 0000.0001) %MON forcing_empmr_min            =  -9.7998589277267E-02
(PID.TID 0000.0001) %MON forcing_empmr_mean           =  -2.9344620265489E-04
(PID.TID 0000.0001) %MON forcing_empmr_sd             =   4.3170637764409E-03
(PID.TID 0000.0001) %MON forcing_empmr_del2           =   1.7033882719123E-04
(PID.TID 0000.0001) %MON forcing_fu_max               =   3.8462324384192E-01
(PID.TID 0000.0001) %MON forcing_fu_min               =  -3.6386048237315E-01
(PID.TID 0000.0001) %MON forcing_fu_mean              =  -3.4993345562233E-03
(PID.TID 0000.0001) %MON forcing_fu_sd                =   6.2256806859212E-02
(PID.TID 0000.0001) %MON forcing_fu_del2              =   6.1752452198986E-04
(PID.TID 0000.0001) %MON forcing_fv_max               =   3.3129862108744E-01
(PID.TID 0000.0001) %MON forcing_fv_min               =  -2.9111920743416E-01
(PID.TID 0000.0001) %MON forcing_fv_mean              =  -1.4566500507400E-02
(PID.TID 0000.0001) %MON forcing_fv_sd                =   6.3872981227341E-02
(PID.TID 0000.0001) %MON forcing_fv_del2              =   5.4565009649246E-04
(PID.TID 0000.0001) %MON trAdv_CFL_u_max              =   1.6106380365034E-03
(PID.TID 0000.0001) %MON trAdv_CFL_v_max              =   1.6226338355103E-03
(PID.TID 0000.0001) %MON trAdv_CFL_w_max              =   1.9346014716874E-03
(PID.TID 0000.0001) %MON advcfl_uvel_max              =   1.6131641509338E-03
(PID.TID 0000.0001) %MON advcfl_vvel_max              =   1.2686606886702E-03
(PID.TID 0000.0001) %MON advcfl_wvel_max              =   3.4086465835571E-03
(PID.TID 0000.0001) %MON advcfl_W_hf_max              =   2.1098790561088E-03
(PID.TID 0000.0001) %MON pe_b_mean                    =   5.0802932554584E-04
(PID.TID 0000.0001) %MON ke_max                       =   1.4842818127352E-01
(PID.TID 0000.0001) %MON ke_mean                      =   1.6145286555008E-04
(PID.TID 0000.0001) %MON ke_vol                       =   1.3398118383387E+18
(PID.TID 0000.0001) %MON vort_r_min                   =  -3.0419624798627E-06
(PID.TID 0000.0001) %MON vort_r_max                   =   2.2644538024700E-06
(PID.TID 0000.0001) %MON vort_a_mean                  =  -2.0549865324846E-05
(PID.TID 0000.0001) %MON vort_a_sd                    =   7.5259634575030E-05
(PID.TID 0000.0001) %MON vort_p_mean                  =  -2.4783299695723E-05
(PID.TID 0000.0001) %MON vort_p_sd                    =   1.2811904572590E-04
(PID.TID 0000.0001) %MON surfExpan_theta_mean         =  -6.3273496137619E-06
(PID.TID 0000.0001) %MON surfExpan_salt_mean          =   1.1006333377064E-06
(PID.TID 0000.0001) // =======================================================
(PID.TID 0000.0001) // End MONITOR dynamic field statistics
(PID.TID 0000.0001) // =======================================================
 cg2d: Sum(rhs),rhsMax =  -3.31803574277145E+01  6.82682511673421E+01
(PID.TID 0000.0001)      cg2d_init_res =   1.35695684014165E-01
(PID.TID 0000.0001)      cg2d_iters(min,last) =      -1      10
(PID.TID 0000.0001)      cg2d_last_res =   7.65879018869982E-08
(PID.TID 0000.0001) // =======================================================
(PID.TID 0000.0001) // Begin MONITOR dynamic field statistics
(PID.TID 0000.0001) // =======================================================
(PID.TID 0000.0001) %MON time_tsnumber                =                 72049
(PID.TID 0000.0001) %MON time_secondsf                =   6.4844100000000E+07
(PID.TID 0000.0001) %MON dynstat_eta_max              =   3.0859058516331E+00
(PID.TID 0000.0001) %MON dynstat_eta_min              =  -1.6005193124451E+00
(PID.TID 0000.0001) %MON dynstat_eta_mean             =   2.6320916711527E-02
(PID.TID 0000.0001) %MON dynstat_eta_sd               =   6.1670992531014E-01
(PID.TID 0000.0001) %MON dynstat_eta_del2             =   2.4730996460952E-03
(PID.TID 0000.0001) %MON dynstat_uvel_max             =   3.3490162256985E-01
(PID.TID 0000.0001) %MON dynstat_uvel_min             =  -5.6612999507120E-01
(PID.TID 0000.0001) %MON dynstat_uvel_mean            =  -5.2781288922580E-04
(PID.TID 0000.0001) %MON dynstat_uvel_sd              =   1.2702851695274E-02
(PID.TID 0000.0001) %MON dynstat_uvel_del2            =   8.9867524510412E-05
(PID.TID 0000.0001) %MON dynstat_vvel_max             =   3.7563979701265E-01
(PID.TID 0000.0001) %MON dynstat_vvel_min             =  -4.6251099389109E-01
(PID.TID 0000.0001) %MON dynstat_vvel_mean            =   2.1511896001053E-04
(PID.TID 0000.0001) %MON dynstat_vvel_sd              =   1.3710080971706E-02
(PID.TID 0000.0001) %MON dynstat_vvel_del2            =   8.6775579461722E-05
(PID.TID 0000.0001) %MON dynstat_wvel_max             =   1.5925278954882E-04
(PID.TID 0000.0001) %MON dynstat_wvel_min             =  -2.0048742593439E-04
(PID.TID 0000.0001) %MON dynstat_wvel_mean            =  -2.0868733195189E-07
(PID.TID 0000.0001) %MON dynstat_wvel_sd              =   7.8928465541217E-06
(PID.TID 0000.0001) %MON dynstat_wvel_del2            =   7.6482567831661E-08
(PID.TID 0000.0001) %MON dynstat_theta_max            =   3.0924978867369E+01
(PID.TID 0000.0001) %MON dynstat_theta_min            =  -3.0043405235492E+00
(PID.TID 0000.0001) %MON dynstat_theta_mean           =   3.9091394593827E+00
(PID.TID 0000.0001) %MON dynstat_theta_sd             =   4.5714247566735E+00
(PID.TID 0000.0001) %MON dynstat_theta_del2           =   2.6430448030019E-03
(PID.TID 0000.0001) %MON dynstat_salt_max             =   4.1351193249282E+01
(PID.TID 0000.0001) %MON dynstat_salt_min             =   1.8518867506016E+01
(PID.TID 0000.0001) %MON dynstat_salt_mean            =   3.4771970074450E+01
(PID.TID 0000.0001) %MON dynstat_salt_sd              =   5.3179212827911E-01
(PID.TID 0000.0001) %MON dynstat_salt_del2            =   1.0205886487897E-03
(PID.TID 0000.0001) %MON dynstat_sst_max              =   3.0924978867369E+01
(PID.TID 0000.0001) %MON dynstat_sst_min              =  -1.8969621484635E+00
(PID.TID 0000.0001) %MON dynstat_sst_mean             =   1.8107839280617E+01
(PID.TID 0000.0001) %MON dynstat_sst_sd               =   9.8107258803498E+00
(PID.TID 0000.0001) %MON dynstat_sst_del2             =   1.5050935069254E-02
(PID.TID 0000.0001) %MON dynstat_sss_max              =   4.1351193249282E+01
(PID.TID 0000.0001) %MON dynstat_sss_min              =   1.8751670544630E+01
(PID.TID 0000.0001) %MON dynstat_sss_mean             =   3.4625673798749E+01
(PID.TID 0000.0001) %MON dynstat_sss_sd               =   1.4783865440485E+00
(PID.TID 0000.0001) %MON dynstat_sss_del2             =   1.1263196239211E-02
(PID.TID 0000.0001) %MON forcing_qnet_max             =   9.9831542628587E+03
(PID.TID 0000.0001) %MON forcing_qnet_min             =  -1.3741405307465E+03
(PID.TID 0000.0001) %MON forcing_qnet_mean            =   2.3817641839380E+01
(PID.TID 0000.0001) %MON forcing_qnet_sd              =   2.5272546705809E+02
(PID.TID 0000.0001) %MON forcing_qnet_del2            =   8.7039526712025E+00
(PID.TID 0000.0001) %MON forcing_qsw_max              =   0.0000000000000E+00
(PID.TID 0000.0001) %MON forcing_qsw_min              =  -1.0759473449003E+02
(PID.TID 0000.0001) %MON forcing_qsw_mean             =  -1.3031492134319E+01
(PID.TID 0000.0001) %MON forcing_qsw_sd               =   2.3218933932963E+01
(PID.TID 0000.0001) %MON forcing_qsw_del2             =   1.9307153520106E-01
(PID.TID 0000.0001) %MON forcing_empmr_max            =   6.7468550987542E-03
(PID.TID 0000.0001) %MON forcing_empmr_min            =  -9.6989162266254E-02
(PID.TID 0000.0001) %MON forcing_empmr_mean           =  -2.9076044216326E-04
(PID.TID 0000.0001) %MON forcing_empmr_sd             =   4.2735562164868E-03
(PID.TID 0000.0001) %MON forcing_empmr_del2           =   1.6863809023647E-04
(PID.TID 0000.0001) %MON forcing_fu_max               =   3.8614097158458E-01
(PID.TID 0000.0001) %MON forcing_fu_min               =  -3.6426280323330E-01
(PID.TID 0000.0001) %MON forcing_fu_mean              =  -3.4086649258925E-03
(PID.TID 0000.0001) %MON forcing_fu_sd                =   6.2366673507244E-02
(PID.TID 0000.0001) %MON forcing_fu_del2              =   6.1909378957059E-04
(PID.TID 0000.0001) %MON forcing_fv_max               =   3.2884565889470E-01
(PID.TID 0000.0001) %MON forcing_fv_min               =  -2.9095948972752E-01
(PID.TID 0000.0001) %MON forcing_fv_mean              =  -1.4674363216952E-02
(PID.TID 0000.0001) %MON forcing_fv_sd                =   6.3666054941576E-02
(PID.TID 0000.0001) %MON forcing_fv_del2              =   5.4442204645072E-04
(PID.TID 0000.0001) %MON trAdv_CFL_u_max              =   1.6087692161184E-03
(PID.TID 0000.0001) %MON trAdv_CFL_v_max              =   1.4323862243099E-03
(PID.TID 0000.0001) %MON trAdv_CFL_w_max              =   1.8405878105238E-03
(PID.TID 0000.0001) %MON advcfl_uvel_max              =   1.6104689145294E-03
(PID.TID 0000.0001) %MON advcfl_vvel_max              =   1.3522462762782E-03
(PID.TID 0000.0001) %MON advcfl_wvel_max              =   3.3735360788262E-03
(PID.TID 0000.0001) %MON advcfl_W_hf_max              =   2.0475506262761E-03
(PID.TID 0000.0001) %MON pe_b_mean                    =   5.0759068292541E-04
(PID.TID 0000.0001) %MON ke_max                       =   1.5931138093320E-01
(PID.TID 0000.0001) %MON ke_mean                      =   1.6148550636294E-04
(PID.TID 0000.0001) %MON ke_vol                       =   1.3398119311919E+18
(PID.TID 0000.0001) %MON vort_r_min                   =  -3.2024413791189E-06
(PID.TID 0000.0001) %MON vort_r_max                   =   2.3440132995162E-06
(PID.TID 0000.0001) %MON vort_a_mean                  =  -2.0549865324846E-05
(PID.TID 0000.0001) %MON vort_a_sd                    =   7.5259645893074E-05
(PID.TID 0000.0001) %MON vort_p_mean                  =  -2.4783297907723E-05
(PID.TID 0000.0001) %MON vort_p_sd                    =   1.2811902783828E-04
(PID.TID 0000.0001) %MON surfExpan_theta_mean         =  -6.4192590234574E-06
(PID.TID 0000.0001) %MON surfExpan_salt_mean          =   1.1326346964935E-06
(PID.TID 0000.0001) // =======================================================
(PID.TID 0000.0001) // End MONITOR dynamic field statistics
(PID.TID 0000.0001) // =======================================================
 cg2d: Sum(rhs),rhsMax =  -3.38862875082303E+01  6.74836270660053E+01
(PID.TID 0000.0001)      cg2d_init_res =   1.35861304215240E-01
(PID.TID 0000.0001)      cg2d_iters(min,last) =      -1      10
(PID.TID 0000.0001)      cg2d_last_res =   7.68536646955178E-08
(PID.TID 0000.0001) // =======================================================
(PID.TID 0000.0001) // Begin MONITOR dynamic field statistics
(PID.TID 0000.0001) // =======================================================
(PID.TID 0000.0001) %MON time_tsnumber                =                 72050
(PID.TID 0000.0001) %MON time_secondsf                =   6.4845000000000E+07
(PID.TID 0000.0001) %MON dynstat_eta_max              =   3.0160160187142E+00
(PID.TID 0000.0001) %MON dynstat_eta_min              =  -1.5986751789382E+00
(PID.TID 0000.0001) %MON dynstat_eta_mean             =   2.6571959463922E-02
(PID.TID 0000.0001) %MON dynstat_eta_sd               =   6.1636657602852E-01
(PID.TID 0000.0001) %MON dynstat_eta_del2             =   2.4447203685487E-03
(PID.TID 0000.0001) %MON dynstat_uvel_max             =   3.2401400650574E-01
(PID.TID 0000.0001) %MON dynstat_uvel_min             =  -5.6265711466611E-01
(PID.TID 0000.0001) %MON dynstat_uvel_mean            =  -5.2210129573947E-04
(PID.TID 0000.0001) %MON dynstat_uvel_sd              =   1.2686534633734E-02
(PID.TID 0000.0001) %MON dynstat_uvel_del2            =   9.0865728559938E-05
(PID.TID 0000.0001) %MON dynstat_vvel_max             =   4.2039272975984E-01
(PID.TID 0000.0001) %MON dynstat_vvel_min             =  -4.9188618325634E-01
(PID.TID 0000.0001) %MON dynstat_vvel_mean            =   2.5936568623894E-04
(PID.TID 0000.0001) %MON dynstat_vvel_sd              =   1.3739202546988E-02
(PID.TID 0000.0001) %MON dynstat_vvel_del2            =   8.6002357536185E-05
(PID.TID 0000.0001) %MON dynstat_wvel_max             =   1.5488649556423E-04
(PID.TID 0000.0001) %MON dynstat_wvel_min             =  -1.9272327433359E-04
(PID.TID 0000.0001) %MON dynstat_wvel_mean            =  -2.3348753210522E-07
(PID.TID 0000.0001) %MON dynstat_wvel_sd              =   7.9177882465163E-06
(PID.TID 0000.0001) %MON dynstat_wvel_del2            =   7.6916289192265E-08
(PID.TID 0000.0001) %MON dynstat_theta_max            =   3.0924991893790E+01
(PID.TID 0000.0001) %MON dynstat_theta_min            =  -3.0044622894270E+00
(PID.TID 0000.0001) %MON dynstat_theta_mean           =   3.9091396941970E+00
(PID.TID 0000.0001) %MON dynstat_theta_sd             =   4.5714260235059E+00
(PID.TID 0000.0001) %MON dynstat_theta_del2           =   2.6429375794101E-03
(PID.TID 0000.0001) %MON dynstat_salt_max             =   4.1350856472660E+01
(PID.TID 0000.0001) %MON dynstat_salt_min             =   1.8518877872896E+01
(PID.TID 0000.0001) %MON dynstat_salt_mean            =   3.4771967301311E+01
(PID.TID 0000.0001) %MON dynstat_salt_sd              =   5.3180873012686E-01
(PID.TID 0000.0001) %MON dynstat_salt_del2            =   1.0248986229330E-03
(PID.TID 0000.0001) %MON dynstat_sst_max              =   3.0924991893790E+01
(PID.TID 0000.0001) %MON dynstat_sst_min              =  -1.8969769866367E+00
(PID.TID 0000.0001) %MON dynstat_sst_mean             =   1.8107763384858E+01
(PID.TID 0000.0001) %MON dynstat_sst_sd               =   9.8108111275775E+00
(PID.TID 0000.0001) %MON dynstat_sst_del2             =   1.5049286515742E-02
(PID.TID 0000.0001) %MON dynstat_sss_max              =   4.1350856472660E+01
(PID.TID 0000.0001) %MON dynstat_sss_min              =   1.8751711455881E+01
(PID.TID 0000.0001) %MON dynstat_sss_mean             =   3.4625479210464E+01
(PID.TID 0000.0001) %MON dynstat_sss_sd               =   1.4788039909094E+00
(PID.TID 0000.0001) %MON dynstat_sss_del2             =   1.1324794764345E-02
(PID.TID 0000.0001) %MON forcing_qnet_max             =   1.2614315372247E+04
(PID.TID 0000.0001) %MON forcing_qnet_min             =  -1.3546308480789E+03
(PID.TID 0000.0001) %MON forcing_qnet_mean            =   2.4055243747540E+01
(PID.TID 0000.0001) %MON forcing_qnet_sd              =   2.9190095211303E+02
(PID.TID 0000.0001) %MON forcing_qnet_del2            =   1.1514702468420E+01
(PID.TID 0000.0001) %MON forcing_qsw_max              =   0.0000000000000E+00
(PID.TID 0000.0001) %MON forcing_qsw_min              =  -1.0629706650938E+02
(PID.TID 0000.0001) %MON forcing_qsw_mean             =  -1.3146324899177E+01
(PID.TID 0000.0001) %MON forcing_qsw_sd               =   2.3121947710659E+01
(PID.TID 0000.0001) %MON forcing_qsw_del2             =   1.9360443872720E-01
(PID.TID 0000.0001) %MON forcing_empmr_max            =   6.6773816943169E-03
(PID.TID 0000.0001) %MON forcing_empmr_min            =  -9.5990650355816E-02
(PID.TID 0000.0001) %MON forcing_empmr_mean           =  -2.8869916525377E-04
(PID.TID 0000.0001) %MON forcing_empmr_sd             =   4.2308471102058E-03
(PID.TID 0000.0001) %MON forcing_empmr_del2           =   1.6694821962579E-04
(PID.TID 0000.0001) %MON forcing_fu_max               =   3.8384042498814E-01
(PID.TID 0000.0001) %MON forcing_fu_min               =  -3.6347399576063E-01
(PID.TID 0000.0001) %MON forcing_fu_mean              =  -3.3588141603439E-03
(PID.TID 0000.0001) %MON forcing_fu_sd                =   6.2277751368609E-02
(PID.TID 0000.0001) %MON forcing_fu_del2              =   6.1834549344299E-04
(PID.TID 0000.0001) %MON forcing_fv_max               =   3.2833628121357E-01
(PID.TID 0000.0001) %MON forcing_fv_min               =  -2.8969090965890E-01
(PID.TID 0000.0001) %MON forcing_fv_mean              =  -1.4759850427306E-02
(PID.TID 0000.0001) %MON forcing_fv_sd                =   6.3502247027261E-02
(PID.TID 0000.0001) %MON forcing_fv_del2              =   5.4416042462363E-04
(PID.TID 0000.0001) %MON trAdv_CFL_u_max              =   1.5997648570972E-03
(PID.TID 0000.0001) %MON trAdv_CFL_v_max              =   1.4779338883162E-03
(PID.TID 0000.0001) %MON trAdv_CFL_w_max              =   1.7612521277284E-03
(PID.TID 0000.0001) %MON advcfl_uvel_max              =   1.6005896182813E-03
(PID.TID 0000.0001) %MON advcfl_vvel_max              =   1.4381307005595E-03
(PID.TID 0000.0001) %MON advcfl_wvel_max              =   3.3388052297675E-03
(PID.TID 0000.0001) %MON advcfl_W_hf_max              =   1.9914080111320E-03
(PID.TID 0000.0001) %MON pe_b_mean                    =   5.0704432624394E-04
(PID.TID 0000.0001) %MON ke_max                       =   1.6985569232019E-01
(PID.TID 0000.0001) %MON ke_mean                      =   1.6167309032435E-04
(PID.TID 0000.0001) %MON ke_vol                       =   1.3398120231953E+18
(PID.TID 0000.0001) %MON vort_r_min                   =  -3.3605494913998E-06
(PID.TID 0000.0001) %MON vort_r_max                   =   2.4111598361802E-06
(PID.TID 0000.0001) %MON vort_a_mean                  =  -2.0549865324846E-05
(PID.TID 0000.0001) %MON vort_a_sd                    =   7.5259656767923E-05
(PID.TID 0000.0001) %MON vort_p_mean                  =  -2.4783296068210E-05
(PID.TID 0000.0001) %MON vort_p_sd                    =   1.2811901115584E-04
(PID.TID 0000.0001) %MON surfExpan_theta_mean         =  -6.5358869429255E-06
(PID.TID 0000.0001) %MON surfExpan_salt_mean          =   1.1645774607161E-06
(PID.TID 0000.0001) // =======================================================
(PID.TID 0000.0001) // End MONITOR dynamic field statistics
(PID.TID 0000.0001) // =======================================================
 cg2d: Sum(rhs),rhsMax =  -3.47979383181222E+01  6.63330229834249E+01
(PID.TID 0000.0001)      cg2d_init_res =   1.39115307238016E-01
(PID.TID 0000.0001)      cg2d_iters(min,last) =      -1      10
(PID.TID 0000.0001)      cg2d_last_res =   7.72792942637302E-08
(PID.TID 0000.0001) // =======================================================
(PID.TID 0000.0001) // Begin MONITOR dynamic field statistics
(PID.TID 0000.0001) // =======================================================
(PID.TID 0000.0001) %MON time_tsnumber                =                 72051
(PID.TID 0000.0001) %MON time_secondsf                =   6.4845900000000E+07
(PID.TID 0000.0001) %MON dynstat_eta_max              =   2.9543420509150E+00
(PID.TID 0000.0001) %MON dynstat_eta_min              =  -1.5968462631238E+00
(PID.TID 0000.0001) %MON dynstat_eta_mean             =   2.6821587372143E-02
(PID.TID 0000.0001) %MON dynstat_eta_sd               =   6.1596419104710E-01
(PID.TID 0000.0001) %MON dynstat_eta_del2             =   2.3967001300776E-03
(PID.TID 0000.0001) %MON dynstat_uvel_max             =   3.1160675525358E-01
(PID.TID 0000.0001) %MON dynstat_uvel_min             =  -5.6721368856641E-01
(PID.TID 0000.0001) %MON dynstat_uvel_mean            =  -5.1368672728124E-04
(PID.TID 0000.0001) %MON dynstat_uvel_sd              =   1.2679834519160E-02
(PID.TID 0000.0001) %MON dynstat_uvel_del2            =   9.1922384399342E-05
(PID.TID 0000.0001) %MON dynstat_vvel_max             =   4.5807596919861E-01
(PID.TID 0000.0001) %MON dynstat_vvel_min             =  -5.1964134565861E-01
(PID.TID 0000.0001) %MON dynstat_vvel_mean            =   3.0091074398228E-04
(PID.TID 0000.0001) %MON dynstat_vvel_sd              =   1.3770334212603E-02
(PID.TID 0000.0001) %MON dynstat_vvel_del2            =   8.6069567603489E-05
(PID.TID 0000.0001) %MON dynstat_wvel_max             =   1.5095270463806E-04
(PID.TID 0000.0001) %MON dynstat_wvel_min             =  -1.9233420365897E-04
(PID.TID 0000.0001) %MON dynstat_wvel_mean            =  -2.5671756252137E-07
(PID.TID 0000.0001) %MON dynstat_wvel_sd              =   7.9489892790730E-06
(PID.TID 0000.0001) %MON dynstat_wvel_del2            =   7.7324386981101E-08
(PID.TID 0000.0001) %MON dynstat_theta_max            =   3.0924991038389E+01
(PID.TID 0000.0001) %MON dynstat_theta_min            =  -3.0046173533058E+00
(PID.TID 0000.0001) %MON dynstat_theta_mean           =   3.9091401351875E+00
(PID.TID 0000.0001) %MON dynstat_theta_sd             =   4.5714277762546E+00
(PID.TID 0000.0001) %MON dynstat_theta_del2           =   2.6428113353446E-03
(PID.TID 0000.0001) %MON dynstat_salt_max             =   4.1350529494252E+01
(PID.TID 0000.0001) %MON dynstat_salt_min             =   1.8518888222401E+01
(PID.TID 0000.0001) %MON dynstat_salt_mean            =   3.4771964612400E+01
(PID.TID 0000.0001) %MON dynstat_salt_sd              =   5.3182525026892E-01
(PID.TID 0000.0001) %MON dynstat_salt_del2            =   1.0291325695502E-03
(PID.TID 0000.0001) %MON dynstat_sst_max              =   3.0924991038389E+01
(PID.TID 0000.0001) %MON dynstat_sst_min              =  -1.8970081074424E+00
(PID.TID 0000.0001) %MON dynstat_sst_mean             =   1.8107701453270E+01
(PID.TID 0000.0001) %MON dynstat_sst_sd               =   9.8108912670515E+00
(PID.TID 0000.0001) %MON dynstat_sst_del2             =   1.5047090489072E-02
(PID.TID 0000.0001) %MON dynstat_sss_max              =   4.1350529494252E+01
(PID.TID 0000.0001) %MON dynstat_sss_min              =   1.8751756471385E+01
(PID.TID 0000.0001) %MON dynstat_sss_mean             =   3.4625289854494E+01
(PID.TID 0000.0001) %MON dynstat_sss_sd               =   1.4792200587828E+00
(PID.TID 0000.0001) %MON dynstat_sss_del2             =   1.1385232171529E-02
(PID.TID 0000.0001) %MON forcing_qnet_max             =   7.2356850042664E+03
(PID.TID 0000.0001) %MON forcing_qnet_min             =  -1.3353711876150E+03
(PID.TID 0000.0001) %MON forcing_qnet_mean            =   2.0381155150248E+01
(PID.TID 0000.0001) %MON forcing_qnet_sd              =   2.2613002587931E+02
(PID.TID 0000.0001) %MON forcing_qnet_del2            =   6.6802776196789E+00
(PID.TID 0000.0001) %MON forcing_qsw_max              =   0.0000000000000E+00
(PID.TID 0000.0001) %MON forcing_qsw_min              =  -1.0455925773699E+02
(PID.TID 0000.0001) %MON forcing_qsw_mean             =  -1.3234038207488E+01
(PID.TID 0000.0001) %MON forcing_qsw_sd               =   2.3010999728818E+01
(PID.TID 0000.0001) %MON forcing_qsw_del2             =   1.9384271835277E-01
(PID.TID 0000.0001) %MON forcing_empmr_max            =   6.6084996797144E-03
(PID.TID 0000.0001) %MON forcing_empmr_min            =  -9.5001369714737E-02
(PID.TID 0000.0001) %MON forcing_empmr_mean           =  -2.8707209445374E-04
(PID.TID 0000.0001) %MON forcing_empmr_sd             =   4.1892660026956E-03
(PID.TID 0000.0001) %MON forcing_empmr_del2           =   1.6528561868331E-04
(PID.TID 0000.0001) %MON forcing_fu_max               =   3.8091454283186E-01
(PID.TID 0000.0001) %MON forcing_fu_min               =  -3.6167009174489E-01
(PID.TID 0000.0001) %MON forcing_fu_mean              =  -3.3258019908397E-03
(PID.TID 0000.0001) %MON forcing_fu_sd                =   6.2119749211476E-02
(PID.TID 0000.0001) %MON forcing_fu_del2              =   6.1739117112271E-04
(PID.TID 0000.0001) %MON forcing_fv_max               =   3.2751896448281E-01
(PID.TID 0000.0001) %MON forcing_fv_min               =  -2.8907068346815E-01
(PID.TID 0000.0001) %MON forcing_fv_mean              =  -1.4817677733255E-02
(PID.TID 0000.0001) %MON forcing_fv_sd                =   6.3348360541006E-02
(PID.TID 0000.0001) %MON forcing_fv_del2              =   5.4361837745279E-04
(PID.TID 0000.0001) %MON trAdv_CFL_u_max              =   1.6493528471731E-03
(PID.TID 0000.0001) %MON trAdv_CFL_v_max              =   1.5646004073636E-03
(PID.TID 0000.0001) %MON trAdv_CFL_w_max              =   1.8041695099530E-03
(PID.TID 0000.0001) %MON advcfl_uvel_max              =   1.6483281714613E-03
(PID.TID 0000.0001) %MON advcfl_vvel_max              =   1.5192786419095E-03
(PID.TID 0000.0001) %MON advcfl_wvel_max              =   3.3043954683387E-03
(PID.TID 0000.0001) %MON advcfl_W_hf_max              =   1.9408275089019E-03
(PID.TID 0000.0001) %MON pe_b_mean                    =   5.0640146003245E-04
(PID.TID 0000.0001) %MON ke_max                       =   1.8004354893884E-01
(PID.TID 0000.0001) %MON ke_mean                      =   1.6199920082953E-04
(PID.TID 0000.0001) %MON ke_vol                       =   1.3398121145464E+18
(PID.TID 0000.0001) %MON vort_r_min                   =  -3.5153359307630E-06
(PID.TID 0000.0001) %MON vort_r_max                   =   2.4663802182772E-06
(PID.TID 0000.0001) %MON vort_a_mean                  =  -2.0549865324846E-05
(PID.TID 0000.0001) %MON vort_a_sd                    =   7.5259667123464E-05
(PID.TID 0000.0001) %MON vort_p_mean                  =  -2.4783294173053E-05
(PID.TID 0000.0001) %MON vort_p_sd                    =   1.2811899640649E-04
(PID.TID 0000.0001) %MON surfExpan_theta_mean         =  -6.6593473735126E-06
(PID.TID 0000.0001) %MON surfExpan_salt_mean          =   1.1948461709885E-06
(PID.TID 0000.0001) // =======================================================
(PID.TID 0000.0001) // End MONITOR dynamic field statistics
(PID.TID 0000.0001) // =======================================================
 Computing Diagnostic #     81  oceTAUX      Counter:       1   Parms: UU      U1      
           Vector  Mate for  oceTAUX      Diagnostic #     82  oceTAUY  exists 
 Computing Diagnostic #     82  oceTAUY      Counter:       1   Parms: VV      U1      
           Vector  Mate for  oceTAUY      Diagnostic #     81  oceTAUX  exists 
 Computing Diagnostic #     85  oceFWflx     Counter:       1   Parms: SM      U1      
 Computing Diagnostic #     86  oceSflux     Counter:       1   Parms: SM      U1      
 Computing Diagnostic #     87  oceQnet      Counter:       1   Parms: SM      U1      
 Computing Diagnostic #     88  oceQsw       Counter:       1   Parms: SM      U1      
 Computing Diagnostic #     27  SALT         Counter:       1   Parms: SMR     MR      
 Computing Diagnostic #     26  THETA        Counter:       1   Parms: SMR     MR      
 Computing Diagnostic #     45  UVELMASS     Counter:       1   Parms: UUr     MR      
           Vector  Mate for  UVELMASS     Diagnostic #     46  VVELMASS exists 
 Computing Diagnostic #     46  VVELMASS     Counter:       1   Parms: VVr     MR      
           Vector  Mate for  VVELMASS     Diagnostic #     45  UVELMASS exists 
 cg2d: Sum(rhs),rhsMax =  -3.59367327123303E+01  6.48249766879123E+01
(PID.TID 0000.0001)      cg2d_init_res =   1.45137867645209E-01
(PID.TID 0000.0001)      cg2d_iters(min,last) =      -1      10
(PID.TID 0000.0001)      cg2d_last_res =   7.79107068326796E-08
(PID.TID 0000.0001) // =======================================================
(PID.TID 0000.0001) // Begin MONITOR dynamic field statistics
(PID.TID 0000.0001) // =======================================================
(PID.TID 0000.0001) %MON time_tsnumber                =                 72052
(PID.TID 0000.0001) %MON time_secondsf                =   6.4846800000000E+07
(PID.TID 0000.0001) %MON dynstat_eta_max              =   2.8871981349458E+00
(PID.TID 0000.0001) %MON dynstat_eta_min              =  -1.5951007513581E+00
(PID.TID 0000.0001) %MON dynstat_eta_mean             =   2.7069618300511E-02
(PID.TID 0000.0001) %MON dynstat_eta_sd               =   6.1551232069070E-01
(PID.TID 0000.0001) %MON dynstat_eta_del2             =   2.3305233652483E-03
(PID.TID 0000.0001) %MON dynstat_uvel_max             =   2.9777126766289E-01
(PID.TID 0000.0001) %MON dynstat_uvel_min             =  -5.8787645729779E-01
(PID.TID 0000.0001) %MON dynstat_uvel_mean            =  -5.0280429161030E-04
(PID.TID 0000.0001) %MON dynstat_uvel_sd              =   1.2683013470810E-02
(PID.TID 0000.0001) %MON dynstat_uvel_del2            =   9.2997629477168E-05
(PID.TID 0000.0001) %MON dynstat_vvel_max             =   4.8845663775590E-01
(PID.TID 0000.0001) %MON dynstat_vvel_min             =  -5.4550012865709E-01
(PID.TID 0000.0001) %MON dynstat_vvel_mean            =   3.3946641546472E-04
(PID.TID 0000.0001) %MON dynstat_vvel_sd              =   1.3801549098786E-02
(PID.TID 0000.0001) %MON dynstat_vvel_del2            =   8.6892954126865E-05
(PID.TID 0000.0001) %MON dynstat_wvel_max             =   1.4736221726910E-04
(PID.TID 0000.0001) %MON dynstat_wvel_min             =  -1.9209323212739E-04
(PID.TID 0000.0001) %MON dynstat_wvel_mean            =  -2.7728842208806E-07
(PID.TID 0000.0001) %MON dynstat_wvel_sd              =   7.9825607920308E-06
(PID.TID 0000.0001) %MON dynstat_wvel_del2            =   7.7673643422310E-08
(PID.TID 0000.0001) %MON dynstat_theta_max            =   3.0924977689816E+01
(PID.TID 0000.0001) %MON dynstat_theta_min            =  -3.0048012164850E+00
(PID.TID 0000.0001) %MON dynstat_theta_mean           =   3.9091407220637E+00
(PID.TID 0000.0001) %MON dynstat_theta_sd             =   4.5714297123951E+00
(PID.TID 0000.0001) %MON dynstat_theta_del2           =   2.6426478345112E-03
(PID.TID 0000.0001) %MON dynstat_salt_max             =   4.1350213997519E+01
(PID.TID 0000.0001) %MON dynstat_salt_min             =   1.8518898557026E+01
(PID.TID 0000.0001) %MON dynstat_salt_mean            =   3.4771961990252E+01
(PID.TID 0000.0001) %MON dynstat_salt_sd              =   5.3184159527466E-01
(PID.TID 0000.0001) %MON dynstat_salt_del2            =   1.0332879029868E-03
(PID.TID 0000.0001) %MON dynstat_sst_max              =   3.0924977689816E+01
(PID.TID 0000.0001) %MON dynstat_sst_min              =  -1.8970552306649E+00
(PID.TID 0000.0001) %MON dynstat_sst_mean             =   1.8107654109979E+01
(PID.TID 0000.0001) %MON dynstat_sst_sd               =   9.8109627984285E+00
(PID.TID 0000.0001) %MON dynstat_sst_del2             =   1.5044188128609E-02
(PID.TID 0000.0001) %MON dynstat_sss_max              =   4.1350213997519E+01
(PID.TID 0000.0001) %MON dynstat_sss_min              =   1.8751792028089E+01
(PID.TID 0000.0001) %MON dynstat_sss_mean             =   3.4625106021695E+01
(PID.TID 0000.0001) %MON dynstat_sss_sd               =   1.4796342276570E+00
(PID.TID 0000.0001) %MON dynstat_sss_del2             =   1.1444500266491E-02
(PID.TID 0000.0001) %MON forcing_qnet_max             =   2.1422119140625E+03
(PID.TID 0000.0001) %MON forcing_qnet_min             =  -3.2088818359375E+03
(PID.TID 0000.0001) %MON forcing_qnet_mean            =   1.7639177413041E+01
(PID.TID 0000.0001) %MON forcing_qnet_sd              =   1.9879135932779E+02
(PID.TID 0000.0001) %MON forcing_qnet_del2            =   4.5719595072971E+00
(PID.TID 0000.0001) %MON forcing_qsw_max              =   0.0000000000000E+00
(PID.TID 0000.0001) %MON forcing_qsw_min              =  -1.0238871644469E+02
(PID.TID 0000.0001) %MON forcing_qsw_mean             =  -1.3287481288188E+01
(PID.TID 0000.0001) %MON forcing_qsw_sd               =   2.2892269948458E+01
(PID.TID 0000.0001) %MON forcing_qsw_del2             =   1.9380726337161E-01
(PID.TID 0000.0001) %MON forcing_empmr_max            =   6.5404041670263E-03
(PID.TID 0000.0001) %MON forcing_empmr_min            =  -9.4022996723652E-02
(PID.TID 0000.0001) %MON forcing_empmr_mean           =  -2.8523556762341E-04
(PID.TID 0000.0001) %MON forcing_empmr_sd             =   4.1490514237868E-03
(PID.TID 0000.0001) %MON forcing_empmr_del2           =   1.6367128253977E-04
(PID.TID 0000.0001) %MON forcing_fu_max               =   3.8443631085097E-01
(PID.TID 0000.0001) %MON forcing_fu_min               =  -3.5933988880558E-01
(PID.TID 0000.0001) %MON forcing_fu_mean              =  -3.2500205015845E-03
(PID.TID 0000.0001) %MON forcing_fu_sd                =   6.2227827207613E-02
(PID.TID 0000.0001) %MON forcing_fu_del2              =   6.1826510577066E-04
(PID.TID 0000.0001) %MON forcing_fv_max               =   3.2508316198150E-01
(PID.TID 0000.0001) %MON forcing_fv_min               =  -2.8808999068307E-01
(PID.TID 0000.0001) %MON forcing_fv_mean              =  -1.4873453662314E-02
(PID.TID 0000.0001) %MON forcing_fv_sd                =   6.3203578706569E-02
(PID.TID 0000.0001) %MON forcing_fv_del2              =   5.4271445409443E-04
(PID.TID 0000.0001) %MON trAdv_CFL_u_max              =   1.7094826705033E-03
(PID.TID 0000.0001) %MON trAdv_CFL_v_max              =   1.6332138184372E-03
(PID.TID 0000.0001) %MON trAdv_CFL_w_max              =   1.8391840496018E-03
(PID.TID 0000.0001) %MON advcfl_uvel_max              =   1.7083743665494E-03
(PID.TID 0000.0001) %MON advcfl_vvel_max              =   1.5948821269739E-03
(PID.TID 0000.0001) %MON advcfl_wvel_max              =   3.2703651034314E-03
(PID.TID 0000.0001) %MON advcfl_W_hf_max              =   1.8946620947832E-03
(PID.TID 0000.0001) %MON pe_b_mean                    =   5.0567792001586E-04
(PID.TID 0000.0001) %MON ke_max                       =   1.8987668269562E-01
(PID.TID 0000.0001) %MON ke_mean                      =   1.6244197655704E-04
(PID.TID 0000.0001) %MON ke_vol                       =   1.3398122053827E+18
(PID.TID 0000.0001) %MON vort_r_min                   =  -3.6657347501323E-06
(PID.TID 0000.0001) %MON vort_r_max                   =   2.5102430865487E-06
(PID.TID 0000.0001) %MON vort_a_mean                  =  -2.0549865324846E-05
(PID.TID 0000.0001) %MON vort_a_sd                    =   7.5259676901427E-05
(PID.TID 0000.0001) %MON vort_p_mean                  =  -2.4783292222810E-05
(PID.TID 0000.0001) %MON vort_p_sd                    =   1.2811898417785E-04
(PID.TID 0000.0001) %MON surfExpan_theta_mean         =  -6.7739670027376E-06
(PID.TID 0000.0001) %MON surfExpan_salt_mean          =   1.2238024228600E-06
(PID.TID 0000.0001) // =======================================================
(PID.TID 0000.0001) // End MONITOR dynamic field statistics
(PID.TID 0000.0001) // =======================================================
 cg2d: Sum(rhs),rhsMax =  -3.73307112372752E+01  6.29720625721871E+01
(PID.TID 0000.0001)      cg2d_init_res =   1.53584171786441E-01
(PID.TID 0000.0001)      cg2d_iters(min,last) =      -1      10
(PID.TID 0000.0001)      cg2d_last_res =   7.87482688137348E-08
(PID.TID 0000.0001) // =======================================================
(PID.TID 0000.0001) // Begin MONITOR dynamic field statistics
(PID.TID 0000.0001) // =======================================================
(PID.TID 0000.0001) %MON time_tsnumber                =                 72053
(PID.TID 0000.0001) %MON time_secondsf                =   6.4847700000000E+07
(PID.TID 0000.0001) %MON dynstat_eta_max              =   2.8047378196992E+00
(PID.TID 0000.0001) %MON dynstat_eta_min              =  -1.5934906864252E+00
(PID.TID 0000.0001) %MON dynstat_eta_mean             =   2.7315890044821E-02
(PID.TID 0000.0001) %MON dynstat_eta_sd               =   6.1502402626470E-01
(PID.TID 0000.0001) %MON dynstat_eta_del2             =   2.2483296451385E-03
(PID.TID 0000.0001) %MON dynstat_uvel_max             =   3.4858705049388E-01
(PID.TID 0000.0001) %MON dynstat_uvel_min             =  -6.0897074003782E-01
(PID.TID 0000.0001) %MON dynstat_uvel_mean            =  -4.8975915963313E-04
(PID.TID 0000.0001) %MON dynstat_uvel_sd              =   1.2695599996418E-02
(PID.TID 0000.0001) %MON dynstat_uvel_del2            =   9.4048018566399E-05
(PID.TID 0000.0001) %MON dynstat_vvel_max             =   5.3507689324271E-01
(PID.TID 0000.0001) %MON dynstat_vvel_min             =  -5.6920093300335E-01
(PID.TID 0000.0001) %MON dynstat_vvel_mean            =   3.7481433141049E-04
(PID.TID 0000.0001) %MON dynstat_vvel_sd              =   1.3831009041039E-02
(PID.TID 0000.0001) %MON dynstat_vvel_del2            =   8.8331997694258E-05
(PID.TID 0000.0001) %MON dynstat_wvel_max             =   1.4399731122010E-04
(PID.TID 0000.0001) %MON dynstat_wvel_min             =  -1.9188498970134E-04
(PID.TID 0000.0001) %MON dynstat_wvel_mean            =  -2.9469860320877E-07
(PID.TID 0000.0001) %MON dynstat_wvel_sd              =   8.0158337531746E-06
(PID.TID 0000.0001) %MON dynstat_wvel_del2            =   7.7934729951560E-08
(PID.TID 0000.0001) %MON dynstat_theta_max            =   3.0924949063634E+01
(PID.TID 0000.0001) %MON dynstat_theta_min            =  -3.0050082564507E+00
(PID.TID 0000.0001) %MON dynstat_theta_mean           =   3.9091414969346E+00
(PID.TID 0000.0001) %MON dynstat_theta_sd             =   4.5714322224645E+00
(PID.TID 0000.0001) %MON dynstat_theta_del2           =   2.6424978843524E-03
(PID.TID 0000.0001) %MON dynstat_salt_max             =   4.1349911918224E+01
(PID.TID 0000.0001) %MON dynstat_salt_min             =   1.8518908879380E+01
(PID.TID 0000.0001) %MON dynstat_salt_mean            =   3.4771959420479E+01
(PID.TID 0000.0001) %MON dynstat_salt_sd              =   5.3185772311834E-01
(PID.TID 0000.0001) %MON dynstat_salt_del2            =   1.0373774225468E-03
(PID.TID 0000.0001) %MON dynstat_sst_max              =   3.0924949063634E+01
(PID.TID 0000.0001) %MON dynstat_sst_min              =  -1.8971189274810E+00
(PID.TID 0000.0001) %MON dynstat_sst_mean             =   1.8107616219352E+01
(PID.TID 0000.0001) %MON dynstat_sst_sd               =   9.8110336186243E+00
(PID.TID 0000.0001) %MON dynstat_sst_del2             =   1.5041427298221E-02
(PID.TID 0000.0001) %MON dynstat_sss_max              =   4.1349911918224E+01
(PID.TID 0000.0001) %MON dynstat_sss_min              =   1.8751825002898E+01
(PID.TID 0000.0001) %MON dynstat_sss_mean             =   3.4624923848605E+01
(PID.TID 0000.0001) %MON dynstat_sss_sd               =   1.4800414541197E+00
(PID.TID 0000.0001) %MON dynstat_sss_del2             =   1.1502758277191E-02
(PID.TID 0000.0001) %MON forcing_qnet_max             =   2.1168750000000E+03
(PID.TID 0000.0001) %MON forcing_qnet_min             =  -1.2989315185547E+03
(PID.TID 0000.0001) %MON forcing_qnet_mean            =   1.4106715289478E+01
(PID.TID 0000.0001) %MON forcing_qnet_sd              =   1.9750836737804E+02
(PID.TID 0000.0001) %MON forcing_qnet_del2            =   4.0507440107362E+00
(PID.TID 0000.0001) %MON forcing_qsw_max              =   0.0000000000000E+00
(PID.TID 0000.0001) %MON forcing_qsw_min              =  -9.7221757271547E+01
(PID.TID 0000.0001) %MON forcing_qsw_mean             =  -1.3646533433973E+01
(PID.TID 0000.0001) %MON forcing_qsw_sd               =   2.3001474549232E+01
(PID.TID 0000.0001) %MON forcing_qsw_del2             =   1.9333752387636E-01
(PID.TID 0000.0001) %MON forcing_empmr_max            =   6.4729973673820E-03
(PID.TID 0000.0001) %MON forcing_empmr_min            =  -9.3054689466953E-02
(PID.TID 0000.0001) %MON forcing_empmr_mean           =  -2.8321250595628E-04
(PID.TID 0000.0001) %MON forcing_empmr_sd             =   4.1113096656239E-03
(PID.TID 0000.0001) %MON forcing_empmr_del2           =   1.6213778931990E-04
(PID.TID 0000.0001) %MON forcing_fu_max               =   3.8876397605618E-01
(PID.TID 0000.0001) %MON forcing_fu_min               =  -3.5577148552044E-01
(PID.TID 0000.0001) %MON forcing_fu_mean              =  -3.1862993464386E-03
(PID.TID 0000.0001) %MON forcing_fu_sd                =   6.2328300878790E-02
(PID.TID 0000.0001) %MON forcing_fu_del2              =   6.1921315046220E-04
(PID.TID 0000.0001) %MON forcing_fv_max               =   3.2360730136218E-01
(PID.TID 0000.0001) %MON forcing_fv_min               =  -2.8697900781787E-01
(PID.TID 0000.0001) %MON forcing_fv_mean              =  -1.4956256514777E-02
(PID.TID 0000.0001) %MON forcing_fv_sd                =   6.3069538270573E-02
(PID.TID 0000.0001) %MON forcing_fv_del2              =   5.4177210603511E-04
(PID.TID 0000.0001) %MON trAdv_CFL_u_max              =   1.7709277681331E-03
(PID.TID 0000.0001) %MON trAdv_CFL_v_max              =   1.7632172511059E-03
(PID.TID 0000.0001) %MON trAdv_CFL_w_max              =   1.8662034481033E-03
(PID.TID 0000.0001) %MON advcfl_uvel_max              =   1.7696745452969E-03
(PID.TID 0000.0001) %MON advcfl_vvel_max              =   1.7461510827802E-03
(PID.TID 0000.0001) %MON advcfl_wvel_max              =   3.2366848510245E-03
(PID.TID 0000.0001) %MON advcfl_W_hf_max              =   1.8662034481033E-03
(PID.TID 0000.0001) %MON pe_b_mean                    =   5.0489527253653E-04
(PID.TID 0000.0001) %MON ke_max                       =   1.9936440161701E-01
(PID.TID 0000.0001) %MON ke_mean                      =   1.6297223065383E-04
(PID.TID 0000.0001) %MON ke_vol                       =   1.3398122956378E+18
(PID.TID 0000.0001) %MON vort_r_min                   =  -3.8105756368705E-06
(PID.TID 0000.0001) %MON vort_r_max                   =   2.5433871231844E-06
(PID.TID 0000.0001) %MON vort_a_mean                  =  -2.0549865324846E-05
(PID.TID 0000.0001) %MON vort_a_sd                    =   7.5259686052355E-05
(PID.TID 0000.0001) %MON vort_p_mean                  =  -2.4783290224413E-05
(PID.TID 0000.0001) %MON vort_p_sd                    =   1.2811897496400E-04
(PID.TID 0000.0001) %MON surfExpan_theta_mean         =  -6.8710585975053E-06
(PID.TID 0000.0001) %MON surfExpan_salt_mean          =   1.2496121592693E-06
(PID.TID 0000.0001) // =======================================================
(PID.TID 0000.0001) // End MONITOR dynamic field statistics
(PID.TID 0000.0001) // =======================================================
 cg2d: Sum(rhs),rhsMax =  -3.90185637530823E+01  6.07907282421826E+01
(PID.TID 0000.0001)      cg2d_init_res =   1.64104651949016E-01
(PID.TID 0000.0001)      cg2d_iters(min,last) =      -1      10
(PID.TID 0000.0001)      cg2d_last_res =   7.95880804223608E-08
(PID.TID 0000.0001) // =======================================================
(PID.TID 0000.0001) // Begin MONITOR dynamic field statistics
(PID.TID 0000.0001) // =======================================================
(PID.TID 0000.0001) %MON time_tsnumber                =                 72054
(PID.TID 0000.0001) %MON time_secondsf                =   6.4848600000000E+07
(PID.TID 0000.0001) %MON dynstat_eta_max              =   2.7076890040954E+00
(PID.TID 0000.0001) %MON dynstat_eta_min              =  -1.5920405957309E+00
(PID.TID 0000.0001) %MON dynstat_eta_mean             =   2.7561940988811E-02
(PID.TID 0000.0001) %MON dynstat_eta_sd               =   6.1451513034746E-01
(PID.TID 0000.0001) %MON dynstat_eta_del2             =   2.1528414109741E-03
(PID.TID 0000.0001) %MON dynstat_uvel_max             =   4.3165737937345E-01
(PID.TID 0000.0001) %MON dynstat_uvel_min             =  -6.3035388609414E-01
(PID.TID 0000.0001) %MON dynstat_uvel_mean            =  -4.7492561243822E-04
(PID.TID 0000.0001) %MON dynstat_uvel_sd              =   1.2716872131087E-02
(PID.TID 0000.0001) %MON dynstat_uvel_del2            =   9.5034381528568E-05
(PID.TID 0000.0001) %MON dynstat_vvel_max             =   5.9286022253654E-01
(PID.TID 0000.0001) %MON dynstat_vvel_min             =  -5.9050815540134E-01
(PID.TID 0000.0001) %MON dynstat_vvel_mean            =   4.0683812965185E-04
(PID.TID 0000.0001) %MON dynstat_vvel_sd              =   1.3857053230570E-02
(PID.TID 0000.0001) %MON dynstat_vvel_del2            =   9.0210764728559E-05
(PID.TID 0000.0001) %MON dynstat_wvel_max             =   1.4072404887880E-04
(PID.TID 0000.0001) %MON dynstat_wvel_min             =  -1.9170983975059E-04
(PID.TID 0000.0001) %MON dynstat_wvel_mean            =  -3.0955080783106E-07
(PID.TID 0000.0001) %MON dynstat_wvel_sd              =   8.0448225638687E-06
(PID.TID 0000.0001) %MON dynstat_wvel_del2            =   7.8088535181083E-08
(PID.TID 0000.0001) %MON dynstat_theta_max            =   3.0924913114975E+01
(PID.TID 0000.0001) %MON dynstat_theta_min            =  -3.0052321343285E+00
(PID.TID 0000.0001) %MON dynstat_theta_mean           =   3.9091423264875E+00
(PID.TID 0000.0001) %MON dynstat_theta_sd             =   4.5714348617829E+00
(PID.TID 0000.0001) %MON dynstat_theta_del2           =   2.6423478113770E-03
(PID.TID 0000.0001) %MON dynstat_salt_max             =   4.1349624611712E+01
(PID.TID 0000.0001) %MON dynstat_salt_min             =   1.8518919191946E+01
(PID.TID 0000.0001) %MON dynstat_salt_mean            =   3.4771956880075E+01
(PID.TID 0000.0001) %MON dynstat_salt_sd              =   5.3187364377426E-01
(PID.TID 0000.0001) %MON dynstat_salt_del2            =   1.0413964848618E-03
(PID.TID 0000.0001) %MON dynstat_sst_max              =   3.0924913114975E+01
(PID.TID 0000.0001) %MON dynstat_sst_min              =  -1.8971972622316E+00
(PID.TID 0000.0001) %MON dynstat_sst_mean             =   1.8107581202162E+01
(PID.TID 0000.0001) %MON dynstat_sst_sd               =   9.8111033241943E+00
(PID.TID 0000.0001) %MON dynstat_sst_del2             =   1.5038653943205E-02
(PID.TID 0000.0001) %MON dynstat_sss_max              =   4.1349624611712E+01
(PID.TID 0000.0001) %MON dynstat_sss_min              =   1.8751856063650E+01
(PID.TID 0000.0001) %MON dynstat_sss_mean             =   3.4624742908889E+01
(PID.TID 0000.0001) %MON dynstat_sss_sd               =   1.4804437028829E+00
(PID.TID 0000.0001) %MON dynstat_sss_del2             =   1.1559957028549E-02
(PID.TID 0000.0001) %MON forcing_qnet_max             =   2.0929677734375E+03
(PID.TID 0000.0001) %MON forcing_qnet_min             =  -1.2805111083984E+03
(PID.TID 0000.0001) %MON forcing_qnet_mean            =   1.3027626990686E+01
(PID.TID 0000.0001) %MON forcing_qnet_sd              =   1.9882429880451E+02
(PID.TID 0000.0001) %MON forcing_qnet_del2            =   4.1356649099685E+00
(PID.TID 0000.0001) %MON forcing_qsw_max              =   0.0000000000000E+00
(PID.TID 0000.0001) %MON forcing_qsw_min              =  -9.8598129086424E+01
(PID.TID 0000.0001) %MON forcing_qsw_mean             =  -1.3796193184648E+01
(PID.TID 0000.0001) %MON forcing_qsw_sd               =   2.3111451268193E+01
(PID.TID 0000.0001) %MON forcing_qsw_del2             =   1.9422871777687E-01
(PID.TID 0000.0001) %MON forcing_empmr_max            =   6.4062797464430E-03
(PID.TID 0000.0001) %MON forcing_empmr_min            =  -9.2095613479614E-02
(PID.TID 0000.0001) %MON forcing_empmr_mean           =  -2.8295858558894E-04
(PID.TID 0000.0001) %MON forcing_empmr_sd             =   4.0791897827734E-03
(PID.TID 0000.0001) %MON forcing_empmr_del2           =   1.6079733748324E-04
(PID.TID 0000.0001) %MON forcing_fu_max               =   3.9099122534296E-01
(PID.TID 0000.0001) %MON forcing_fu_min               =  -3.5153907800564E-01
(PID.TID 0000.0001) %MON forcing_fu_mean              =  -3.2505794276663E-03
(PID.TID 0000.0001) %MON forcing_fu_sd                =   6.2871712148892E-02
(PID.TID 0000.0001) %MON forcing_fu_del2              =   6.2568553925203E-04
(PID.TID 0000.0001) %MON forcing_fv_max               =   3.2233878678346E-01
(PID.TID 0000.0001) %MON forcing_fv_min               =  -2.8574171167282E-01
(PID.TID 0000.0001) %MON forcing_fv_mean              =  -1.4992518276454E-02
(PID.TID 0000.0001) %MON forcing_fv_sd                =   6.2954031872355E-02
(PID.TID 0000.0001) %MON forcing_fv_del2              =   5.4126964729467E-04
(PID.TID 0000.0001) %MON trAdv_CFL_u_max              =   1.8332997237524E-03
(PID.TID 0000.0001) %MON trAdv_CFL_v_max              =   1.9559778726872E-03
(PID.TID 0000.0001) %MON trAdv_CFL_w_max              =   1.8852539997415E-03
(PID.TID 0000.0001) %MON advcfl_uvel_max              =   1.8318141634860E-03
(PID.TID 0000.0001) %MON advcfl_vvel_max              =   1.9347191639052E-03
(PID.TID 0000.0001) %MON advcfl_wvel_max              =   3.2033256862475E-03
(PID.TID 0000.0001) %MON advcfl_W_hf_max              =   1.8852539997415E-03
(PID.TID 0000.0001) %MON pe_b_mean                    =   5.0407967500349E-04
(PID.TID 0000.0001) %MON ke_max                       =   2.0851608001580E-01
(PID.TID 0000.0001) %MON ke_mean                      =   1.6356023249309E-04
(PID.TID 0000.0001) %MON ke_vol                       =   1.3398123852529E+18
(PID.TID 0000.0001) %MON vort_r_min                   =  -3.9486362371809E-06
(PID.TID 0000.0001) %MON vort_r_max                   =   2.5665079581619E-06
(PID.TID 0000.0001) %MON vort_a_mean                  =  -2.0549865324846E-05
(PID.TID 0000.0001) %MON vort_a_sd                    =   7.5259694550460E-05
(PID.TID 0000.0001) %MON vort_p_mean                  =  -2.4783288187105E-05
(PID.TID 0000.0001) %MON vort_p_sd                    =   1.2811896912388E-04
(PID.TID 0000.0001) %MON surfExpan_theta_mean         =  -6.9845359996302E-06
(PID.TID 0000.0001) %MON surfExpan_salt_mean          =   1.2724580581539E-06
(PID.TID 0000.0001) // =======================================================
(PID.TID 0000.0001) // End MONITOR dynamic field statistics
(PID.TID 0000.0001) // =======================================================
 cg2d: Sum(rhs),rhsMax =  -4.10501186708063E+01  5.83010129951538E+01
(PID.TID 0000.0001)      cg2d_init_res =   1.76509860232438E-01
(PID.TID 0000.0001)      cg2d_iters(min,last) =      -1      10
(PID.TID 0000.0001)      cg2d_last_res =   8.01228014901388E-08
(PID.TID 0000.0001) // =======================================================
(PID.TID 0000.0001) // Begin MONITOR dynamic field statistics
(PID.TID 0000.0001) // =======================================================
(PID.TID 0000.0001) %MON time_tsnumber                =                 72055
(PID.TID 0000.0001) %MON time_secondsf                =   6.4849500000000E+07
(PID.TID 0000.0001) %MON dynstat_eta_max              =   2.5969389435702E+00
(PID.TID 0000.0001) %MON dynstat_eta_min              =  -1.5907443203457E+00
(PID.TID 0000.0001) %MON dynstat_eta_mean             =   2.7809404617597E-02
(PID.TID 0000.0001) %MON dynstat_eta_sd               =   6.1400020720054E-01
(PID.TID 0000.0001) %MON dynstat_eta_del2             =   2.0473396173796E-03
(PID.TID 0000.0001) %MON dynstat_uvel_max             =   5.0575871597782E-01
(PID.TID 0000.0001) %MON dynstat_uvel_min             =  -6.5184222533844E-01
(PID.TID 0000.0001) %MON dynstat_uvel_mean            =  -4.5860140514649E-04
(PID.TID 0000.0001) %MON dynstat_uvel_sd              =   1.2745513784065E-02
(PID.TID 0000.0001) %MON dynstat_uvel_del2            =   9.5920657959908E-05
(PID.TID 0000.0001) %MON dynstat_vvel_max             =   6.3856028209130E-01
(PID.TID 0000.0001) %MON dynstat_vvel_min             =  -6.0920005379034E-01
(PID.TID 0000.0001) %MON dynstat_vvel_mean            =   4.3549865707282E-04
(PID.TID 0000.0001) %MON dynstat_vvel_sd              =   1.3878290241751E-02
(PID.TID 0000.0001) %MON dynstat_vvel_del2            =   9.2338661714674E-05
(PID.TID 0000.0001) %MON dynstat_wvel_max             =   1.3740422062097E-04
(PID.TID 0000.0001) %MON dynstat_wvel_min             =  -1.9156800685595E-04
(PID.TID 0000.0001) %MON dynstat_wvel_mean            =  -3.2110590334666E-07
(PID.TID 0000.0001) %MON dynstat_wvel_sd              =   8.0678959421145E-06
(PID.TID 0000.0001) %MON dynstat_wvel_del2            =   7.8140331539904E-08
(PID.TID 0000.0001) %MON dynstat_theta_max            =   3.0924871007212E+01
(PID.TID 0000.0001) %MON dynstat_theta_min            =  -3.0054661316807E+00
(PID.TID 0000.0001) %MON dynstat_theta_mean           =   3.9091432060505E+00
(PID.TID 0000.0001) %MON dynstat_theta_sd             =   4.5714376294800E+00
(PID.TID 0000.0001) %MON dynstat_theta_del2           =   2.6421968677794E-03
(PID.TID 0000.0001) %MON dynstat_salt_max             =   4.1349353517967E+01
(PID.TID 0000.0001) %MON dynstat_salt_min             =   1.8518929496904E+01
(PID.TID 0000.0001) %MON dynstat_salt_mean            =   3.4771954378562E+01
(PID.TID 0000.0001) %MON dynstat_salt_sd              =   5.3188934626217E-01
(PID.TID 0000.0001) %MON dynstat_salt_del2            =   1.0453442250398E-03
(PID.TID 0000.0001) %MON dynstat_sst_max              =   3.0924871007212E+01
(PID.TID 0000.0001) %MON dynstat_sst_min              =  -1.8972891701118E+00
(PID.TID 0000.0001) %MON dynstat_sst_mean             =   1.8107548439399E+01
(PID.TID 0000.0001) %MON dynstat_sst_sd               =   9.8111725206183E+00
(PID.TID 0000.0001) %MON dynstat_sst_del2             =   1.5035852974519E-02
(PID.TID 0000.0001) %MON dynstat_sss_max              =   4.1349353517967E+01
(PID.TID 0000.0001) %MON dynstat_sss_min              =   1.8751885430886E+01
(PID.TID 0000.0001) %MON dynstat_sss_mean             =   3.4624563774738E+01
(PID.TID 0000.0001) %MON dynstat_sss_sd               =   1.4808406900965E+00
(PID.TID 0000.0001) %MON dynstat_sss_del2             =   1.1616082700189E-02
(PID.TID 0000.0001) %MON forcing_qnet_max             =   2.6338796971264E+03
(PID.TID 0000.0001) %MON forcing_qnet_min             =  -1.2623341064453E+03
(PID.TID 0000.0001) %MON forcing_qnet_mean            =   1.2025776754407E+01
(PID.TID 0000.0001) %MON forcing_qnet_sd              =   2.0260990512057E+02
(PID.TID 0000.0001) %MON forcing_qnet_del2            =   4.3423865311015E+00
(PID.TID 0000.0001) %MON forcing_qsw_max              =   0.0000000000000E+00
(PID.TID 0000.0001) %MON forcing_qsw_min              =  -1.0005392007487E+02
(PID.TID 0000.0001) %MON forcing_qsw_mean             =  -1.3907567059253E+01
(PID.TID 0000.0001) %MON forcing_qsw_sd               =   2.3223821812895E+01
(PID.TID 0000.0001) %MON forcing_qsw_del2             =   1.9496708796296E-01
(PID.TID 0000.0001) %MON forcing_empmr_max            =   6.3402503728867E-03
(PID.TID 0000.0001) %MON forcing_empmr_min            =  -9.1147445142269E-02
(PID.TID 0000.0001) %MON forcing_empmr_mean           =  -2.8458317310357E-04
(PID.TID 0000.0001) %MON forcing_empmr_sd             =   4.0741187291697E-03
(PID.TID 0000.0001) %MON forcing_empmr_del2           =   1.6036967600391E-04
(PID.TID 0000.0001) %MON forcing_fu_max               =   3.9337939752862E-01
(PID.TID 0000.0001) %MON forcing_fu_min               =  -3.5712930337488E-01
(PID.TID 0000.0001) %MON forcing_fu_mean              =  -3.2476141449846E-03
(PID.TID 0000.0001) %MON forcing_fu_sd                =   6.3238160266960E-02
(PID.TID 0000.0001) %MON forcing_fu_del2              =   6.2954353254068E-04
(PID.TID 0000.0001) %MON forcing_fv_max               =   3.2183230708259E-01
(PID.TID 0000.0001) %MON forcing_fv_min               =  -2.8435132590687E-01
(PID.TID 0000.0001) %MON forcing_fv_mean              =  -1.4948348767118E-02
(PID.TID 0000.0001) %MON forcing_fv_sd                =   6.3045349295139E-02
(PID.TID 0000.0001) %MON forcing_fv_del2              =   5.4297309481024E-04
(PID.TID 0000.0001) %MON trAdv_CFL_u_max              =   1.8960912466285E-03
(PID.TID 0000.0001) %MON trAdv_CFL_v_max              =   2.1097163204119E-03
(PID.TID 0000.0001) %MON trAdv_CFL_w_max              =   1.8964532906692E-03
(PID.TID 0000.0001) %MON advcfl_uvel_max              =   1.8942594740422E-03
(PID.TID 0000.0001) %MON advcfl_vvel_max              =   2.0838551282543E-03
(PID.TID 0000.0001) %MON advcfl_wvel_max              =   3.1703459179920E-03
(PID.TID 0000.0001) %MON advcfl_W_hf_max              =   1.8964532906692E-03
(PID.TID 0000.0001) %MON pe_b_mean                    =   5.0325517352003E-04
(PID.TID 0000.0001) %MON ke_max                       =   2.1732517009647E-01
(PID.TID 0000.0001) %MON ke_mean                      =   1.6417279527681E-04
(PID.TID 0000.0001) %MON ke_vol                       =   1.3398124747875E+18
(PID.TID 0000.0001) %MON vort_r_min                   =  -4.0786058293725E-06
(PID.TID 0000.0001) %MON vort_r_max                   =   2.5803442297391E-06
(PID.TID 0000.0001) %MON vort_a_mean                  =  -2.0549865324846E-05
(PID.TID 0000.0001) %MON vort_a_sd                    =   7.5259702373776E-05
(PID.TID 0000.0001) %MON vort_p_mean                  =  -2.4783286109947E-05
(PID.TID 0000.0001) %MON vort_p_sd                    =   1.2811896668994E-04
(PID.TID 0000.0001) %MON surfExpan_theta_mean         =  -7.0931493839696E-06
(PID.TID 0000.0001) %MON surfExpan_salt_mean          =   1.2896117673589E-06
(PID.TID 0000.0001) // =======================================================
(PID.TID 0000.0001) // End MONITOR dynamic field statistics
(PID.TID 0000.0001) // =======================================================
 Computing Diagnostic #     81  oceTAUX      Counter:       1   Parms: UU      U1      
           Vector  Mate for  oceTAUX      Diagnostic #     82  oceTAUY  exists 
 Computing Diagnostic #     82  oceTAUY      Counter:       1   Parms: VV      U1      
           Vector  Mate for  oceTAUY      Diagnostic #     81  oceTAUX  exists 
 Computing Diagnostic #     85  oceFWflx     Counter:       1   Parms: SM      U1      
 Computing Diagnostic #     86  oceSflux     Counter:       1   Parms: SM      U1      
 Computing Diagnostic #     87  oceQnet      Counter:       1   Parms: SM      U1      
 Computing Diagnostic #     88  oceQsw       Counter:       1   Parms: SM      U1      
 Computing Diagnostic #     27  SALT         Counter:       1   Parms: SMR     MR      
 Computing Diagnostic #     26  THETA        Counter:       1   Parms: SMR     MR      
 Computing Diagnostic #     45  UVELMASS     Counter:       1   Parms: UUr     MR      
           Vector  Mate for  UVELMASS     Diagnostic #     46  VVELMASS exists 
 Computing Diagnostic #     46  VVELMASS     Counter:       1   Parms: VVr     MR      
           Vector  Mate for  VVELMASS     Diagnostic #     45  UVELMASS exists 
 cg2d: Sum(rhs),rhsMax =  -4.35718121323091E+01  5.55263020713149E+01
(PID.TID 0000.0001)      cg2d_init_res =   2.12052589803653E-01
(PID.TID 0000.0001)      cg2d_iters(min,last) =      -1      10
(PID.TID 0000.0001)      cg2d_last_res =   9.15177908728815E-08
(PID.TID 0000.0001) // =======================================================
(PID.TID 0000.0001) // Begin MONITOR dynamic field statistics
(PID.TID 0000.0001) // =======================================================
(PID.TID 0000.0001) %MON time_tsnumber                =                 72056
(PID.TID 0000.0001) %MON time_secondsf                =   6.4850400000000E+07
(PID.TID 0000.0001) %MON dynstat_eta_max              =   2.4735237036933E+00
(PID.TID 0000.0001) %MON dynstat_eta_min              =  -1.5895671495969E+00
(PID.TID 0000.0001) %MON dynstat_eta_mean             =   2.8112893479123E-02
(PID.TID 0000.0001) %MON dynstat_eta_sd               =   6.1346070139778E-01
(PID.TID 0000.0001) %MON dynstat_eta_del2             =   1.9390251051652E-03
(PID.TID 0000.0001) %MON dynstat_uvel_max             =   5.6984731001187E-01
(PID.TID 0000.0001) %MON dynstat_uvel_min             =  -6.7321840843302E-01
(PID.TID 0000.0001) %MON dynstat_uvel_mean            =  -4.4057577998988E-04
(PID.TID 0000.0001) %MON dynstat_uvel_sd              =   1.2779139060290E-02
(PID.TID 0000.0001) %MON dynstat_uvel_del2            =   9.6679089681005E-05
(PID.TID 0000.0001) %MON dynstat_vvel_max             =   6.7194399230130E-01
(PID.TID 0000.0001) %MON dynstat_vvel_min             =  -6.2508545619881E-01
(PID.TID 0000.0001) %MON dynstat_vvel_mean            =   4.6138373348497E-04
(PID.TID 0000.0001) %MON dynstat_vvel_sd              =   1.3895025288167E-02
(PID.TID 0000.0001) %MON dynstat_vvel_del2            =   9.4535438571460E-05
(PID.TID 0000.0001) %MON dynstat_wvel_max             =   1.3390604080862E-04
(PID.TID 0000.0001) %MON dynstat_wvel_min             =  -3.2059947649638E-04
(PID.TID 0000.0001) %MON dynstat_wvel_mean            =  -3.4198880103572E-07
(PID.TID 0000.0001) %MON dynstat_wvel_sd              =   8.2344993318982E-06
(PID.TID 0000.0001) %MON dynstat_wvel_del2            =   8.1913350135727E-08
(PID.TID 0000.0001) %MON dynstat_theta_max            =   3.0924822765368E+01
(PID.TID 0000.0001) %MON dynstat_theta_min            =  -3.0057040577122E+00
(PID.TID 0000.0001) %MON dynstat_theta_mean           =   3.9091441637504E+00
(PID.TID 0000.0001) %MON dynstat_theta_sd             =   4.5714402988283E+00
(PID.TID 0000.0001) %MON dynstat_theta_del2           =   2.6420353779193E-03
(PID.TID 0000.0001) %MON dynstat_salt_max             =   4.1349099415256E+01
(PID.TID 0000.0001) %MON dynstat_salt_min             =   1.8518939796021E+01
(PID.TID 0000.0001) %MON dynstat_salt_mean            =   3.4771951867830E+01
(PID.TID 0000.0001) %MON dynstat_salt_sd              =   5.3190465703018E-01
(PID.TID 0000.0001) %MON dynstat_salt_del2            =   1.0492244737728E-03
(PID.TID 0000.0001) %MON dynstat_sst_max              =   3.0924822765368E+01
(PID.TID 0000.0001) %MON dynstat_sst_min              =  -1.8973944758549E+00
(PID.TID 0000.0001) %MON dynstat_sst_mean             =   1.8107502396845E+01
(PID.TID 0000.0001) %MON dynstat_sst_sd               =   9.8112388123013E+00
(PID.TID 0000.0001) %MON dynstat_sst_del2             =   1.5032935016506E-02
(PID.TID 0000.0001) %MON dynstat_sss_max              =   4.1349099415256E+01
(PID.TID 0000.0001) %MON dynstat_sss_min              =   1.8751913340483E+01
(PID.TID 0000.0001) %MON dynstat_sss_mean             =   3.4624381432739E+01
(PID.TID 0000.0001) %MON dynstat_sss_sd               =   1.4812262996671E+00
(PID.TID 0000.0001) %MON dynstat_sss_del2             =   1.1671198054500E-02
(PID.TID 0000.0001) %MON forcing_qnet_max             =   1.9138914514409E+04
(PID.TID 0000.0001) %MON forcing_qnet_min             =  -1.2443929443359E+03
(PID.TID 0000.0001) %MON forcing_qnet_mean            =   1.4721470492652E+01
(PID.TID 0000.0001) %MON forcing_qnet_sd              =   3.5360678615969E+02
(PID.TID 0000.0001) %MON forcing_qnet_del2            =   1.1329558247391E+01
(PID.TID 0000.0001) %MON forcing_qsw_max              =   0.0000000000000E+00
(PID.TID 0000.0001) %MON forcing_qsw_min              =  -1.0106510728637E+02
(PID.TID 0000.0001) %MON forcing_qsw_mean             =  -1.3980687505213E+01
(PID.TID 0000.0001) %MON forcing_qsw_sd               =   2.3335949208811E+01
(PID.TID 0000.0001) %MON forcing_qsw_del2             =   1.9553822962046E-01
(PID.TID 0000.0001) %MON forcing_empmr_max            =   6.2749106436968E-03
(PID.TID 0000.0001) %MON forcing_empmr_min            =  -3.3182045817375E-01
(PID.TID 0000.0001) %MON forcing_empmr_mean           =  -3.4901219075513E-04
(PID.TID 0000.0001) %MON forcing_empmr_sd             =   6.4439081987960E-03
(PID.TID 0000.0001) %MON forcing_empmr_del2           =   2.4162075493293E-04
(PID.TID 0000.0001) %MON forcing_fu_max               =   3.9487361619347E-01
(PID.TID 0000.0001) %MON forcing_fu_min               =  -3.5864868096149E-01
(PID.TID 0000.0001) %MON forcing_fu_mean              =  -3.1487286899324E-03
(PID.TID 0000.0001) %MON forcing_fu_sd                =   6.3308759563774E-02
(PID.TID 0000.0001) %MON forcing_fu_del2              =   6.3020958731439E-04
(PID.TID 0000.0001) %MON forcing_fv_max               =   3.2182244862168E-01
(PID.TID 0000.0001) %MON forcing_fv_min               =  -2.8255385407342E-01
(PID.TID 0000.0001) %MON forcing_fv_mean              =  -1.4985028691995E-02
(PID.TID 0000.0001) %MON forcing_fv_sd                =   6.2964821759762E-02
(PID.TID 0000.0001) %MON forcing_fv_del2              =   5.4309327635417E-04
(PID.TID 0000.0001) %MON trAdv_CFL_u_max              =   1.9586972762417E-03
(PID.TID 0000.0001) %MON trAdv_CFL_v_max              =   2.2235161355103E-03
(PID.TID 0000.0001) %MON trAdv_CFL_w_max              =   5.2777089723680E-03
(PID.TID 0000.0001) %MON advcfl_uvel_max              =   1.9563788578007E-03
(PID.TID 0000.0001) %MON advcfl_vvel_max              =   2.1927983520536E-03
(PID.TID 0000.0001) %MON advcfl_wvel_max              =   1.1541581153870E-02
(PID.TID 0000.0001) %MON advcfl_W_hf_max              =   5.2777089723680E-03
(PID.TID 0000.0001) %MON pe_b_mean                    =   5.0239555329857E-04
(PID.TID 0000.0001) %MON ke_max                       =   2.2576548461196E-01
(PID.TID 0000.0001) %MON ke_mean                      =   1.6478609924093E-04
(PID.TID 0000.0001) %MON ke_vol                       =   1.3398125648363E+18
(PID.TID 0000.0001) %MON vort_r_min                   =  -4.1991630061638E-06
(PID.TID 0000.0001) %MON vort_r_max                   =   2.6156593939902E-06
(PID.TID 0000.0001) %MON vort_a_mean                  =  -2.0549865324846E-05
(PID.TID 0000.0001) %MON vort_a_sd                    =   7.5259709639229E-05
(PID.TID 0000.0001) %MON vort_p_mean                  =  -2.4783283994930E-05
(PID.TID 0000.0001) %MON vort_p_sd                    =   1.2811896488099E-04
(PID.TID 0000.0001) %MON surfExpan_theta_mean         =  -7.8058565486156E-06
(PID.TID 0000.0001) %MON surfExpan_salt_mean          =   1.2516364965665E-06
(PID.TID 0000.0001) // =======================================================
(PID.TID 0000.0001) // End MONITOR dynamic field statistics
(PID.TID 0000.0001) // =======================================================
 cg2d: Sum(rhs),rhsMax =  -4.66052052590994E+01  5.24929622619401E+01
(PID.TID 0000.0001)      cg2d_init_res =   2.22535913256966E-01
(PID.TID 0000.0001)      cg2d_iters(min,last) =      -1      10
(PID.TID 0000.0001)      cg2d_last_res =   8.97078585063451E-08
(PID.TID 0000.0001) // =======================================================
(PID.TID 0000.0001) // Begin MONITOR dynamic field statistics
(PID.TID 0000.0001) // =======================================================
(PID.TID 0000.0001) %MON time_tsnumber                =                 72057
(PID.TID 0000.0001) %MON time_secondsf                =   6.4851300000000E+07
(PID.TID 0000.0001) %MON dynstat_eta_max              =   2.3386119795863E+00
(PID.TID 0000.0001) %MON dynstat_eta_min              =  -1.5884546604154E+00
(PID.TID 0000.0001) %MON dynstat_eta_mean             =   2.8427369836868E-02
(PID.TID 0000.0001) %MON dynstat_eta_sd               =   6.1296131507874E-01
(PID.TID 0000.0001) %MON dynstat_eta_del2             =   1.8324640793127E-03
(PID.TID 0000.0001) %MON dynstat_uvel_max             =   6.2310690087206E-01
(PID.TID 0000.0001) %MON dynstat_uvel_min             =  -6.9423463494935E-01
(PID.TID 0000.0001) %MON dynstat_uvel_mean            =  -4.2110194484556E-04
(PID.TID 0000.0001) %MON dynstat_uvel_sd              =   1.2816646825975E-02
(PID.TID 0000.0001) %MON dynstat_uvel_del2            =   9.7294064800053E-05
(PID.TID 0000.0001) %MON dynstat_vvel_max             =   6.9300575287901E-01
(PID.TID 0000.0001) %MON dynstat_vvel_min             =  -6.3798932008131E-01
(PID.TID 0000.0001) %MON dynstat_vvel_mean            =   4.8467486488144E-04
(PID.TID 0000.0001) %MON dynstat_vvel_sd              =   1.3906780305266E-02
(PID.TID 0000.0001) %MON dynstat_vvel_del2            =   9.6637631022816E-05
(PID.TID 0000.0001) %MON dynstat_wvel_max             =   1.3011317788717E-04
(PID.TID 0000.0001) %MON dynstat_wvel_min             =  -3.7875627549950E-04
(PID.TID 0000.0001) %MON dynstat_wvel_mean            =  -3.5461576512837E-07
(PID.TID 0000.0001) %MON dynstat_wvel_sd              =   8.3060508863983E-06
(PID.TID 0000.0001) %MON dynstat_wvel_del2            =   8.3037949210610E-08
(PID.TID 0000.0001) %MON dynstat_theta_max            =   3.0924767213136E+01
(PID.TID 0000.0001) %MON dynstat_theta_min            =  -3.0059406410624E+00
(PID.TID 0000.0001) %MON dynstat_theta_mean           =   3.9091452996735E+00
(PID.TID 0000.0001) %MON dynstat_theta_sd             =   4.5714432031431E+00
(PID.TID 0000.0001) %MON dynstat_theta_del2           =   2.6418850849674E-03
(PID.TID 0000.0001) %MON dynstat_salt_max             =   4.1348862996577E+01
(PID.TID 0000.0001) %MON dynstat_salt_min             =   1.8518950090435E+01
(PID.TID 0000.0001) %MON dynstat_salt_mean            =   3.4771949417262E+01
(PID.TID 0000.0001) %MON dynstat_salt_sd              =   5.3191982092328E-01
(PID.TID 0000.0001) %MON dynstat_salt_del2            =   1.0530391575202E-03
(PID.TID 0000.0001) %MON dynstat_sst_max              =   3.0924767213136E+01
(PID.TID 0000.0001) %MON dynstat_sst_min              =  -1.8975105471339E+00
(PID.TID 0000.0001) %MON dynstat_sst_mean             =   1.8107464653494E+01
(PID.TID 0000.0001) %MON dynstat_sst_sd               =   9.8113015161005E+00
(PID.TID 0000.0001) %MON dynstat_sst_del2             =   1.5030296781039E-02
(PID.TID 0000.0001) %MON dynstat_sss_max              =   4.1348862996577E+01
(PID.TID 0000.0001) %MON dynstat_sss_min              =   1.8751939978499E+01
(PID.TID 0000.0001) %MON dynstat_sss_mean             =   3.4624202013389E+01
(PID.TID 0000.0001) %MON dynstat_sss_sd               =   1.4816089633565E+00
(PID.TID 0000.0001) %MON dynstat_sss_del2             =   1.1725332582700E-02
(PID.TID 0000.0001) %MON forcing_qnet_max             =   2.1905500940028E+04
(PID.TID 0000.0001) %MON forcing_qnet_min             =  -1.4304086914062E+03
(PID.TID 0000.0001) %MON forcing_qnet_mean            =   1.2372242813232E+01
(PID.TID 0000.0001) %MON forcing_qnet_sd              =   3.9075514328807E+02
(PID.TID 0000.0001) %MON forcing_qnet_del2            =   1.2806682402800E+01
(PID.TID 0000.0001) %MON forcing_qsw_max              =   0.0000000000000E+00
(PID.TID 0000.0001) %MON forcing_qsw_min              =  -1.0221723627875E+02
(PID.TID 0000.0001) %MON forcing_qsw_mean             =  -1.4299702000764E+01
(PID.TID 0000.0001) %MON forcing_qsw_sd               =   2.3945561401558E+01
(PID.TID 0000.0001) %MON forcing_qsw_del2             =   2.0057811820766E-01
(PID.TID 0000.0001) %MON forcing_empmr_max            =   6.2102596275508E-03
(PID.TID 0000.0001) %MON forcing_empmr_min            =  -3.9201274514198E-01
(PID.TID 0000.0001) %MON forcing_empmr_mean           =  -3.6164781140715E-04
(PID.TID 0000.0001) %MON forcing_empmr_sd             =   7.1689667585285E-03
(PID.TID 0000.0001) %MON forcing_empmr_del2           =   2.6694354781168E-04
(PID.TID 0000.0001) %MON forcing_fu_max               =   3.9389740227390E-01
(PID.TID 0000.0001) %MON forcing_fu_min               =  -3.4389450824451E-01
(PID.TID 0000.0001) %MON forcing_fu_mean              =  -3.0884611889184E-03
(PID.TID 0000.0001) %MON forcing_fu_sd                =   6.3117707051417E-02
(PID.TID 0000.0001) %MON forcing_fu_del2              =   6.2800484573311E-04
(PID.TID 0000.0001) %MON forcing_fv_max               =   3.1985335805774E-01
(PID.TID 0000.0001) %MON forcing_fv_min               =  -2.8027724894791E-01
(PID.TID 0000.0001) %MON forcing_fv_mean              =  -1.5011676038567E-02
(PID.TID 0000.0001) %MON forcing_fv_sd                =   6.2810828261738E-02
(PID.TID 0000.0001) %MON forcing_fv_del2              =   5.4271532029201E-04
(PID.TID 0000.0001) %MON trAdv_CFL_u_max              =   2.0224216803299E-03
(PID.TID 0000.0001) %MON trAdv_CFL_v_max              =   2.2971483433426E-03
(PID.TID 0000.0001) %MON trAdv_CFL_w_max              =   6.2435731669465E-03
(PID.TID 0000.0001) %MON advcfl_uvel_max              =   2.0779161018022E-03
(PID.TID 0000.0001) %MON advcfl_vvel_max              =   2.2615305595223E-03
(PID.TID 0000.0001) %MON advcfl_wvel_max              =   1.3635225917982E-02
(PID.TID 0000.0001) %MON advcfl_W_hf_max              =   6.2435731669465E-03
(PID.TID 0000.0001) %MON pe_b_mean                    =   5.0160329721275E-04
(PID.TID 0000.0001) %MON ke_max                       =   2.3377874041815E-01
(PID.TID 0000.0001) %MON ke_mean                      =   1.6538132329223E-04
(PID.TID 0000.0001) %MON ke_vol                       =   1.3398126752718E+18
(PID.TID 0000.0001) %MON vort_r_min                   =  -4.3089395869821E-06
(PID.TID 0000.0001) %MON vort_r_max                   =   2.6228307335400E-06
(PID.TID 0000.0001) %MON vort_a_mean                  =  -2.0549865324846E-05
(PID.TID 0000.0001) %MON vort_a_sd                    =   7.5259716360710E-05
(PID.TID 0000.0001) %MON vort_p_mean                  =  -2.4783281545061E-05
(PID.TID 0000.0001) %MON vort_p_sd                    =   1.2811895588665E-04
(PID.TID 0000.0001) %MON surfExpan_theta_mean         =  -8.0259351022092E-06
(PID.TID 0000.0001) %MON surfExpan_salt_mean          =   1.2529232226770E-06
(PID.TID 0000.0001) // =======================================================
(PID.TID 0000.0001) // End MONITOR dynamic field statistics
(PID.TID 0000.0001) // =======================================================
 cg2d: Sum(rhs),rhsMax =  -5.01093749512171E+01  4.92300202041839E+01
(PID.TID 0000.0001)      cg2d_init_res =   2.43145068146321E-01
(PID.TID 0000.0001)      cg2d_iters(min,last) =      -1      10
(PID.TID 0000.0001)      cg2d_last_res =   8.55076185892773E-08
(PID.TID 0000.0001) // =======================================================
(PID.TID 0000.0001) // Begin MONITOR dynamic field statistics
(PID.TID 0000.0001) // =======================================================
(PID.TID 0000.0001) %MON time_tsnumber                =                 72058
(PID.TID 0000.0001) %MON time_secondsf                =   6.4852200000000E+07
(PID.TID 0000.0001) %MON dynstat_eta_max              =   2.1934909779444E+00
(PID.TID 0000.0001) %MON dynstat_eta_min              =  -1.5873417918764E+00
(PID.TID 0000.0001) %MON dynstat_eta_mean             =   2.8664882952839E-02
(PID.TID 0000.0001) %MON dynstat_eta_sd               =   6.1253493448441E-01
(PID.TID 0000.0001) %MON dynstat_eta_del2             =   1.7132627939645E-03
(PID.TID 0000.0001) %MON dynstat_uvel_max             =   6.6496186271255E-01
(PID.TID 0000.0001) %MON dynstat_uvel_min             =  -7.1461996071228E-01
(PID.TID 0000.0001) %MON dynstat_uvel_mean            =  -4.0136797778541E-04
(PID.TID 0000.0001) %MON dynstat_uvel_sd              =   1.2856774490626E-02
(PID.TID 0000.0001) %MON dynstat_uvel_del2            =   9.7714810183131E-05
(PID.TID 0000.0001) %MON dynstat_vvel_max             =   7.0195540073329E-01
(PID.TID 0000.0001) %MON dynstat_vvel_min             =  -6.4776908550113E-01
(PID.TID 0000.0001) %MON dynstat_vvel_mean            =   5.0451118432357E-04
(PID.TID 0000.0001) %MON dynstat_vvel_sd              =   1.3910494875844E-02
(PID.TID 0000.0001) %MON dynstat_vvel_del2            =   9.8480114023725E-05
(PID.TID 0000.0001) %MON dynstat_wvel_max             =   1.2593126506311E-04
(PID.TID 0000.0001) %MON dynstat_wvel_min             =  -1.9133124684170E-04
(PID.TID 0000.0001) %MON dynstat_wvel_mean            =  -3.4466288842649E-07
(PID.TID 0000.0001) %MON dynstat_wvel_sd              =   8.0988653465888E-06
(PID.TID 0000.0001) %MON dynstat_wvel_del2            =   7.7362873579023E-08
(PID.TID 0000.0001) %MON dynstat_theta_max            =   3.0924705513185E+01
(PID.TID 0000.0001) %MON dynstat_theta_min            =  -3.0061720135600E+00
(PID.TID 0000.0001) %MON dynstat_theta_mean           =   3.9091464379351E+00
(PID.TID 0000.0001) %MON dynstat_theta_sd             =   4.5714464284472E+00
(PID.TID 0000.0001) %MON dynstat_theta_del2           =   2.6417454242935E-03
(PID.TID 0000.0001) %MON dynstat_salt_max             =   4.1348644764842E+01
(PID.TID 0000.0001) %MON dynstat_salt_min             =   1.8518960380807E+01
(PID.TID 0000.0001) %MON dynstat_salt_mean            =   3.4771947065464E+01
(PID.TID 0000.0001) %MON dynstat_salt_sd              =   5.3193498817823E-01
(PID.TID 0000.0001) %MON dynstat_salt_del2            =   1.0567820814246E-03
(PID.TID 0000.0001) %MON dynstat_sst_max              =   3.0924705513185E+01
(PID.TID 0000.0001) %MON dynstat_sst_min              =  -1.8976356871632E+00
(PID.TID 0000.0001) %MON dynstat_sst_mean             =   1.8107451905159E+01
(PID.TID 0000.0001) %MON dynstat_sst_sd               =   9.8113645305772E+00
(PID.TID 0000.0001) %MON dynstat_sst_del2             =   1.5027730974698E-02
(PID.TID 0000.0001) %MON dynstat_sss_max              =   4.1348644764842E+01
(PID.TID 0000.0001) %MON dynstat_sss_min              =   1.8751965419248E+01
(PID.TID 0000.0001) %MON dynstat_sss_mean             =   3.4624031103118E+01
(PID.TID 0000.0001) %MON dynstat_sss_sd               =   1.4819949526194E+00
(PID.TID 0000.0001) %MON dynstat_sss_del2             =   1.1778399702379E-02
(PID.TID 0000.0001) %MON forcing_qnet_max             =   1.9969100341797E+03
(PID.TID 0000.0001) %MON forcing_qnet_min             =  -1.2103632812500E+03
(PID.TID 0000.0001) %MON forcing_qnet_mean            =   6.2676090753721E+00
(PID.TID 0000.0001) %MON forcing_qnet_sd              =   2.0307185622314E+02
(PID.TID 0000.0001) %MON forcing_qnet_del2            =   4.2102159154058E+00
(PID.TID 0000.0001) %MON forcing_qsw_max              =   0.0000000000000E+00
(PID.TID 0000.0001) %MON forcing_qsw_min              =  -1.0232913531775E+02
(PID.TID 0000.0001) %MON forcing_qsw_mean             =  -1.4433856259459E+01
(PID.TID 0000.0001) %MON forcing_qsw_sd               =   2.4258706436037E+01
(PID.TID 0000.0001) %MON forcing_qsw_del2             =   2.0274641363131E-01
(PID.TID 0000.0001) %MON forcing_empmr_max            =   6.1462968587875E-03
(PID.TID 0000.0001) %MON forcing_empmr_min            =  -8.8359162211418E-02
(PID.TID 0000.0001) %MON forcing_empmr_mean           =  -2.7314008336613E-04
(PID.TID 0000.0001) %MON forcing_empmr_sd             =   3.9105169834103E-03
(PID.TID 0000.0001) %MON forcing_empmr_del2           =   1.5412339314472E-04
(PID.TID 0000.0001) %MON forcing_fu_max               =   3.8596697918855E-01
(PID.TID 0000.0001) %MON forcing_fu_min               =  -3.4787766125804E-01
(PID.TID 0000.0001) %MON forcing_fu_mean              =  -3.1403139482129E-03
(PID.TID 0000.0001) %MON forcing_fu_sd                =   6.2844359792601E-02
(PID.TID 0000.0001) %MON forcing_fu_del2              =   6.2549885668025E-04
(PID.TID 0000.0001) %MON forcing_fv_max               =   3.1971236242265E-01
(PID.TID 0000.0001) %MON forcing_fv_min               =  -2.7789989244833E-01
(PID.TID 0000.0001) %MON forcing_fv_mean              =  -1.5035044991788E-02
(PID.TID 0000.0001) %MON forcing_fv_sd                =   6.2559639952633E-02
(PID.TID 0000.0001) %MON forcing_fv_del2              =   5.4162485957844E-04
(PID.TID 0000.0001) %MON trAdv_CFL_u_max              =   2.1623077602870E-03
(PID.TID 0000.0001) %MON trAdv_CFL_v_max              =   2.3310508117578E-03
(PID.TID 0000.0001) %MON trAdv_CFL_w_max              =   1.8854030246073E-03
(PID.TID 0000.0001) %MON advcfl_uvel_max              =   2.2174926319722E-03
(PID.TID 0000.0001) %MON advcfl_vvel_max              =   2.2907365250360E-03
(PID.TID 0000.0001) %MON advcfl_wvel_max              =   3.0733621638754E-03
(PID.TID 0000.0001) %MON advcfl_W_hf_max              =   1.8854030246073E-03
(PID.TID 0000.0001) %MON pe_b_mean                    =   5.0092522062677E-04
(PID.TID 0000.0001) %MON ke_max                       =   2.4127560333210E-01
(PID.TID 0000.0001) %MON ke_mean                      =   1.6590422491174E-04
(PID.TID 0000.0001) %MON ke_vol                       =   1.3398127897056E+18
(PID.TID 0000.0001) %MON vort_r_min                   =  -4.4065970468601E-06
(PID.TID 0000.0001) %MON vort_r_max                   =   2.7286855878148E-06
(PID.TID 0000.0001) %MON vort_a_mean                  =  -2.0549865324846E-05
(PID.TID 0000.0001) %MON vort_a_sd                    =   7.5259722330917E-05
(PID.TID 0000.0001) %MON vort_p_mean                  =  -2.4783279005718E-05
(PID.TID 0000.0001) %MON vort_p_sd                    =   1.2811895104170E-04
(PID.TID 0000.0001) %MON surfExpan_theta_mean         =  -7.2365833812940E-06
(PID.TID 0000.0001) %MON surfExpan_salt_mean          =   1.3277821292739E-06
(PID.TID 0000.0001) // =======================================================
(PID.TID 0000.0001) // End MONITOR dynamic field statistics
(PID.TID 0000.0001) // =======================================================
 cg2d: Sum(rhs),rhsMax =  -5.43326722447276E+01  4.57687404016530E+01
(PID.TID 0000.0001)      cg2d_init_res =   2.63839493027896E-01
(PID.TID 0000.0001)      cg2d_iters(min,last) =      -1      10
(PID.TID 0000.0001)      cg2d_last_res =   8.21919345492746E-08
(PID.TID 0000.0001) // =======================================================
(PID.TID 0000.0001) // Begin MONITOR dynamic field statistics
(PID.TID 0000.0001) // =======================================================
(PID.TID 0000.0001) %MON time_tsnumber                =                 72059
(PID.TID 0000.0001) %MON time_secondsf                =   6.4853100000000E+07
(PID.TID 0000.0001) %MON dynstat_eta_max              =   2.0395476844034E+00
(PID.TID 0000.0001) %MON dynstat_eta_min              =  -1.5861654009268E+00
(PID.TID 0000.0001) %MON dynstat_eta_mean             =   2.8895565557933E-02
(PID.TID 0000.0001) %MON dynstat_eta_sd               =   6.1217983925908E-01
(PID.TID 0000.0001) %MON dynstat_eta_del2             =   1.6084615267123E-03
(PID.TID 0000.0001) %MON dynstat_uvel_max             =   6.9507962708930E-01
(PID.TID 0000.0001) %MON dynstat_uvel_min             =  -7.3408609109852E-01
(PID.TID 0000.0001) %MON dynstat_uvel_mean            =  -3.8195583740666E-04
(PID.TID 0000.0001) %MON dynstat_uvel_sd              =   1.2897565690970E-02
(PID.TID 0000.0001) %MON dynstat_uvel_del2            =   9.7926000920277E-05
(PID.TID 0000.0001) %MON dynstat_vvel_max             =   6.9919871177399E-01
(PID.TID 0000.0001) %MON dynstat_vvel_min             =  -6.5430271426312E-01
(PID.TID 0000.0001) %MON dynstat_vvel_mean            =   5.2074691880798E-04
(PID.TID 0000.0001) %MON dynstat_vvel_sd              =   1.3905697182782E-02
(PID.TID 0000.0001) %MON dynstat_vvel_del2            =   9.9945195156732E-05
(PID.TID 0000.0001) %MON dynstat_wvel_max             =   1.2129186385420E-04
(PID.TID 0000.0001) %MON dynstat_wvel_min             =  -1.9130609783030E-04
(PID.TID 0000.0001) %MON dynstat_wvel_mean            =  -3.4107448053553E-07
(PID.TID 0000.0001) %MON dynstat_wvel_sd              =   8.0821524787445E-06
(PID.TID 0000.0001) %MON dynstat_wvel_del2            =   7.6786970401802E-08
(PID.TID 0000.0001) %MON dynstat_theta_max            =   3.0924638839195E+01
(PID.TID 0000.0001) %MON dynstat_theta_min            =  -3.0063967164161E+00
(PID.TID 0000.0001) %MON dynstat_theta_mean           =   3.9091475659003E+00
(PID.TID 0000.0001) %MON dynstat_theta_sd             =   4.5714497644308E+00
(PID.TID 0000.0001) %MON dynstat_theta_del2           =   2.6416213492041E-03
(PID.TID 0000.0001) %MON dynstat_salt_max             =   4.1348444739147E+01
(PID.TID 0000.0001) %MON dynstat_salt_min             =   1.8518970667089E+01
(PID.TID 0000.0001) %MON dynstat_salt_mean            =   3.4771944731116E+01
(PID.TID 0000.0001) %MON dynstat_salt_sd              =   5.3194995544871E-01
(PID.TID 0000.0001) %MON dynstat_salt_del2            =   1.0604596937501E-03
(PID.TID 0000.0001) %MON dynstat_sst_max              =   3.0924638839195E+01
(PID.TID 0000.0001) %MON dynstat_sst_min              =  -1.8977669179934E+00
(PID.TID 0000.0001) %MON dynstat_sst_mean             =   1.8107438009016E+01
(PID.TID 0000.0001) %MON dynstat_sst_sd               =   9.8114243000353E+00
(PID.TID 0000.0001) %MON dynstat_sst_del2             =   1.5025490478676E-02
(PID.TID 0000.0001) %MON dynstat_sss_max              =   4.1348444739147E+01
(PID.TID 0000.0001) %MON dynstat_sss_min              =   1.8751989761449E+01
(PID.TID 0000.0001) %MON dynstat_sss_mean             =   3.4623860598996E+01
(PID.TID 0000.0001) %MON dynstat_sss_sd               =   1.4823758334964E+00
(PID.TID 0000.0001) %MON dynstat_sss_del2             =   1.1830472555145E-02
(PID.TID 0000.0001) %MON forcing_qnet_max             =   1.9733500976562E+03
(PID.TID 0000.0001) %MON forcing_qnet_min             =  -1.1930987548828E+03
(PID.TID 0000.0001) %MON forcing_qnet_mean            =   5.6257417977199E+00
(PID.TID 0000.0001) %MON forcing_qnet_sd              =   2.0291999811621E+02
(PID.TID 0000.0001) %MON forcing_qnet_del2            =   4.0988806048188E+00
(PID.TID 0000.0001) %MON forcing_qsw_max              =   0.0000000000000E+00
(PID.TID 0000.0001) %MON forcing_qsw_min              =  -1.0198674252437E+02
(PID.TID 0000.0001) %MON forcing_qsw_mean             =  -1.4525726784604E+01
(PID.TID 0000.0001) %MON forcing_qsw_sd               =   2.4555470332626E+01
(PID.TID 0000.0001) %MON forcing_qsw_del2             =   2.0476738303919E-01
(PID.TID 0000.0001) %MON forcing_empmr_max            =   6.0829250141978E-03
(PID.TID 0000.0001) %MON forcing_empmr_min            =  -8.7448745965958E-02
(PID.TID 0000.0001) %MON forcing_empmr_mean           =  -2.6528499585835E-04
(PID.TID 0000.0001) %MON forcing_empmr_sd             =   3.8530200029800E-03
(PID.TID 0000.0001) %MON forcing_empmr_del2           =   1.5194575290041E-04
(PID.TID 0000.0001) %MON forcing_fu_max               =   3.8371183101111E-01
(PID.TID 0000.0001) %MON forcing_fu_min               =  -3.5333322178622E-01
(PID.TID 0000.0001) %MON forcing_fu_mean              =  -3.1558844277040E-03
(PID.TID 0000.0001) %MON forcing_fu_sd                =   6.2839769675862E-02
(PID.TID 0000.0001) %MON forcing_fu_del2              =   6.2545588088331E-04
(PID.TID 0000.0001) %MON forcing_fv_max               =   3.2005510440679E-01
(PID.TID 0000.0001) %MON forcing_fv_min               =  -2.7560397538053E-01
(PID.TID 0000.0001) %MON forcing_fv_mean              =  -1.5051087788223E-02
(PID.TID 0000.0001) %MON forcing_fv_sd                =   6.2437654485990E-02
(PID.TID 0000.0001) %MON forcing_fv_del2              =   5.4188591326204E-04
(PID.TID 0000.0001) %MON trAdv_CFL_u_max              =   2.2646727142090E-03
(PID.TID 0000.0001) %MON trAdv_CFL_v_max              =   2.3262839840838E-03
(PID.TID 0000.0001) %MON trAdv_CFL_w_max              =   1.8679768775296E-03
(PID.TID 0000.0001) %MON advcfl_uvel_max              =   2.3179283476754E-03
(PID.TID 0000.0001) %MON advcfl_vvel_max              =   2.2817404434037E-03
(PID.TID 0000.0001) %MON advcfl_wvel_max              =   3.0416955118594E-03
(PID.TID 0000.0001) %MON advcfl_W_hf_max              =   1.8679768775296E-03
(PID.TID 0000.0001) %MON pe_b_mean                    =   5.0036352735758E-04
(PID.TID 0000.0001) %MON ke_max                       =   2.4813097775084E-01
(PID.TID 0000.0001) %MON ke_mean                      =   1.6632569537564E-04
(PID.TID 0000.0001) %MON ke_vol                       =   1.3398128761335E+18
(PID.TID 0000.0001) %MON vort_r_min                   =  -4.4908067449322E-06
(PID.TID 0000.0001) %MON vort_r_max                   =   2.8452286482297E-06
(PID.TID 0000.0001) %MON vort_a_mean                  =  -2.0549865324846E-05
(PID.TID 0000.0001) %MON vort_a_sd                    =   7.5259727508364E-05
(PID.TID 0000.0001) %MON vort_p_mean                  =  -2.4783276876347E-05
(PID.TID 0000.0001) %MON vort_p_sd                    =   1.2811896363375E-04
(PID.TID 0000.0001) %MON surfExpan_theta_mean         =  -7.1700512807058E-06
(PID.TID 0000.0001) %MON surfExpan_salt_mean          =   1.3389389244492E-06
(PID.TID 0000.0001) // =======================================================
(PID.TID 0000.0001) // End MONITOR dynamic field statistics
(PID.TID 0000.0001) // =======================================================
 Computing Diagnostic #     81  oceTAUX      Counter:       1   Parms: UU      U1      
           Vector  Mate for  oceTAUX      Diagnostic #     82  oceTAUY  exists 
 Computing Diagnostic #     82  oceTAUY      Counter:       1   Parms: VV      U1      
           Vector  Mate for  oceTAUY      Diagnostic #     81  oceTAUX  exists 
 Computing Diagnostic #     85  oceFWflx     Counter:       1   Parms: SM      U1      
 Computing Diagnostic #     86  oceSflux     Counter:       1   Parms: SM      U1      
 Computing Diagnostic #     87  oceQnet      Counter:       1   Parms: SM      U1      
 Computing Diagnostic #     88  oceQsw       Counter:       1   Parms: SM      U1      
 Computing Diagnostic #     27  SALT         Counter:       1   Parms: SMR     MR      
 Computing Diagnostic #     26  THETA        Counter:       1   Parms: SMR     MR      
 Computing Diagnostic #     45  UVELMASS     Counter:       1   Parms: UUr     MR      
           Vector  Mate for  UVELMASS     Diagnostic #     46  VVELMASS exists 
 Computing Diagnostic #     46  VVELMASS     Counter:       1   Parms: VVr     MR      
           Vector  Mate for  VVELMASS     Diagnostic #     45  UVELMASS exists 
 cg2d: Sum(rhs),rhsMax =  -5.94734677041482E+01  4.21422139984222E+01
(PID.TID 0000.0001)      cg2d_init_res =   2.78561009332176E-01
(PID.TID 0000.0001)      cg2d_iters(min,last) =      -1      10
(PID.TID 0000.0001)      cg2d_last_res =   7.94566973382933E-08
(PID.TID 0000.0001) // =======================================================
(PID.TID 0000.0001) // Begin MONITOR dynamic field statistics
(PID.TID 0000.0001) // =======================================================
(PID.TID 0000.0001) %MON time_tsnumber                =                 72060
(PID.TID 0000.0001) %MON time_secondsf                =   6.4854000000000E+07
(PID.TID 0000.0001) %MON dynstat_eta_max              =   1.8782507258985E+00
(PID.TID 0000.0001) %MON dynstat_eta_min              =  -1.5848728262389E+00
(PID.TID 0000.0001) %MON dynstat_eta_mean             =   2.9123380401705E-02
(PID.TID 0000.0001) %MON dynstat_eta_sd               =   6.1189497380873E-01
(PID.TID 0000.0001) %MON dynstat_eta_del2             =   1.5216883682084E-03
(PID.TID 0000.0001) %MON dynstat_uvel_max             =   7.1337148687334E-01
(PID.TID 0000.0001) %MON dynstat_uvel_min             =  -7.5233223970326E-01
(PID.TID 0000.0001) %MON dynstat_uvel_mean            =  -3.6339777461033E-04
(PID.TID 0000.0001) %MON dynstat_uvel_sd              =   1.2937689308364E-02
(PID.TID 0000.0001) %MON dynstat_uvel_del2            =   9.7936201199968E-05
(PID.TID 0000.0001) %MON dynstat_vvel_max             =   6.8532133376522E-01
(PID.TID 0000.0001) %MON dynstat_vvel_min             =  -6.5749655945176E-01
(PID.TID 0000.0001) %MON dynstat_vvel_mean            =   5.3327650710476E-04
(PID.TID 0000.0001) %MON dynstat_vvel_sd              =   1.3893116367177E-02
(PID.TID 0000.0001) %MON dynstat_vvel_del2            =   1.0095756363761E-04
(PID.TID 0000.0001) %MON dynstat_wvel_max             =   1.1741141165736E-04
(PID.TID 0000.0001) %MON dynstat_wvel_min             =  -1.9130010209962E-04
(PID.TID 0000.0001) %MON dynstat_wvel_mean            =  -3.3226681191857E-07
(PID.TID 0000.0001) %MON dynstat_wvel_sd              =   8.0522160878590E-06
(PID.TID 0000.0001) %MON dynstat_wvel_del2            =   7.6083776007132E-08
(PID.TID 0000.0001) %MON dynstat_theta_max            =   3.0924565959850E+01
(PID.TID 0000.0001) %MON dynstat_theta_min            =  -3.0066014415277E+00
(PID.TID 0000.0001) %MON dynstat_theta_mean           =   3.9091487045510E+00
(PID.TID 0000.0001) %MON dynstat_theta_sd             =   4.5714530892655E+00
(PID.TID 0000.0001) %MON dynstat_theta_del2           =   2.6414841582074E-03
(PID.TID 0000.0001) %MON dynstat_salt_max             =   4.1348262660477E+01
(PID.TID 0000.0001) %MON dynstat_salt_min             =   1.8518980948545E+01
(PID.TID 0000.0001) %MON dynstat_salt_mean            =   3.4771942434065E+01
(PID.TID 0000.0001) %MON dynstat_salt_sd              =   5.3196471863610E-01
(PID.TID 0000.0001) %MON dynstat_salt_del2            =   1.0640657212145E-03
(PID.TID 0000.0001) %MON dynstat_sst_max              =   3.0924565959850E+01
(PID.TID 0000.0001) %MON dynstat_sst_min              =  -1.8979045056908E+00
(PID.TID 0000.0001) %MON dynstat_sst_mean             =   1.8107427420842E+01
(PID.TID 0000.0001) %MON dynstat_sst_sd               =   9.8114816534545E+00
(PID.TID 0000.0001) %MON dynstat_sst_del2             =   1.5023046198976E-02
(PID.TID 0000.0001) %MON dynstat_sss_max              =   4.1348262660477E+01
(PID.TID 0000.0001) %MON dynstat_sss_min              =   1.8752013199205E+01
(PID.TID 0000.0001) %MON dynstat_sss_mean             =   3.4623692759604E+01
(PID.TID 0000.0001) %MON dynstat_sss_sd               =   1.4827523711172E+00
(PID.TID 0000.0001) %MON dynstat_sss_del2             =   1.1881509056646E-02
(PID.TID 0000.0001) %MON forcing_qnet_max             =   1.9500770263672E+03
(PID.TID 0000.0001) %MON forcing_qnet_min             =  -1.1772052001953E+03
(PID.TID 0000.0001) %MON forcing_qnet_mean            =   4.8489838456763E+00
(PID.TID 0000.0001) %MON forcing_qnet_sd              =   2.0505542892024E+02
(PID.TID 0000.0001) %MON forcing_qnet_del2            =   4.1308566115535E+00
(PID.TID 0000.0001) %MON forcing_qsw_max              =   0.0000000000000E+00
(PID.TID 0000.0001) %MON forcing_qsw_min              =  -1.0119143411535E+02
(PID.TID 0000.0001) %MON forcing_qsw_mean             =  -1.4580270619976E+01
(PID.TID 0000.0001) %MON forcing_qsw_sd               =   2.4829287253700E+01
(PID.TID 0000.0001) %MON forcing_qsw_del2             =   2.0663102154070E-01
(PID.TID 0000.0001) %MON forcing_empmr_max            =   6.0202418826520E-03
(PID.TID 0000.0001) %MON forcing_empmr_min            =  -8.6547575891018E-02
(PID.TID 0000.0001) %MON forcing_empmr_mean           =  -2.6198707033778E-04
(PID.TID 0000.0001) %MON forcing_empmr_sd             =   3.8134974613672E-03
(PID.TID 0000.0001) %MON forcing_empmr_del2           =   1.5035094856503E-04
(PID.TID 0000.0001) %MON forcing_fu_max               =   3.8555869816937E-01
(PID.TID 0000.0001) %MON forcing_fu_min               =  -3.5612262354019E-01
(PID.TID 0000.0001) %MON forcing_fu_mean              =  -3.1269050112493E-03
(PID.TID 0000.0001) %MON forcing_fu_sd                =   6.2824957686082E-02
(PID.TID 0000.0001) %MON forcing_fu_del2              =   6.2474027480584E-04
(PID.TID 0000.0001) %MON forcing_fv_max               =   3.1946812255935E-01
(PID.TID 0000.0001) %MON forcing_fv_min               =  -2.7397797827888E-01
(PID.TID 0000.0001) %MON forcing_fv_mean              =  -1.5073799341192E-02
(PID.TID 0000.0001) %MON forcing_fv_sd                =   6.2312055831545E-02
(PID.TID 0000.0001) %MON forcing_fv_del2              =   5.4146755881078E-04
(PID.TID 0000.0001) %MON trAdv_CFL_u_max              =   2.3289457045154E-03
(PID.TID 0000.0001) %MON trAdv_CFL_v_max              =   2.2845013478257E-03
(PID.TID 0000.0001) %MON trAdv_CFL_w_max              =   1.8601782773663E-03
(PID.TID 0000.0001) %MON advcfl_uvel_max              =   2.3789274313382E-03
(PID.TID 0000.0001) %MON advcfl_vvel_max              =   2.2364534969065E-03
(PID.TID 0000.0001) %MON advcfl_wvel_max              =   3.0103504657745E-03
(PID.TID 0000.0001) %MON advcfl_W_hf_max              =   1.8601782773663E-03
(PID.TID 0000.0001) %MON pe_b_mean                    =   4.9991657943185E-04
(PID.TID 0000.0001) %MON ke_max                       =   2.5418830653461E-01
(PID.TID 0000.0001) %MON ke_mean                      =   1.6663944517536E-04
(PID.TID 0000.0001) %MON ke_vol                       =   1.3398129600758E+18
(PID.TID 0000.0001) %MON vort_r_min                   =  -4.5602910576515E-06
(PID.TID 0000.0001) %MON vort_r_max                   =   2.9230745062454E-06
(PID.TID 0000.0001) %MON vort_a_mean                  =  -2.0549865324846E-05
(PID.TID 0000.0001) %MON vort_a_sd                    =   7.5259731859132E-05
(PID.TID 0000.0001) %MON vort_p_mean                  =  -2.4783274792715E-05
(PID.TID 0000.0001) %MON vort_p_sd                    =   1.2811898310344E-04
(PID.TID 0000.0001) %MON surfExpan_theta_mean         =  -7.1000547782840E-06
(PID.TID 0000.0001) %MON surfExpan_salt_mean          =   1.3442250856502E-06
(PID.TID 0000.0001) // =======================================================
(PID.TID 0000.0001) // End MONITOR dynamic field statistics
(PID.TID 0000.0001) // =======================================================
 cg2d: Sum(rhs),rhsMax =  -6.58003552288286E+01  3.83850024281844E+01
(PID.TID 0000.0001)      cg2d_init_res =   2.96086516105086E-01
(PID.TID 0000.0001)      cg2d_iters(min,last) =      -1      10
(PID.TID 0000.0001)      cg2d_last_res =   7.95025525504273E-08
(PID.TID 0000.0001) // =======================================================
(PID.TID 0000.0001) // Begin MONITOR dynamic field statistics
(PID.TID 0000.0001) // =======================================================
(PID.TID 0000.0001) %MON time_tsnumber                =                 72061
(PID.TID 0000.0001) %MON time_secondsf                =   6.4854900000000E+07
(PID.TID 0000.0001) %MON dynstat_eta_max              =   1.7111346032493E+00
(PID.TID 0000.0001) %MON dynstat_eta_min              =  -1.5834273892697E+00
(PID.TID 0000.0001) %MON dynstat_eta_mean             =   2.9348842920654E-02
(PID.TID 0000.0001) %MON dynstat_eta_sd               =   6.1167366024219E-01
(PID.TID 0000.0001) %MON dynstat_eta_del2             =   1.4533044351140E-03
(PID.TID 0000.0001) %MON dynstat_uvel_max             =   7.1998406997276E-01
(PID.TID 0000.0001) %MON dynstat_uvel_min             =  -7.6905822845181E-01
(PID.TID 0000.0001) %MON dynstat_uvel_mean            =  -3.4618307359540E-04
(PID.TID 0000.0001) %MON dynstat_uvel_sd              =   1.2976128939467E-02
(PID.TID 0000.0001) %MON dynstat_uvel_del2            =   9.7762937248510E-05
(PID.TID 0000.0001) %MON dynstat_vvel_max             =   6.6106739248285E-01
(PID.TID 0000.0001) %MON dynstat_vvel_min             =  -6.5728370187007E-01
(PID.TID 0000.0001) %MON dynstat_vvel_mean            =   5.4206538460883E-04
(PID.TID 0000.0001) %MON dynstat_vvel_sd              =   1.3874059295055E-02
(PID.TID 0000.0001) %MON dynstat_vvel_del2            =   1.0147343505162E-04
(PID.TID 0000.0001) %MON dynstat_wvel_max             =   1.1636279467688E-04
(PID.TID 0000.0001) %MON dynstat_wvel_min             =  -1.9131168104730E-04
(PID.TID 0000.0001) %MON dynstat_wvel_mean            =  -3.1913431590847E-07
(PID.TID 0000.0001) %MON dynstat_wvel_sd              =   8.0170506857603E-06
(PID.TID 0000.0001) %MON dynstat_wvel_del2            =   7.5323184036314E-08
(PID.TID 0000.0001) %MON dynstat_theta_max            =   3.0924486806228E+01
(PID.TID 0000.0001) %MON dynstat_theta_min            =  -3.0067980431476E+00
(PID.TID 0000.0001) %MON dynstat_theta_mean           =   3.9091499657127E+00
(PID.TID 0000.0001) %MON dynstat_theta_sd             =   4.5714567437995E+00
(PID.TID 0000.0001) %MON dynstat_theta_del2           =   2.6413454185891E-03
(PID.TID 0000.0001) %MON dynstat_salt_max             =   4.1348098399925E+01
(PID.TID 0000.0001) %MON dynstat_salt_min             =   1.8518991223992E+01
(PID.TID 0000.0001) %MON dynstat_salt_mean            =   3.4771940170480E+01
(PID.TID 0000.0001) %MON dynstat_salt_sd              =   5.3197926644681E-01
(PID.TID 0000.0001) %MON dynstat_salt_del2            =   1.0676040096456E-03
(PID.TID 0000.0001) %MON dynstat_sst_max              =   3.0924486806228E+01
(PID.TID 0000.0001) %MON dynstat_sst_min              =  -1.8980452523595E+00
(PID.TID 0000.0001) %MON dynstat_sst_mean             =   1.8107425797965E+01
(PID.TID 0000.0001) %MON dynstat_sst_sd               =   9.8115369292636E+00
(PID.TID 0000.0001) %MON dynstat_sst_del2             =   1.5020586265790E-02
(PID.TID 0000.0001) %MON dynstat_sss_max              =   4.1348098399925E+01
(PID.TID 0000.0001) %MON dynstat_sss_min              =   1.8752035827689E+01
(PID.TID 0000.0001) %MON dynstat_sss_mean             =   3.4623526771536E+01
(PID.TID 0000.0001) %MON dynstat_sss_sd               =   1.4831239685367E+00
(PID.TID 0000.0001) %MON dynstat_sss_del2             =   1.1931552494478E-02
(PID.TID 0000.0001) %MON forcing_qnet_max             =   1.9270870361328E+03
(PID.TID 0000.0001) %MON forcing_qnet_min             =  -1.1603779296875E+03
(PID.TID 0000.0001) %MON forcing_qnet_mean            =   2.4014912842750E+00
(PID.TID 0000.0001) %MON forcing_qnet_sd              =   2.0869454693579E+02
(PID.TID 0000.0001) %MON forcing_qnet_del2            =   4.1222040689728E+00
(PID.TID 0000.0001) %MON forcing_qsw_max              =   0.0000000000000E+00
(PID.TID 0000.0001) %MON forcing_qsw_min              =  -1.0031359782481E+02
(PID.TID 0000.0001) %MON forcing_qsw_mean             =  -1.4884364246517E+01
(PID.TID 0000.0001) %MON forcing_qsw_sd               =   2.5748586759116E+01
(PID.TID 0000.0001) %MON forcing_qsw_del2             =   2.1308797787805E-01
(PID.TID 0000.0001) %MON forcing_empmr_max            =   8.0017074942589E-03
(PID.TID 0000.0001) %MON forcing_empmr_min            =  -8.5656464099884E-02
(PID.TID 0000.0001) %MON forcing_empmr_mean           =  -2.5928189679135E-04
(PID.TID 0000.0001) %MON forcing_empmr_sd             =   3.7748028056901E-03
(PID.TID 0000.0001) %MON forcing_empmr_del2           =   1.4881198700083E-04
(PID.TID 0000.0001) %MON forcing_fu_max               =   3.8195273152514E-01
(PID.TID 0000.0001) %MON forcing_fu_min               =  -3.5995728181823E-01
(PID.TID 0000.0001) %MON forcing_fu_mean              =  -3.1358069790768E-03
(PID.TID 0000.0001) %MON forcing_fu_sd                =   6.2697537009003E-02
(PID.TID 0000.0001) %MON forcing_fu_del2              =   6.2334558815915E-04
(PID.TID 0000.0001) %MON forcing_fv_max               =   3.1974540185061E-01
(PID.TID 0000.0001) %MON forcing_fv_min               =  -2.7181888846300E-01
(PID.TID 0000.0001) %MON forcing_fv_mean              =  -1.5070936248787E-02
(PID.TID 0000.0001) %MON forcing_fv_sd                =   6.2206234623225E-02
(PID.TID 0000.0001) %MON forcing_fv_del2              =   5.4126789616399E-04
(PID.TID 0000.0001) %MON trAdv_CFL_u_max              =   2.3552960207824E-03
(PID.TID 0000.0001) %MON trAdv_CFL_v_max              =   2.2078965255584E-03
(PID.TID 0000.0001) %MON trAdv_CFL_w_max              =   1.8771448748766E-03
(PID.TID 0000.0001) %MON advcfl_uvel_max              =   2.4009788528159E-03
(PID.TID 0000.0001) %MON advcfl_vvel_max              =   2.1573040393860E-03
(PID.TID 0000.0001) %MON advcfl_wvel_max              =   2.9793552730394E-03
(PID.TID 0000.0001) %MON advcfl_W_hf_max              =   1.8771448748766E-03
(PID.TID 0000.0001) %MON pe_b_mean                    =   4.9957336836367E-04
(PID.TID 0000.0001) %MON ke_max                       =   2.5926840085068E-01
(PID.TID 0000.0001) %MON ke_mean                      =   1.6685034598912E-04
(PID.TID 0000.0001) %MON ke_vol                       =   1.3398130429746E+18
(PID.TID 0000.0001) %MON vort_r_min                   =  -4.6138605093211E-06
(PID.TID 0000.0001) %MON vort_r_max                   =   2.9627193060306E-06
(PID.TID 0000.0001) %MON vort_a_mean                  =  -2.0549865324846E-05
(PID.TID 0000.0001) %MON vort_a_sd                    =   7.5259735357229E-05
(PID.TID 0000.0001) %MON vort_p_mean                  =  -2.4783272751994E-05
(PID.TID 0000.0001) %MON vort_p_sd                    =   1.2811900775826E-04
(PID.TID 0000.0001) %MON surfExpan_theta_mean         =  -7.0195122358878E-06
(PID.TID 0000.0001) %MON surfExpan_salt_mean          =   1.3463089408774E-06
(PID.TID 0000.0001) // =======================================================
(PID.TID 0000.0001) // End MONITOR dynamic field statistics
(PID.TID 0000.0001) // =======================================================
 cg2d: Sum(rhs),rhsMax =  -6.94642207842177E+01  3.66377172075185E+01
(PID.TID 0000.0001)      cg2d_init_res =   3.01737729194148E-01
(PID.TID 0000.0001)      cg2d_iters(min,last) =      -1      10
(PID.TID 0000.0001)      cg2d_last_res =   8.07188091178634E-08
(PID.TID 0000.0001) // =======================================================
(PID.TID 0000.0001) // Begin MONITOR dynamic field statistics
(PID.TID 0000.0001) // =======================================================
(PID.TID 0000.0001) %MON time_tsnumber                =                 72062
(PID.TID 0000.0001) %MON time_secondsf                =   6.4855800000000E+07
(PID.TID 0000.0001) %MON dynstat_eta_max              =   1.5397776689131E+00
(PID.TID 0000.0001) %MON dynstat_eta_min              =  -1.5818116510820E+00
(PID.TID 0000.0001) %MON dynstat_eta_mean             =   2.9572684350519E-02
(PID.TID 0000.0001) %MON dynstat_eta_sd               =   6.1150772880271E-01
(PID.TID 0000.0001) %MON dynstat_eta_del2             =   1.4043354663464E-03
(PID.TID 0000.0001) %MON dynstat_uvel_max             =   7.1528535881514E-01
(PID.TID 0000.0001) %MON dynstat_uvel_min             =  -7.8396334401768E-01
(PID.TID 0000.0001) %MON dynstat_uvel_mean            =  -3.3068913183080E-04
(PID.TID 0000.0001) %MON dynstat_uvel_sd              =   1.3012012011530E-02
(PID.TID 0000.0001) %MON dynstat_uvel_del2            =   9.7421854235164E-05
(PID.TID 0000.0001) %MON dynstat_vvel_max             =   6.2731200803777E-01
(PID.TID 0000.0001) %MON dynstat_vvel_min             =  -6.5362419165366E-01
(PID.TID 0000.0001) %MON dynstat_vvel_mean            =   5.4714215341198E-04
(PID.TID 0000.0001) %MON dynstat_vvel_sd              =   1.3850045168912E-02
(PID.TID 0000.0001) %MON dynstat_vvel_del2            =   1.0147494508845E-04
(PID.TID 0000.0001) %MON dynstat_wvel_max             =   1.1514820661277E-04
(PID.TID 0000.0001) %MON dynstat_wvel_min             =  -1.9133646875820E-04
(PID.TID 0000.0001) %MON dynstat_wvel_mean            =  -3.0237172597225E-07
(PID.TID 0000.0001) %MON dynstat_wvel_sd              =   7.9818449800457E-06
(PID.TID 0000.0001) %MON dynstat_wvel_del2            =   7.4548851586261E-08
(PID.TID 0000.0001) %MON dynstat_theta_max            =   3.0924401277281E+01
(PID.TID 0000.0001) %MON dynstat_theta_min            =  -3.0069859207921E+00
(PID.TID 0000.0001) %MON dynstat_theta_mean           =   3.9091512844428E+00
(PID.TID 0000.0001) %MON dynstat_theta_sd             =   4.5714605636969E+00
(PID.TID 0000.0001) %MON dynstat_theta_del2           =   2.6412089664482E-03
(PID.TID 0000.0001) %MON dynstat_salt_max             =   4.1347951095365E+01
(PID.TID 0000.0001) %MON dynstat_salt_min             =   1.8519001491732E+01
(PID.TID 0000.0001) %MON dynstat_salt_mean            =   3.4771937940311E+01
(PID.TID 0000.0001) %MON dynstat_salt_sd              =   5.3199360728474E-01
(PID.TID 0000.0001) %MON dynstat_salt_del2            =   1.0710753412808E-03
(PID.TID 0000.0001) %MON dynstat_sst_max              =   3.0924401277281E+01
(PID.TID 0000.0001) %MON dynstat_sst_min              =  -1.8981870248635E+00
(PID.TID 0000.0001) %MON dynstat_sst_mean             =   1.8107428565878E+01
(PID.TID 0000.0001) %MON dynstat_sst_sd               =   9.8115915595417E+00
(PID.TID 0000.0001) %MON dynstat_sst_del2             =   1.5018191720854E-02
(PID.TID 0000.0001) %MON dynstat_sss_max              =   4.1347951095365E+01
(PID.TID 0000.0001) %MON dynstat_sss_min              =   1.8752057762992E+01
(PID.TID 0000.0001) %MON dynstat_sss_mean             =   3.4623362608380E+01
(PID.TID 0000.0001) %MON dynstat_sss_sd               =   1.4834907508319E+00
(PID.TID 0000.0001) %MON dynstat_sss_del2             =   1.1980612063753E-02
(PID.TID 0000.0001) %MON forcing_qnet_max             =   1.9043767089844E+03
(PID.TID 0000.0001) %MON forcing_qnet_min             =  -1.1448966064453E+03
(PID.TID 0000.0001) %MON forcing_qnet_mean            =   1.0652715683172E+00
(PID.TID 0000.0001) %MON forcing_qnet_sd              =   2.1122493420010E+02
(PID.TID 0000.0001) %MON forcing_qnet_del2            =   4.0946848152059E+00
(PID.TID 0000.0001) %MON forcing_qsw_max              =   0.0000000000000E+00
(PID.TID 0000.0001) %MON forcing_qsw_min              =  -1.0223712144021E+02
(PID.TID 0000.0001) %MON forcing_qsw_mean             =  -1.5017031943291E+01
(PID.TID 0000.0001) %MON forcing_qsw_sd               =   2.6113153253970E+01
(PID.TID 0000.0001) %MON forcing_qsw_del2             =   2.1634677785938E-01
(PID.TID 0000.0001) %MON forcing_empmr_max            =   5.8968435041606E-03
(PID.TID 0000.0001) %MON forcing_empmr_min            =  -8.4773749113083E-02
(PID.TID 0000.0001) %MON forcing_empmr_mean           =  -2.5741764434487E-04
(PID.TID 0000.0001) %MON forcing_empmr_sd             =   3.7351053257303E-03
(PID.TID 0000.0001) %MON forcing_empmr_del2           =   1.4725481261171E-04
(PID.TID 0000.0001) %MON forcing_fu_max               =   3.7922060719539E-01
(PID.TID 0000.0001) %MON forcing_fu_min               =  -3.6643175298079E-01
(PID.TID 0000.0001) %MON forcing_fu_mean              =  -3.1440560907310E-03
(PID.TID 0000.0001) %MON forcing_fu_sd                =   6.2669823693506E-02
(PID.TID 0000.0001) %MON forcing_fu_del2              =   6.2205203622805E-04
(PID.TID 0000.0001) %MON forcing_fv_max               =   3.1904485637859E-01
(PID.TID 0000.0001) %MON forcing_fv_min               =  -2.6927495684176E-01
(PID.TID 0000.0001) %MON forcing_fv_mean              =  -1.5093341637037E-02
(PID.TID 0000.0001) %MON forcing_fv_sd                =   6.2041673292664E-02
(PID.TID 0000.0001) %MON forcing_fv_del2              =   5.4018614265088E-04
(PID.TID 0000.0001) %MON trAdv_CFL_u_max              =   2.3446124077937E-03
(PID.TID 0000.0001) %MON trAdv_CFL_v_max              =   2.0991309053235E-03
(PID.TID 0000.0001) %MON trAdv_CFL_w_max              =   1.8891778510071E-03
(PID.TID 0000.0001) %MON advcfl_uvel_max              =   2.3853097476295E-03
(PID.TID 0000.0001) %MON advcfl_vvel_max              =   2.0471479069819E-03
(PID.TID 0000.0001) %MON advcfl_wvel_max              =   2.9486521430638E-03
(PID.TID 0000.0001) %MON advcfl_W_hf_max              =   1.8891778510071E-03
(PID.TID 0000.0001) %MON pe_b_mean                    =   4.9932052419194E-04
(PID.TID 0000.0001) %MON ke_max                       =   2.6317507999527E-01
(PID.TID 0000.0001) %MON ke_mean                      =   1.6696763001487E-04
(PID.TID 0000.0001) %MON ke_vol                       =   1.3398131250175E+18
(PID.TID 0000.0001) %MON vort_r_min                   =  -4.6504108415471E-06
(PID.TID 0000.0001) %MON vort_r_max                   =   2.9651454152486E-06
(PID.TID 0000.0001) %MON vort_a_mean                  =  -2.0549865324846E-05
(PID.TID 0000.0001) %MON vort_a_sd                    =   7.5259737996405E-05
(PID.TID 0000.0001) %MON vort_p_mean                  =  -2.4783270765533E-05
(PID.TID 0000.0001) %MON vort_p_sd                    =   1.2811903606639E-04
(PID.TID 0000.0001) %MON surfExpan_theta_mean         =  -6.9169278952839E-06
(PID.TID 0000.0001) %MON surfExpan_salt_mean          =   1.3472057776168E-06
(PID.TID 0000.0001) // =======================================================
(PID.TID 0000.0001) // End MONITOR dynamic field statistics
(PID.TID 0000.0001) // =======================================================
 cg2d: Sum(rhs),rhsMax =  -7.00658415274322E+01  3.65951127382794E+01
(PID.TID 0000.0001)      cg2d_init_res =   2.94950603663038E-01
(PID.TID 0000.0001)      cg2d_iters(min,last) =      -1      10
(PID.TID 0000.0001)      cg2d_last_res =   8.27130470875518E-08
(PID.TID 0000.0001) // =======================================================
(PID.TID 0000.0001) // Begin MONITOR dynamic field statistics
(PID.TID 0000.0001) // =======================================================
(PID.TID 0000.0001) %MON time_tsnumber                =                 72063
(PID.TID 0000.0001) %MON time_secondsf                =   6.4856700000000E+07
(PID.TID 0000.0001) %MON dynstat_eta_max              =   1.3657843383622E+00
(PID.TID 0000.0001) %MON dynstat_eta_min              =  -1.5800287147417E+00
(PID.TID 0000.0001) %MON dynstat_eta_mean             =   2.9794122916913E-02
(PID.TID 0000.0001) %MON dynstat_eta_sd               =   6.1139074425623E-01
(PID.TID 0000.0001) %MON dynstat_eta_del2             =   1.3765486539629E-03
(PID.TID 0000.0001) %MON dynstat_uvel_max             =   6.9984577387116E-01
(PID.TID 0000.0001) %MON dynstat_uvel_min             =  -7.9675745957158E-01
(PID.TID 0000.0001) %MON dynstat_uvel_mean            =  -3.1716205976631E-04
(PID.TID 0000.0001) %MON dynstat_uvel_sd              =   1.3044323700603E-02
(PID.TID 0000.0001) %MON dynstat_uvel_del2            =   9.6925188311686E-05
(PID.TID 0000.0001) %MON dynstat_vvel_max             =   5.8503580481910E-01
(PID.TID 0000.0001) %MON dynstat_vvel_min             =  -6.4650579611510E-01
(PID.TID 0000.0001) %MON dynstat_vvel_mean            =   5.4864078293162E-04
(PID.TID 0000.0001) %MON dynstat_vvel_sd              =   1.3822614544750E-02
(PID.TID 0000.0001) %MON dynstat_vvel_del2            =   1.0097040007246E-04
(PID.TID 0000.0001) %MON dynstat_wvel_max             =   1.1376314431299E-04
(PID.TID 0000.0001) %MON dynstat_wvel_min             =  -1.9136870685112E-04
(PID.TID 0000.0001) %MON dynstat_wvel_mean            =  -2.8334537101280E-07
(PID.TID 0000.0001) %MON dynstat_wvel_sd              =   7.9492916084260E-06
(PID.TID 0000.0001) %MON dynstat_wvel_del2            =   7.3783247401336E-08
(PID.TID 0000.0001) %MON dynstat_theta_max            =   3.0924309283028E+01
(PID.TID 0000.0001) %MON dynstat_theta_min            =  -3.0071677237091E+00
(PID.TID 0000.0001) %MON dynstat_theta_mean           =   3.9091526623401E+00
(PID.TID 0000.0001) %MON dynstat_theta_sd             =   4.5714645144335E+00
(PID.TID 0000.0001) %MON dynstat_theta_del2           =   2.6410727925728E-03
(PID.TID 0000.0001) %MON dynstat_salt_max             =   4.1347819865549E+01
(PID.TID 0000.0001) %MON dynstat_salt_min             =   1.8519011749705E+01
(PID.TID 0000.0001) %MON dynstat_salt_mean            =   3.4771935748137E+01
(PID.TID 0000.0001) %MON dynstat_salt_sd              =   5.3200773523229E-01
(PID.TID 0000.0001) %MON dynstat_salt_del2            =   1.0744825767860E-03
(PID.TID 0000.0001) %MON dynstat_sst_max              =   3.0924309283028E+01
(PID.TID 0000.0001) %MON dynstat_sst_min              =  -1.8983276674956E+00
(PID.TID 0000.0001) %MON dynstat_sst_mean             =   1.8107435447377E+01
(PID.TID 0000.0001) %MON dynstat_sst_sd               =   9.8116446380923E+00
(PID.TID 0000.0001) %MON dynstat_sst_del2             =   1.5015798469507E-02
(PID.TID 0000.0001) %MON dynstat_sss_max              =   4.1347819865549E+01
(PID.TID 0000.0001) %MON dynstat_sss_min              =   1.8752079054611E+01
(PID.TID 0000.0001) %MON dynstat_sss_mean             =   3.4623200537945E+01
(PID.TID 0000.0001) %MON dynstat_sss_sd               =   1.4838525160426E+00
(PID.TID 0000.0001) %MON dynstat_sss_del2             =   1.2028729551572E-02
(PID.TID 0000.0001) %MON forcing_qnet_max             =   1.8829799804688E+03
(PID.TID 0000.0001) %MON forcing_qnet_min             =  -1.1296120605469E+03
(PID.TID 0000.0001) %MON forcing_qnet_mean            =  -2.8963196452774E-01
(PID.TID 0000.0001) %MON forcing_qnet_sd              =   2.1452942868869E+02
(PID.TID 0000.0001) %MON forcing_qnet_del2            =   4.1604724623622E+00
(PID.TID 0000.0001) %MON forcing_qsw_max              =   0.0000000000000E+00
(PID.TID 0000.0001) %MON forcing_qsw_min              =  -1.0374969492045E+02
(PID.TID 0000.0001) %MON forcing_qsw_mean             =  -1.5119407885631E+01
(PID.TID 0000.0001) %MON forcing_qsw_sd               =   2.6426911932012E+01
(PID.TID 0000.0001) %MON forcing_qsw_del2             =   2.1931172167301E-01
(PID.TID 0000.0001) %MON forcing_empmr_max            =   5.8361282572150E-03
(PID.TID 0000.0001) %MON forcing_empmr_min            =  -8.3901099860668E-02
(PID.TID 0000.0001) %MON forcing_empmr_mean           =  -2.5465435135269E-04
(PID.TID 0000.0001) %MON forcing_empmr_sd             =   3.6966094961415E-03
(PID.TID 0000.0001) %MON forcing_empmr_del2           =   1.4573587705139E-04
(PID.TID 0000.0001) %MON forcing_fu_max               =   3.8377550634511E-01
(PID.TID 0000.0001) %MON forcing_fu_min               =  -3.4306458487188E-01
(PID.TID 0000.0001) %MON forcing_fu_mean              =  -3.0654185683384E-03
(PID.TID 0000.0001) %MON forcing_fu_sd                =   6.2605283410824E-02
(PID.TID 0000.0001) %MON forcing_fu_del2              =   6.1929788381844E-04
(PID.TID 0000.0001) %MON forcing_fv_max               =   3.1671111456193E-01
(PID.TID 0000.0001) %MON forcing_fv_min               =  -2.6675229211663E-01
(PID.TID 0000.0001) %MON forcing_fv_mean              =  -1.5128806680174E-02
(PID.TID 0000.0001) %MON forcing_fv_sd                =   6.1931553605746E-02
(PID.TID 0000.0001) %MON forcing_fv_del2              =   5.3956315909500E-04
(PID.TID 0000.0001) %MON trAdv_CFL_u_max              =   2.3265603009794E-03
(PID.TID 0000.0001) %MON trAdv_CFL_v_max              =   2.0502490882538E-03
(PID.TID 0000.0001) %MON trAdv_CFL_w_max              =   1.8961127438587E-03
(PID.TID 0000.0001) %MON advcfl_uvel_max              =   2.3338223349314E-03
(PID.TID 0000.0001) %MON advcfl_vvel_max              =   1.9091852347784E-03
(PID.TID 0000.0001) %MON advcfl_wvel_max              =   2.9182991255885E-03
(PID.TID 0000.0001) %MON advcfl_W_hf_max              =   1.8961127438587E-03
(PID.TID 0000.0001) %MON pe_b_mean                    =   4.9914742560731E-04
(PID.TID 0000.0001) %MON ke_max                       =   2.6570935730534E-01
(PID.TID 0000.0001) %MON ke_mean                      =   1.6699898650007E-04
(PID.TID 0000.0001) %MON ke_vol                       =   1.3398132064704E+18
(PID.TID 0000.0001) %MON vort_r_min                   =  -4.6689615011266E-06
(PID.TID 0000.0001) %MON vort_r_max                   =   2.9317872992277E-06
(PID.TID 0000.0001) %MON vort_a_mean                  =  -2.0549865324846E-05
(PID.TID 0000.0001) %MON vort_a_sd                    =   7.5259739789606E-05
(PID.TID 0000.0001) %MON vort_p_mean                  =  -2.4783268840291E-05
(PID.TID 0000.0001) %MON vort_p_sd                    =   1.2811906617067E-04
(PID.TID 0000.0001) %MON surfExpan_theta_mean         =  -6.7899926303384E-06
(PID.TID 0000.0001) %MON surfExpan_salt_mean          =   1.3446441359044E-06
(PID.TID 0000.0001) // =======================================================
(PID.TID 0000.0001) // End MONITOR dynamic field statistics
(PID.TID 0000.0001) // =======================================================
 Computing Diagnostic #     81  oceTAUX      Counter:       1   Parms: UU      U1      
           Vector  Mate for  oceTAUX      Diagnostic #     82  oceTAUY  exists 
 Computing Diagnostic #     82  oceTAUY      Counter:       1   Parms: VV      U1      
           Vector  Mate for  oceTAUY      Diagnostic #     81  oceTAUX  exists 
 Computing Diagnostic #     85  oceFWflx     Counter:       1   Parms: SM      U1      
 Computing Diagnostic #     86  oceSflux     Counter:       1   Parms: SM      U1      
 Computing Diagnostic #     87  oceQnet      Counter:       1   Parms: SM      U1      
 Computing Diagnostic #     88  oceQsw       Counter:       1   Parms: SM      U1      
 Computing Diagnostic #     27  SALT         Counter:       1   Parms: SMR     MR      
 Computing Diagnostic #     26  THETA        Counter:       1   Parms: SMR     MR      
 Computing Diagnostic #     45  UVELMASS     Counter:       1   Parms: UUr     MR      
           Vector  Mate for  UVELMASS     Diagnostic #     46  VVELMASS exists 
 Computing Diagnostic #     46  VVELMASS     Counter:       1   Parms: VVr     MR      
           Vector  Mate for  VVELMASS     Diagnostic #     45  UVELMASS exists 
 cg2d: Sum(rhs),rhsMax =  -7.06720978843536E+01  3.65488241989209E+01
(PID.TID 0000.0001)      cg2d_init_res =   2.88157672627137E-01
(PID.TID 0000.0001)      cg2d_iters(min,last) =      -1      10
(PID.TID 0000.0001)      cg2d_last_res =   8.49097493086343E-08
(PID.TID 0000.0001) // =======================================================
(PID.TID 0000.0001) // Begin MONITOR dynamic field statistics
(PID.TID 0000.0001) // =======================================================
(PID.TID 0000.0001) %MON time_tsnumber                =                 72064
(PID.TID 0000.0001) %MON time_secondsf                =   6.4857600000000E+07
(PID.TID 0000.0001) %MON dynstat_eta_max              =   1.1907665477772E+00
(PID.TID 0000.0001) %MON dynstat_eta_min              =  -1.5780982328985E+00
(PID.TID 0000.0001) %MON dynstat_eta_mean             =   3.0013909357533E-02
(PID.TID 0000.0001) %MON dynstat_eta_sd               =   6.1131857625370E-01
(PID.TID 0000.0001) %MON dynstat_eta_del2             =   1.3708002275355E-03
(PID.TID 0000.0001) %MON dynstat_uvel_max             =   6.7441497755598E-01
(PID.TID 0000.0001) %MON dynstat_uvel_min             =  -8.0716675142234E-01
(PID.TID 0000.0001) %MON dynstat_uvel_mean            =  -3.0578413211169E-04
(PID.TID 0000.0001) %MON dynstat_uvel_sd              =   1.3071960088652E-02
(PID.TID 0000.0001) %MON dynstat_uvel_del2            =   9.6286208899587E-05
(PID.TID 0000.0001) %MON dynstat_vvel_max             =   5.3530284877425E-01
(PID.TID 0000.0001) %MON dynstat_vvel_min             =  -6.3594413735153E-01
(PID.TID 0000.0001) %MON dynstat_vvel_mean            =   5.4678050845479E-04
(PID.TID 0000.0001) %MON dynstat_vvel_sd              =   1.3793200584103E-02
(PID.TID 0000.0001) %MON dynstat_vvel_del2            =   9.9993828732127E-05
(PID.TID 0000.0001) %MON dynstat_wvel_max             =   1.1220403833867E-04
(PID.TID 0000.0001) %MON dynstat_wvel_min             =  -1.9140550676017E-04
(PID.TID 0000.0001) %MON dynstat_wvel_mean            =  -2.6407979975821E-07
(PID.TID 0000.0001) %MON dynstat_wvel_sd              =   7.9197224535743E-06
(PID.TID 0000.0001) %MON dynstat_wvel_del2            =   7.3036948803285E-08
(PID.TID 0000.0001) %MON dynstat_theta_max            =   3.0924211870495E+01
(PID.TID 0000.0001) %MON dynstat_theta_min            =  -3.0073472068388E+00
(PID.TID 0000.0001) %MON dynstat_theta_mean           =   3.9091541418380E+00
(PID.TID 0000.0001) %MON dynstat_theta_sd             =   4.5714688721465E+00
(PID.TID 0000.0001) %MON dynstat_theta_del2           =   2.6409454873056E-03
(PID.TID 0000.0001) %MON dynstat_salt_max             =   4.1347703644317E+01
(PID.TID 0000.0001) %MON dynstat_salt_min             =   1.8519021995599E+01
(PID.TID 0000.0001) %MON dynstat_salt_mean            =   3.4771933609484E+01
(PID.TID 0000.0001) %MON dynstat_salt_sd              =   5.3202167014910E-01
(PID.TID 0000.0001) %MON dynstat_salt_del2            =   1.0778310961631E-03
(PID.TID 0000.0001) %MON dynstat_sst_max              =   3.0924211870495E+01
(PID.TID 0000.0001) %MON dynstat_sst_min              =  -1.8984661629069E+00
(PID.TID 0000.0001) %MON dynstat_sst_mean             =   1.8107446875565E+01
(PID.TID 0000.0001) %MON dynstat_sst_sd               =   9.8117012340525E+00
(PID.TID 0000.0001) %MON dynstat_sst_del2             =   1.5013586904397E-02
(PID.TID 0000.0001) %MON dynstat_sss_max              =   4.1347703644317E+01
(PID.TID 0000.0001) %MON dynstat_sss_min              =   1.8752099835997E+01
(PID.TID 0000.0001) %MON dynstat_sss_mean             =   3.4623041048161E+01
(PID.TID 0000.0001) %MON dynstat_sss_sd               =   1.4842095181918E+00
(PID.TID 0000.0001) %MON dynstat_sss_del2             =   1.2075975136591E-02
(PID.TID 0000.0001) %MON forcing_qnet_max             =   1.8608100585938E+03
(PID.TID 0000.0001) %MON forcing_qnet_min             =  -1.1134169921875E+03
(PID.TID 0000.0001) %MON forcing_qnet_mean            =  -2.1364342337949E+00
(PID.TID 0000.0001) %MON forcing_qnet_sd              =   2.1342478523972E+02
(PID.TID 0000.0001) %MON forcing_qnet_del2            =   3.9119092071930E+00
(PID.TID 0000.0001) %MON forcing_qsw_max              =   0.0000000000000E+00
(PID.TID 0000.0001) %MON forcing_qsw_min              =  -1.0487125526868E+02
(PID.TID 0000.0001) %MON forcing_qsw_mean             =  -1.5187213822360E+01
(PID.TID 0000.0001) %MON forcing_qsw_sd               =   2.6688811808626E+01
(PID.TID 0000.0001) %MON forcing_qsw_del2             =   2.2195140085501E-01
(PID.TID 0000.0001) %MON forcing_empmr_max            =   5.7760039344430E-03
(PID.TID 0000.0001) %MON forcing_empmr_min            =  -8.3036839962006E-02
(PID.TID 0000.0001) %MON forcing_empmr_mean           =  -2.5275440671406E-04
(PID.TID 0000.0001) %MON forcing_empmr_sd             =   3.6583283947761E-03
(PID.TID 0000.0001) %MON forcing_empmr_del2           =   1.4429168574240E-04
(PID.TID 0000.0001) %MON forcing_fu_max               =   3.7887464912718E-01
(PID.TID 0000.0001) %MON forcing_fu_min               =  -3.2229450508231E-01
(PID.TID 0000.0001) %MON forcing_fu_mean              =  -3.0124824819080E-03
(PID.TID 0000.0001) %MON forcing_fu_sd                =   6.2190062979609E-02
(PID.TID 0000.0001) %MON forcing_fu_del2              =   6.1501337164740E-04
(PID.TID 0000.0001) %MON forcing_fv_max               =   3.1571080347621E-01
(PID.TID 0000.0001) %MON forcing_fv_min               =  -2.6375238364392E-01
(PID.TID 0000.0001) %MON forcing_fv_mean              =  -1.5127632876794E-02
(PID.TID 0000.0001) %MON forcing_fv_sd                =   6.1742826064956E-02
(PID.TID 0000.0001) %MON forcing_fv_del2              =   5.3825049297500E-04
(PID.TID 0000.0001) %MON trAdv_CFL_u_max              =   2.3588797065312E-03
(PID.TID 0000.0001) %MON trAdv_CFL_v_max              =   1.9843143776247E-03
(PID.TID 0000.0001) %MON trAdv_CFL_w_max              =   1.8978633200900E-03
(PID.TID 0000.0001) %MON advcfl_uvel_max              =   2.3456339687412E-03
(PID.TID 0000.0001) %MON advcfl_vvel_max              =   1.8593138390502E-03
(PID.TID 0000.0001) %MON advcfl_wvel_max              =   2.8882379117219E-03
(PID.TID 0000.0001) %MON advcfl_W_hf_max              =   1.8978633200900E-03
(PID.TID 0000.0001) %MON pe_b_mean                    =   4.9904735532086E-04
(PID.TID 0000.0001) %MON ke_max                       =   2.6668258917568E-01
(PID.TID 0000.0001) %MON ke_mean                      =   1.6694951611932E-04
(PID.TID 0000.0001) %MON ke_vol                       =   1.3398132870489E+18
(PID.TID 0000.0001) %MON vort_r_min                   =  -4.6686746273485E-06
(PID.TID 0000.0001) %MON vort_r_max                   =   2.8645014840241E-06
(PID.TID 0000.0001) %MON vort_a_mean                  =  -2.0549865324846E-05
(PID.TID 0000.0001) %MON vort_a_sd                    =   7.5259740756075E-05
(PID.TID 0000.0001) %MON vort_p_mean                  =  -2.4783266984060E-05
(PID.TID 0000.0001) %MON vort_p_sd                    =   1.2811909614972E-04
(PID.TID 0000.0001) %MON surfExpan_theta_mean         =  -6.6850932142079E-06
(PID.TID 0000.0001) %MON surfExpan_salt_mean          =   1.3396380815737E-06
(PID.TID 0000.0001) // =======================================================
(PID.TID 0000.0001) // End MONITOR dynamic field statistics
(PID.TID 0000.0001) // =======================================================
 cg2d: Sum(rhs),rhsMax =  -7.12788250669302E+01  3.64996698840208E+01
(PID.TID 0000.0001)      cg2d_init_res =   2.80291037686713E-01
(PID.TID 0000.0001)      cg2d_iters(min,last) =      -1      10
(PID.TID 0000.0001)      cg2d_last_res =   8.39083747989105E-08
(PID.TID 0000.0001) // =======================================================
(PID.TID 0000.0001) // Begin MONITOR dynamic field statistics
(PID.TID 0000.0001) // =======================================================
(PID.TID 0000.0001) %MON time_tsnumber                =                 72065
(PID.TID 0000.0001) %MON time_secondsf                =   6.4858500000000E+07
(PID.TID 0000.0001) %MON dynstat_eta_max              =   1.0483926872741E+00
(PID.TID 0000.0001) %MON dynstat_eta_min              =  -1.5760511181820E+00
(PID.TID 0000.0001) %MON dynstat_eta_mean             =   3.0230869750814E-02
(PID.TID 0000.0001) %MON dynstat_eta_sd               =   6.1128615212638E-01
(PID.TID 0000.0001) %MON dynstat_eta_del2             =   1.3856331069143E-03
(PID.TID 0000.0001) %MON dynstat_uvel_max             =   6.3989544254362E-01
(PID.TID 0000.0001) %MON dynstat_uvel_min             =  -8.1493911018595E-01
(PID.TID 0000.0001) %MON dynstat_uvel_mean            =  -2.9662511595691E-04
(PID.TID 0000.0001) %MON dynstat_uvel_sd              =   1.3094538513787E-02
(PID.TID 0000.0001) %MON dynstat_uvel_del2            =   9.5523014361917E-05
(PID.TID 0000.0001) %MON dynstat_vvel_max             =   4.7923670717508E-01
(PID.TID 0000.0001) %MON dynstat_vvel_min             =  -6.2198076990113E-01
(PID.TID 0000.0001) %MON dynstat_vvel_mean            =   5.4181328103749E-04
(PID.TID 0000.0001) %MON dynstat_vvel_sd              =   1.3763129791409E-02
(PID.TID 0000.0001) %MON dynstat_vvel_del2            =   9.8603923372415E-05
(PID.TID 0000.0001) %MON dynstat_wvel_max             =   1.1046794908838E-04
(PID.TID 0000.0001) %MON dynstat_wvel_min             =  -1.9144455531296E-04
(PID.TID 0000.0001) %MON dynstat_wvel_mean            =  -2.4473031341181E-07
(PID.TID 0000.0001) %MON dynstat_wvel_sd              =   7.8925627433589E-06
(PID.TID 0000.0001) %MON dynstat_wvel_del2            =   7.2331208199005E-08
(PID.TID 0000.0001) %MON dynstat_theta_max            =   3.0924107703496E+01
(PID.TID 0000.0001) %MON dynstat_theta_min            =  -3.0075287820901E+00
(PID.TID 0000.0001) %MON dynstat_theta_mean           =   3.9091557768913E+00
(PID.TID 0000.0001) %MON dynstat_theta_sd             =   4.5714738523154E+00
(PID.TID 0000.0001) %MON dynstat_theta_del2           =   2.6408165609266E-03
(PID.TID 0000.0001) %MON dynstat_salt_max             =   4.1347601214756E+01
(PID.TID 0000.0001) %MON dynstat_salt_min             =   1.8519032227065E+01
(PID.TID 0000.0001) %MON dynstat_salt_mean            =   3.4771931514413E+01
(PID.TID 0000.0001) %MON dynstat_salt_sd              =   5.3203542767994E-01
(PID.TID 0000.0001) %MON dynstat_salt_del2            =   1.0811152055607E-03
(PID.TID 0000.0001) %MON dynstat_sst_max              =   3.0924107703496E+01
(PID.TID 0000.0001) %MON dynstat_sst_min              =  -1.8985992902159E+00
(PID.TID 0000.0001) %MON dynstat_sst_mean             =   1.8107471193350E+01
(PID.TID 0000.0001) %MON dynstat_sst_sd               =   9.8117635037694E+00
(PID.TID 0000.0001) %MON dynstat_sst_del2             =   1.5011364719431E-02
(PID.TID 0000.0001) %MON dynstat_sss_max              =   4.1347601214756E+01
(PID.TID 0000.0001) %MON dynstat_sss_min              =   1.8752120088522E+01
(PID.TID 0000.0001) %MON dynstat_sss_mean             =   3.4622884785662E+01
(PID.TID 0000.0001) %MON dynstat_sss_sd               =   1.4845626278972E+00
(PID.TID 0000.0001) %MON dynstat_sss_del2             =   1.2122284188985E-02
(PID.TID 0000.0001) %MON forcing_qnet_max             =   1.8389095458984E+03
(PID.TID 0000.0001) %MON forcing_qnet_min             =  -1.0974316406250E+03
(PID.TID 0000.0001) %MON forcing_qnet_mean            =  -5.0916984092419E+00
(PID.TID 0000.0001) %MON forcing_qnet_sd              =   2.1514918923068E+02
(PID.TID 0000.0001) %MON forcing_qnet_del2            =   3.8995565435668E+00
(PID.TID 0000.0001) %MON forcing_qsw_max              =   0.0000000000000E+00
(PID.TID 0000.0001) %MON forcing_qsw_min              =  -1.0663689816886E+02
(PID.TID 0000.0001) %MON forcing_qsw_mean             =  -1.5446316748681E+01
(PID.TID 0000.0001) %MON forcing_qsw_sd               =   2.7280726520322E+01
(PID.TID 0000.0001) %MON forcing_qsw_del2             =   2.2665930677652E-01
(PID.TID 0000.0001) %MON forcing_empmr_max            =   5.7164696045220E-03
(PID.TID 0000.0001) %MON forcing_empmr_min            =  -8.2180969417095E-02
(PID.TID 0000.0001) %MON forcing_empmr_mean           =  -2.4950445227251E-04
(PID.TID 0000.0001) %MON forcing_empmr_sd             =   3.6206761530321E-03
(PID.TID 0000.0001) %MON forcing_empmr_del2           =   1.4279853988591E-04
(PID.TID 0000.0001) %MON forcing_fu_max               =   3.6802611123839E-01
(PID.TID 0000.0001) %MON forcing_fu_min               =  -3.1545553510058E-01
(PID.TID 0000.0001) %MON forcing_fu_mean              =  -2.9521631970590E-03
(PID.TID 0000.0001) %MON forcing_fu_sd                =   6.1990336622243E-02
(PID.TID 0000.0001) %MON forcing_fu_del2              =   6.1208376865362E-04
(PID.TID 0000.0001) %MON forcing_fv_max               =   3.1370881387459E-01
(PID.TID 0000.0001) %MON forcing_fv_min               =  -2.6023299141463E-01
(PID.TID 0000.0001) %MON forcing_fv_mean              =  -1.5115254805412E-02
(PID.TID 0000.0001) %MON forcing_fv_sd                =   6.1510233683632E-02
(PID.TID 0000.0001) %MON forcing_fv_del2              =   5.3680365378621E-04
(PID.TID 0000.0001) %MON trAdv_CFL_u_max              =   2.3836786668990E-03
(PID.TID 0000.0001) %MON trAdv_CFL_v_max              =   1.8813785249331E-03
(PID.TID 0000.0001) %MON trAdv_CFL_w_max              =   1.8943568422882E-03
(PID.TID 0000.0001) %MON advcfl_uvel_max              =   2.3682205144593E-03
(PID.TID 0000.0001) %MON advcfl_vvel_max              =   1.8184890545834E-03
(PID.TID 0000.0001) %MON advcfl_wvel_max              =   2.8584685014642E-03
(PID.TID 0000.0001) %MON advcfl_W_hf_max              =   1.8943568422882E-03
(PID.TID 0000.0001) %MON pe_b_mean                    =   4.9901192812391E-04
(PID.TID 0000.0001) %MON ke_max                       =   2.6592956257219E-01
(PID.TID 0000.0001) %MON ke_mean                      =   1.6683145720913E-04
(PID.TID 0000.0001) %MON ke_vol                       =   1.3398133670263E+18
(PID.TID 0000.0001) %MON vort_r_min                   =  -4.6488664067855E-06
(PID.TID 0000.0001) %MON vort_r_max                   =   2.7655395132964E-06
(PID.TID 0000.0001) %MON vort_a_mean                  =  -2.0549865324846E-05
(PID.TID 0000.0001) %MON vort_a_sd                    =   7.5259740939562E-05
(PID.TID 0000.0001) %MON vort_p_mean                  =  -2.4783265189897E-05
(PID.TID 0000.0001) %MON vort_p_sd                    =   1.2811912421784E-04
(PID.TID 0000.0001) %MON surfExpan_theta_mean         =  -6.5589389446362E-06
(PID.TID 0000.0001) %MON surfExpan_salt_mean          =   1.3328502708783E-06
(PID.TID 0000.0001) // =======================================================
(PID.TID 0000.0001) // End MONITOR dynamic field statistics
(PID.TID 0000.0001) // =======================================================
 cg2d: Sum(rhs),rhsMax =  -7.18866748911623E+01  3.64489801563840E+01
(PID.TID 0000.0001)      cg2d_init_res =   2.70978177855303E-01
(PID.TID 0000.0001)      cg2d_iters(min,last) =      -1      10
(PID.TID 0000.0001)      cg2d_last_res =   7.56479212869231E-08
(PID.TID 0000.0001) // =======================================================
(PID.TID 0000.0001) // Begin MONITOR dynamic field statistics
(PID.TID 0000.0001) // =======================================================
(PID.TID 0000.0001) %MON time_tsnumber                =                 72066
(PID.TID 0000.0001) %MON time_secondsf                =   6.4859400000000E+07
(PID.TID 0000.0001) %MON dynstat_eta_max              =   1.0480433189721E+00
(PID.TID 0000.0001) %MON dynstat_eta_min              =  -1.5739376198426E+00
(PID.TID 0000.0001) %MON dynstat_eta_mean             =   3.0446330003324E-02
(PID.TID 0000.0001) %MON dynstat_eta_sd               =   6.1128918581848E-01
(PID.TID 0000.0001) %MON dynstat_eta_del2             =   1.4172311210500E-03
(PID.TID 0000.0001) %MON dynstat_uvel_max             =   5.9731433774348E-01
(PID.TID 0000.0001) %MON dynstat_uvel_min             =  -8.1985042140367E-01
(PID.TID 0000.0001) %MON dynstat_uvel_mean            =  -2.8968132993544E-04
(PID.TID 0000.0001) %MON dynstat_uvel_sd              =   1.3111931235193E-02
(PID.TID 0000.0001) %MON dynstat_uvel_del2            =   9.4657049634835E-05
(PID.TID 0000.0001) %MON dynstat_vvel_max             =   4.1799695062632E-01
(PID.TID 0000.0001) %MON dynstat_vvel_min             =  -6.0468673519935E-01
(PID.TID 0000.0001) %MON dynstat_vvel_mean            =   5.3402536020296E-04
(PID.TID 0000.0001) %MON dynstat_vvel_sd              =   1.3733677045104E-02
(PID.TID 0000.0001) %MON dynstat_vvel_del2            =   9.6881736647840E-05
(PID.TID 0000.0001) %MON dynstat_wvel_max             =   1.0855404558467E-04
(PID.TID 0000.0001) %MON dynstat_wvel_min             =  -1.9148893286729E-04
(PID.TID 0000.0001) %MON dynstat_wvel_mean            =  -2.2754243761008E-07
(PID.TID 0000.0001) %MON dynstat_wvel_sd              =   7.8669458168677E-06
(PID.TID 0000.0001) %MON dynstat_wvel_del2            =   7.1677523934744E-08
(PID.TID 0000.0001) %MON dynstat_theta_max            =   3.0923997801462E+01
(PID.TID 0000.0001) %MON dynstat_theta_min            =  -3.0077172568657E+00
(PID.TID 0000.0001) %MON dynstat_theta_mean           =   3.9091575120608E+00
(PID.TID 0000.0001) %MON dynstat_theta_sd             =   4.5714792307817E+00
(PID.TID 0000.0001) %MON dynstat_theta_del2           =   2.6406934360448E-03
(PID.TID 0000.0001) %MON dynstat_salt_max             =   4.1347511145782E+01
(PID.TID 0000.0001) %MON dynstat_salt_min             =   1.8519042442047E+01
(PID.TID 0000.0001) %MON dynstat_salt_mean            =   3.4771929448763E+01
(PID.TID 0000.0001) %MON dynstat_salt_sd              =   5.3204899369846E-01
(PID.TID 0000.0001) %MON dynstat_salt_del2            =   1.0843360535497E-03
(PID.TID 0000.0001) %MON dynstat_sst_max              =   3.0923997801462E+01
(PID.TID 0000.0001) %MON dynstat_sst_min              =  -1.8987250358425E+00
(PID.TID 0000.0001) %MON dynstat_sst_mean             =   1.8107501788364E+01
(PID.TID 0000.0001) %MON dynstat_sst_sd               =   9.8118299732098E+00
(PID.TID 0000.0001) %MON dynstat_sst_del2             =   1.5009280461044E-02
(PID.TID 0000.0001) %MON dynstat_sss_max              =   4.1347511145782E+01
(PID.TID 0000.0001) %MON dynstat_sss_min              =   1.8752139811049E+01
(PID.TID 0000.0001) %MON dynstat_sss_mean             =   3.4622730236049E+01
(PID.TID 0000.0001) %MON dynstat_sss_sd               =   1.4849110694459E+00
(PID.TID 0000.0001) %MON dynstat_sss_del2             =   1.2167668701264E-02
(PID.TID 0000.0001) %MON forcing_qnet_max             =   1.8172752685547E+03
(PID.TID 0000.0001) %MON forcing_qnet_min             =  -1.0827446289062E+03
(PID.TID 0000.0001) %MON forcing_qnet_mean            =  -6.8053819140652E+00
(PID.TID 0000.0001) %MON forcing_qnet_sd              =   2.1624657757000E+02
(PID.TID 0000.0001) %MON forcing_qnet_del2            =   3.8316596942968E+00
(PID.TID 0000.0001) %MON forcing_qsw_max              =   0.0000000000000E+00
(PID.TID 0000.0001) %MON forcing_qsw_min              =  -1.0705200010997E+02
(PID.TID 0000.0001) %MON forcing_qsw_mean             =  -1.5596922303779E+01
(PID.TID 0000.0001) %MON forcing_qsw_sd               =   2.7527797414991E+01
(PID.TID 0000.0001) %MON forcing_qsw_del2             =   2.2979394281009E-01
(PID.TID 0000.0001) %MON forcing_empmr_max            =   5.6575257331133E-03
(PID.TID 0000.0001) %MON forcing_empmr_min            =  -8.1335172057152E-02
(PID.TID 0000.0001) %MON forcing_empmr_mean           =  -2.4777929038651E-04
(PID.TID 0000.0001) %MON forcing_empmr_sd             =   3.5836453283154E-03
(PID.TID 0000.0001) %MON forcing_empmr_del2           =   1.4133349712798E-04
(PID.TID 0000.0001) %MON forcing_fu_max               =   3.8297822605822E-01
(PID.TID 0000.0001) %MON forcing_fu_min               =  -3.1743059712468E-01
(PID.TID 0000.0001) %MON forcing_fu_mean              =  -2.8874324881093E-03
(PID.TID 0000.0001) %MON forcing_fu_sd                =   6.2081864797769E-02
(PID.TID 0000.0001) %MON forcing_fu_del2              =   6.1138878592321E-04
(PID.TID 0000.0001) %MON forcing_fv_max               =   3.1169699695754E-01
(PID.TID 0000.0001) %MON forcing_fv_min               =  -2.5722263276859E-01
(PID.TID 0000.0001) %MON forcing_fv_mean              =  -1.5100219976120E-02
(PID.TID 0000.0001) %MON forcing_fv_sd                =   6.1402206850186E-02
(PID.TID 0000.0001) %MON forcing_fv_del2              =   5.3592248882411E-04
(PID.TID 0000.0001) %MON trAdv_CFL_u_max              =   2.4002627663322E-03
(PID.TID 0000.0001) %MON trAdv_CFL_v_max              =   1.7761231025259E-03
(PID.TID 0000.0001) %MON trAdv_CFL_w_max              =   1.8855839279859E-03
(PID.TID 0000.0001) %MON advcfl_uvel_max              =   2.3824928298180E-03
(PID.TID 0000.0001) %MON advcfl_vvel_max              =   1.7679263775094E-03
(PID.TID 0000.0001) %MON advcfl_wvel_max              =   2.8290494628575E-03
(PID.TID 0000.0001) %MON advcfl_W_hf_max              =   1.8855839279860E-03
(PID.TID 0000.0001) %MON pe_b_mean                    =   4.9903425584985E-04
(PID.TID 0000.0001) %MON ke_max                       =   2.6332361833712E-01
(PID.TID 0000.0001) %MON ke_mean                      =   1.6665938472615E-04
(PID.TID 0000.0001) %MON ke_vol                       =   1.3398134459753E+18
(PID.TID 0000.0001) %MON vort_r_min                   =  -4.6090389065048E-06
(PID.TID 0000.0001) %MON vort_r_max                   =   2.6374936357695E-06
(PID.TID 0000.0001) %MON vort_a_mean                  =  -2.0549865324846E-05
(PID.TID 0000.0001) %MON vort_a_sd                    =   7.5259740391405E-05
(PID.TID 0000.0001) %MON vort_p_mean                  =  -2.4783263458618E-05
(PID.TID 0000.0001) %MON vort_p_sd                    =   1.2811914901679E-04
(PID.TID 0000.0001) %MON surfExpan_theta_mean         =  -6.4768954006224E-06
(PID.TID 0000.0001) %MON surfExpan_salt_mean          =   1.3232188380503E-06
(PID.TID 0000.0001) // =======================================================
(PID.TID 0000.0001) // End MONITOR dynamic field statistics
(PID.TID 0000.0001) // =======================================================
 cg2d: Sum(rhs),rhsMax =  -7.24922059306074E+01  3.63980026733593E+01
(PID.TID 0000.0001)      cg2d_init_res =   2.60437027747486E-01
(PID.TID 0000.0001)      cg2d_iters(min,last) =      -1      10
(PID.TID 0000.0001)      cg2d_last_res =   5.57495574706103E-08
(PID.TID 0000.0001) // =======================================================
(PID.TID 0000.0001) // Begin MONITOR dynamic field statistics
(PID.TID 0000.0001) // =======================================================
(PID.TID 0000.0001) %MON time_tsnumber                =                 72067
(PID.TID 0000.0001) %MON time_secondsf                =   6.4860300000000E+07
(PID.TID 0000.0001) %MON dynstat_eta_max              =   1.0462290962459E+00
(PID.TID 0000.0001) %MON dynstat_eta_min              =  -1.5718072515422E+00
(PID.TID 0000.0001) %MON dynstat_eta_mean             =   3.0659851093908E-02
(PID.TID 0000.0001) %MON dynstat_eta_sd               =   6.1132126862403E-01
(PID.TID 0000.0001) %MON dynstat_eta_del2             =   1.4603562286034E-03
(PID.TID 0000.0001) %MON dynstat_uvel_max             =   5.5304720559987E-01
(PID.TID 0000.0001) %MON dynstat_uvel_min             =  -8.2170975657407E-01
(PID.TID 0000.0001) %MON dynstat_uvel_mean            =  -2.8493594635047E-04
(PID.TID 0000.0001) %MON dynstat_uvel_sd              =   1.3124011732489E-02
(PID.TID 0000.0001) %MON dynstat_uvel_del2            =   9.3713597744774E-05
(PID.TID 0000.0001) %MON dynstat_vvel_max             =   3.6512726390575E-01
(PID.TID 0000.0001) %MON dynstat_vvel_min             =  -5.8415990271401E-01
(PID.TID 0000.0001) %MON dynstat_vvel_mean            =   5.2374382548056E-04
(PID.TID 0000.0001) %MON dynstat_vvel_sd              =   1.3706009541400E-02
(PID.TID 0000.0001) %MON dynstat_vvel_del2            =   9.4928179683302E-05
(PID.TID 0000.0001) %MON dynstat_wvel_max             =   1.0646246341931E-04
(PID.TID 0000.0001) %MON dynstat_wvel_min             =  -1.9152549320099E-04
(PID.TID 0000.0001) %MON dynstat_wvel_mean            =  -2.1217621249460E-07
(PID.TID 0000.0001) %MON dynstat_wvel_sd              =   7.8429379404800E-06
(PID.TID 0000.0001) %MON dynstat_wvel_del2            =   7.1090205461251E-08
(PID.TID 0000.0001) %MON dynstat_theta_max            =   3.0923881958948E+01
(PID.TID 0000.0001) %MON dynstat_theta_min            =  -3.0079173814676E+00
(PID.TID 0000.0001) %MON dynstat_theta_mean           =   3.9091593296418E+00
(PID.TID 0000.0001) %MON dynstat_theta_sd             =   4.5714849242816E+00
(PID.TID 0000.0001) %MON dynstat_theta_del2           =   2.6405757266362E-03
(PID.TID 0000.0001) %MON dynstat_salt_max             =   4.1347432321487E+01
(PID.TID 0000.0001) %MON dynstat_salt_min             =   1.8519052638568E+01
(PID.TID 0000.0001) %MON dynstat_salt_mean            =   3.4771927415816E+01
(PID.TID 0000.0001) %MON dynstat_salt_sd              =   5.3206236704772E-01
(PID.TID 0000.0001) %MON dynstat_salt_del2            =   1.0874939585634E-03
(PID.TID 0000.0001) %MON dynstat_sst_max              =   3.0923881958948E+01
(PID.TID 0000.0001) %MON dynstat_sst_min              =  -1.8988415019678E+00
(PID.TID 0000.0001) %MON dynstat_sst_mean             =   1.8107537453569E+01
(PID.TID 0000.0001) %MON dynstat_sst_sd               =   9.8118995128469E+00
(PID.TID 0000.0001) %MON dynstat_sst_del2             =   1.5007330321713E-02
(PID.TID 0000.0001) %MON dynstat_sss_max              =   4.1347432321487E+01
(PID.TID 0000.0001) %MON dynstat_sss_min              =   1.8752159027192E+01
(PID.TID 0000.0001) %MON dynstat_sss_mean             =   3.4622577613127E+01
(PID.TID 0000.0001) %MON dynstat_sss_sd               =   1.4852547266582E+00
(PID.TID 0000.0001) %MON dynstat_sss_del2             =   1.2212135225996E-02
(PID.TID 0000.0001) %MON forcing_qnet_max             =   1.7959039306641E+03
(PID.TID 0000.0001) %MON forcing_qnet_min             =  -1.0682426757812E+03
(PID.TID 0000.0001) %MON forcing_qnet_mean            =  -8.3032540176118E+00
(PID.TID 0000.0001) %MON forcing_qnet_sd              =   2.1745999117758E+02
(PID.TID 0000.0001) %MON forcing_qnet_del2            =   3.7755804364088E+00
(PID.TID 0000.0001) %MON forcing_qsw_max              =   0.0000000000000E+00
(PID.TID 0000.0001) %MON forcing_qsw_min              =  -1.0771963775676E+02
(PID.TID 0000.0001) %MON forcing_qsw_mean             =  -1.5718170243469E+01
(PID.TID 0000.0001) %MON forcing_qsw_sd               =   2.7706999069820E+01
(PID.TID 0000.0001) %MON forcing_qsw_del2             =   2.3245121876333E-01
(PID.TID 0000.0001) %MON forcing_empmr_max            =   5.5992705747485E-03
(PID.TID 0000.0001) %MON forcing_empmr_min            =  -8.0496922135353E-02
(PID.TID 0000.0001) %MON forcing_empmr_mean           =  -2.4554925417130E-04
(PID.TID 0000.0001) %MON forcing_empmr_sd             =   3.5472081867842E-03
(PID.TID 0000.0001) %MON forcing_empmr_del2           =   1.3988497914606E-04
(PID.TID 0000.0001) %MON forcing_fu_max               =   3.8472496698029E-01
(PID.TID 0000.0001) %MON forcing_fu_min               =  -3.2027352159305E-01
(PID.TID 0000.0001) %MON forcing_fu_mean              =  -2.9196669442268E-03
(PID.TID 0000.0001) %MON forcing_fu_sd                =   6.2188212690356E-02
(PID.TID 0000.0001) %MON forcing_fu_del2              =   6.1233691704784E-04
(PID.TID 0000.0001) %MON forcing_fv_max               =   3.1160019211309E-01
(PID.TID 0000.0001) %MON forcing_fv_min               =  -2.5511372516801E-01
(PID.TID 0000.0001) %MON forcing_fv_mean              =  -1.4997064364198E-02
(PID.TID 0000.0001) %MON forcing_fv_sd                =   6.1368811850585E-02
(PID.TID 0000.0001) %MON forcing_fv_del2              =   5.3538842599387E-04
(PID.TID 0000.0001) %MON trAdv_CFL_u_max              =   2.4080257298199E-03
(PID.TID 0000.0001) %MON trAdv_CFL_v_max              =   1.7181049004118E-03
(PID.TID 0000.0001) %MON trAdv_CFL_w_max              =   1.8715566877861E-03
(PID.TID 0000.0001) %MON advcfl_uvel_max              =   2.3878960748442E-03
(PID.TID 0000.0001) %MON advcfl_vvel_max              =   1.7079119494013E-03
(PID.TID 0000.0001) %MON advcfl_wvel_max              =   2.7998929438384E-03
(PID.TID 0000.0001) %MON advcfl_W_hf_max              =   1.8715566877861E-03
(PID.TID 0000.0001) %MON pe_b_mean                    =   4.9910386234417E-04
(PID.TID 0000.0001) %MON ke_max                       =   2.5878785146710E-01
(PID.TID 0000.0001) %MON ke_mean                      =   1.6644649058412E-04
(PID.TID 0000.0001) %MON ke_vol                       =   1.3398135243785E+18
(PID.TID 0000.0001) %MON vort_r_min                   =  -4.5488883401140E-06
(PID.TID 0000.0001) %MON vort_r_max                   =   2.4832620063581E-06
(PID.TID 0000.0001) %MON vort_a_mean                  =  -2.0549865324846E-05
(PID.TID 0000.0001) %MON vort_a_sd                    =   7.5259739160630E-05
(PID.TID 0000.0001) %MON vort_p_mean                  =  -2.4783261771099E-05
(PID.TID 0000.0001) %MON vort_p_sd                    =   1.2811916964515E-04
(PID.TID 0000.0001) %MON surfExpan_theta_mean         =  -6.4066325881274E-06
(PID.TID 0000.0001) %MON surfExpan_salt_mean          =   1.3113239467214E-06
(PID.TID 0000.0001) // =======================================================
(PID.TID 0000.0001) // End MONITOR dynamic field statistics
(PID.TID 0000.0001) // =======================================================
 Computing Diagnostic #     81  oceTAUX      Counter:       1   Parms: UU      U1      
           Vector  Mate for  oceTAUX      Diagnostic #     82  oceTAUY  exists 
 Computing Diagnostic #     82  oceTAUY      Counter:       1   Parms: VV      U1      
           Vector  Mate for  oceTAUY      Diagnostic #     81  oceTAUX  exists 
 Computing Diagnostic #     85  oceFWflx     Counter:       1   Parms: SM      U1      
 Computing Diagnostic #     86  oceSflux     Counter:       1   Parms: SM      U1      
 Computing Diagnostic #     87  oceQnet      Counter:       1   Parms: SM      U1      
 Computing Diagnostic #     88  oceQsw       Counter:       1   Parms: SM      U1      
 Computing Diagnostic #     27  SALT         Counter:       1   Parms: SMR     MR      
 Computing Diagnostic #     26  THETA        Counter:       1   Parms: SMR     MR      
 Computing Diagnostic #     45  UVELMASS     Counter:       1   Parms: UUr     MR      
           Vector  Mate for  UVELMASS     Diagnostic #     46  VVELMASS exists 
 Computing Diagnostic #     46  VVELMASS     Counter:       1   Parms: VVr     MR      
           Vector  Mate for  VVELMASS     Diagnostic #     45  UVELMASS exists 
 cg2d: Sum(rhs),rhsMax =  -7.30908767649808E+01  3.63480639724481E+01
(PID.TID 0000.0001)      cg2d_init_res =   2.49096398557651E-01
(PID.TID 0000.0001)      cg2d_iters(min,last) =      -1      10
(PID.TID 0000.0001)      cg2d_last_res =   4.57270263496768E-08
(PID.TID 0000.0001) // =======================================================
(PID.TID 0000.0001) // Begin MONITOR dynamic field statistics
(PID.TID 0000.0001) // =======================================================
(PID.TID 0000.0001) %MON time_tsnumber                =                 72068
(PID.TID 0000.0001) %MON time_secondsf                =   6.4861200000000E+07
(PID.TID 0000.0001) %MON dynstat_eta_max              =   1.0860079916748E+00
(PID.TID 0000.0001) %MON dynstat_eta_min              =  -1.6847669449433E+00
(PID.TID 0000.0001) %MON dynstat_eta_mean             =   3.0870639662884E-02
(PID.TID 0000.0001) %MON dynstat_eta_sd               =   6.1137382023885E-01
(PID.TID 0000.0001) %MON dynstat_eta_del2             =   1.5094999827118E-03
(PID.TID 0000.0001) %MON dynstat_uvel_max             =   5.4404597958086E-01
(PID.TID 0000.0001) %MON dynstat_uvel_min             =  -8.2036156666634E-01
(PID.TID 0000.0001) %MON dynstat_uvel_mean            =  -2.8231604948174E-04
(PID.TID 0000.0001) %MON dynstat_uvel_sd              =   1.3130788061960E-02
(PID.TID 0000.0001) %MON dynstat_uvel_del2            =   9.2716469243571E-05
(PID.TID 0000.0001) %MON dynstat_vvel_max             =   3.5241387439787E-01
(PID.TID 0000.0001) %MON dynstat_vvel_min             =  -5.6052184080744E-01
(PID.TID 0000.0001) %MON dynstat_vvel_mean            =   5.1122915266722E-04
(PID.TID 0000.0001) %MON dynstat_vvel_sd              =   1.3681103460172E-02
(PID.TID 0000.0001) %MON dynstat_vvel_del2            =   9.2857355877108E-05
(PID.TID 0000.0001) %MON dynstat_wvel_max             =   1.0462201290447E-04
(PID.TID 0000.0001) %MON dynstat_wvel_min             =  -1.9155598715316E-04
(PID.TID 0000.0001) %MON dynstat_wvel_mean            =  -1.9813845988994E-07
(PID.TID 0000.0001) %MON dynstat_wvel_sd              =   7.8209207647872E-06
(PID.TID 0000.0001) %MON dynstat_wvel_del2            =   7.0580423760352E-08
(PID.TID 0000.0001) %MON dynstat_theta_max            =   3.0923758788153E+01
(PID.TID 0000.0001) %MON dynstat_theta_min            =  -3.0081337560701E+00
(PID.TID 0000.0001) %MON dynstat_theta_mean           =   3.9091612415015E+00
(PID.TID 0000.0001) %MON dynstat_theta_sd             =   4.5714910275729E+00
(PID.TID 0000.0001) %MON dynstat_theta_del2           =   2.6404620956510E-03
(PID.TID 0000.0001) %MON dynstat_salt_max             =   4.1347363094595E+01
(PID.TID 0000.0001) %MON dynstat_salt_min             =   1.8519062814991E+01
(PID.TID 0000.0001) %MON dynstat_salt_mean            =   3.4771925422507E+01
(PID.TID 0000.0001) %MON dynstat_salt_sd              =   5.3207554319162E-01
(PID.TID 0000.0001) %MON dynstat_salt_del2            =   1.0905900620940E-03
(PID.TID 0000.0001) %MON dynstat_sst_max              =   3.0923758788153E+01
(PID.TID 0000.0001) %MON dynstat_sst_min              =  -1.8989480629439E+00
(PID.TID 0000.0001) %MON dynstat_sst_mean             =   1.8107582185151E+01
(PID.TID 0000.0001) %MON dynstat_sst_sd               =   9.8119739936421E+00
(PID.TID 0000.0001) %MON dynstat_sst_del2             =   1.5005426440354E-02
(PID.TID 0000.0001) %MON dynstat_sss_max              =   4.1347363094595E+01
(PID.TID 0000.0001) %MON dynstat_sss_min              =   1.8752177880934E+01
(PID.TID 0000.0001) %MON dynstat_sss_mean             =   3.4622428248252E+01
(PID.TID 0000.0001) %MON dynstat_sss_sd               =   1.4855936118814E+00
(PID.TID 0000.0001) %MON dynstat_sss_del2             =   1.2255691530567E-02
(PID.TID 0000.0001) %MON forcing_qnet_max             =   1.7757868652344E+03
(PID.TID 0000.0001) %MON forcing_qnet_min             =  -1.0539240722656E+03
(PID.TID 0000.0001) %MON forcing_qnet_mean            =  -1.0163153088519E+01
(PID.TID 0000.0001) %MON forcing_qnet_sd              =   2.1768562454650E+02
(PID.TID 0000.0001) %MON forcing_qnet_del2            =   3.6818773971684E+00
(PID.TID 0000.0001) %MON forcing_qsw_max              =   0.0000000000000E+00
(PID.TID 0000.0001) %MON forcing_qsw_min              =  -1.0819433292248E+02
(PID.TID 0000.0001) %MON forcing_qsw_mean             =  -1.5812215833858E+01
(PID.TID 0000.0001) %MON forcing_qsw_sd               =   2.7815281518664E+01
(PID.TID 0000.0001) %MON forcing_qsw_del2             =   2.3459727541221E-01
(PID.TID 0000.0001) %MON forcing_empmr_max            =   5.5416058748960E-03
(PID.TID 0000.0001) %MON forcing_empmr_min            =  -7.9667903482914E-02
(PID.TID 0000.0001) %MON forcing_empmr_mean           =  -2.4240685432269E-04
(PID.TID 0000.0001) %MON forcing_empmr_sd             =   3.5106942017652E-03
(PID.TID 0000.0001) %MON forcing_empmr_del2           =   1.3843740585505E-04
(PID.TID 0000.0001) %MON forcing_fu_max               =   3.6943079375124E-01
(PID.TID 0000.0001) %MON forcing_fu_min               =  -3.2314202438249E-01
(PID.TID 0000.0001) %MON forcing_fu_mean              =  -2.9952930488342E-03
(PID.TID 0000.0001) %MON forcing_fu_sd                =   6.1986961381492E-02
(PID.TID 0000.0001) %MON forcing_fu_del2              =   6.0977408086689E-04
(PID.TID 0000.0001) %MON forcing_fv_max               =   3.1144322854108E-01
(PID.TID 0000.0001) %MON forcing_fv_min               =  -2.5359365110856E-01
(PID.TID 0000.0001) %MON forcing_fv_mean              =  -1.4920056501693E-02
(PID.TID 0000.0001) %MON forcing_fv_sd                =   6.1328850049424E-02
(PID.TID 0000.0001) %MON forcing_fv_del2              =   5.3454435711027E-04
(PID.TID 0000.0001) %MON trAdv_CFL_u_max              =   2.4064574397841E-03
(PID.TID 0000.0001) %MON trAdv_CFL_v_max              =   1.6506242194049E-03
(PID.TID 0000.0001) %MON trAdv_CFL_w_max              =   1.8523440091693E-03
(PID.TID 0000.0001) %MON advcfl_uvel_max              =   2.3839782226305E-03
(PID.TID 0000.0001) %MON advcfl_vvel_max              =   1.6388012004379E-03
(PID.TID 0000.0001) %MON advcfl_wvel_max              =   2.7710575124492E-03
(PID.TID 0000.0001) %MON advcfl_W_hf_max              =   1.8523440091693E-03
(PID.TID 0000.0001) %MON pe_b_mean                    =   4.9920670988252E-04
(PID.TID 0000.0001) %MON ke_max                       =   2.5230286754465E-01
(PID.TID 0000.0001) %MON ke_mean                      =   1.6620509591728E-04
(PID.TID 0000.0001) %MON ke_vol                       =   1.3398136020759E+18
(PID.TID 0000.0001) %MON vort_r_min                   =  -4.4683020942223E-06
(PID.TID 0000.0001) %MON vort_r_max                   =   2.3060120198602E-06
(PID.TID 0000.0001) %MON vort_a_mean                  =  -2.0549865324846E-05
(PID.TID 0000.0001) %MON vort_a_sd                    =   7.5259737294312E-05
(PID.TID 0000.0001) %MON vort_p_mean                  =  -2.4783260119885E-05
(PID.TID 0000.0001) %MON vort_p_sd                    =   1.2811918576806E-04
(PID.TID 0000.0001) %MON surfExpan_theta_mean         =  -6.3275811445545E-06
(PID.TID 0000.0001) %MON surfExpan_salt_mean          =   1.2970912168439E-06
(PID.TID 0000.0001) // =======================================================
(PID.TID 0000.0001) // End MONITOR dynamic field statistics
(PID.TID 0000.0001) // =======================================================
 cg2d: Sum(rhs),rhsMax =  -7.36783253978022E+01  3.63002711491907E+01
(PID.TID 0000.0001)      cg2d_init_res =   2.37750890589863E-01
(PID.TID 0000.0001)      cg2d_iters(min,last) =      -1      10
(PID.TID 0000.0001)      cg2d_last_res =   6.02529402981384E-08
(PID.TID 0000.0001) // =======================================================
(PID.TID 0000.0001) // Begin MONITOR dynamic field statistics
(PID.TID 0000.0001) // =======================================================
(PID.TID 0000.0001) %MON time_tsnumber                =                 72069
(PID.TID 0000.0001) %MON time_secondsf                =   6.4862100000000E+07
(PID.TID 0000.0001) %MON dynstat_eta_max              =   1.1345231353467E+00
(PID.TID 0000.0001) %MON dynstat_eta_min              =  -1.8313528913757E+00
(PID.TID 0000.0001) %MON dynstat_eta_mean             =   3.1077837298990E-02
(PID.TID 0000.0001) %MON dynstat_eta_sd               =   6.1143785229309E-01
(PID.TID 0000.0001) %MON dynstat_eta_del2             =   1.5596644752202E-03
(PID.TID 0000.0001) %MON dynstat_uvel_max             =   5.2847098270408E-01
(PID.TID 0000.0001) %MON dynstat_uvel_min             =  -8.1569171654960E-01
(PID.TID 0000.0001) %MON dynstat_uvel_mean            =  -2.8171883491886E-04
(PID.TID 0000.0001) %MON dynstat_uvel_sd              =   1.3132801227783E-02
(PID.TID 0000.0001) %MON dynstat_uvel_del2            =   9.1693343152063E-05
(PID.TID 0000.0001) %MON dynstat_vvel_max             =   3.3861272303942E-01
(PID.TID 0000.0001) %MON dynstat_vvel_min             =  -5.3391950953670E-01
(PID.TID 0000.0001) %MON dynstat_vvel_mean            =   4.9674228134428E-04
(PID.TID 0000.0001) %MON dynstat_vvel_sd              =   1.3659843050264E-02
(PID.TID 0000.0001) %MON dynstat_vvel_del2            =   9.0791232306296E-05
(PID.TID 0000.0001) %MON dynstat_wvel_max             =   1.0443756326201E-04
(PID.TID 0000.0001) %MON dynstat_wvel_min             =  -1.9157768290558E-04
(PID.TID 0000.0001) %MON dynstat_wvel_mean            =  -1.8617040113519E-07
(PID.TID 0000.0001) %MON dynstat_wvel_sd              =   7.8016890528468E-06
(PID.TID 0000.0001) %MON dynstat_wvel_del2            =   7.0140118407293E-08
(PID.TID 0000.0001) %MON dynstat_theta_max            =   3.0923629262122E+01
(PID.TID 0000.0001) %MON dynstat_theta_min            =  -3.0083703588899E+00
(PID.TID 0000.0001) %MON dynstat_theta_mean           =   3.9091633551559E+00
(PID.TID 0000.0001) %MON dynstat_theta_sd             =   4.5714979629442E+00
(PID.TID 0000.0001) %MON dynstat_theta_del2           =   2.6403467613766E-03
(PID.TID 0000.0001) %MON dynstat_salt_max             =   4.1347302011779E+01
(PID.TID 0000.0001) %MON dynstat_salt_min             =   1.8519072970322E+01
(PID.TID 0000.0001) %MON dynstat_salt_mean            =   3.4771923465058E+01
(PID.TID 0000.0001) %MON dynstat_salt_sd              =   5.3208852838779E-01
(PID.TID 0000.0001) %MON dynstat_salt_del2            =   1.0936249888643E-03
(PID.TID 0000.0001) %MON dynstat_sst_max              =   3.0923629262122E+01
(PID.TID 0000.0001) %MON dynstat_sst_min              =  -1.8990420111591E+00
(PID.TID 0000.0001) %MON dynstat_sst_mean             =   1.8107640278648E+01
(PID.TID 0000.0001) %MON dynstat_sst_sd               =   9.8120564008836E+00
(PID.TID 0000.0001) %MON dynstat_sst_del2             =   1.5003498139540E-02
(PID.TID 0000.0001) %MON dynstat_sss_max              =   4.1347302011779E+01
(PID.TID 0000.0001) %MON dynstat_sss_min              =   1.8752196375228E+01
(PID.TID 0000.0001) %MON dynstat_sss_mean             =   3.4622280777225E+01
(PID.TID 0000.0001) %MON dynstat_sss_sd               =   1.4859274675012E+00
(PID.TID 0000.0001) %MON dynstat_sss_del2             =   1.2298365571875E-02
(PID.TID 0000.0001) %MON forcing_qnet_max             =   1.7549234619141E+03
(PID.TID 0000.0001) %MON forcing_qnet_min             =  -1.2555029296875E+03
(PID.TID 0000.0001) %MON forcing_qnet_mean            =  -1.3803816907111E+01
(PID.TID 0000.0001) %MON forcing_qnet_sd              =   2.1875873695350E+02
(PID.TID 0000.0001) %MON forcing_qnet_del2            =   3.7085280912239E+00
(PID.TID 0000.0001) %MON forcing_qsw_max              =   0.0000000000000E+00
(PID.TID 0000.0001) %MON forcing_qsw_min              =  -1.0828682888722E+02
(PID.TID 0000.0001) %MON forcing_qsw_mean             =  -1.6210446242934E+01
(PID.TID 0000.0001) %MON forcing_qsw_sd               =   2.8029078532331E+01
(PID.TID 0000.0001) %MON forcing_qsw_del2             =   2.3850771470036E-01
(PID.TID 0000.0001) %MON forcing_empmr_max            =   5.4845316335559E-03
(PID.TID 0000.0001) %MON forcing_empmr_min            =  -7.8848116099834E-02
(PID.TID 0000.0001) %MON forcing_empmr_mean           =  -2.3827728152184E-04
(PID.TID 0000.0001) %MON forcing_empmr_sd             =   3.4724413577325E-03
(PID.TID 0000.0001) %MON forcing_empmr_del2           =   1.3699114097108E-04
(PID.TID 0000.0001) %MON forcing_fu_max               =   3.5837322898193E-01
(PID.TID 0000.0001) %MON forcing_fu_min               =  -3.3081387985563E-01
(PID.TID 0000.0001) %MON forcing_fu_mean              =  -3.0717860340819E-03
(PID.TID 0000.0001) %MON forcing_fu_sd                =   6.1833674212060E-02
(PID.TID 0000.0001) %MON forcing_fu_del2              =   6.0869402466910E-04
(PID.TID 0000.0001) %MON forcing_fv_max               =   3.1226134680560E-01
(PID.TID 0000.0001) %MON forcing_fv_min               =  -2.5241123338215E-01
(PID.TID 0000.0001) %MON forcing_fv_mean              =  -1.4877792856976E-02
(PID.TID 0000.0001) %MON forcing_fv_sd                =   6.1291535607563E-02
(PID.TID 0000.0001) %MON forcing_fv_del2              =   5.3385535363946E-04
(PID.TID 0000.0001) %MON trAdv_CFL_u_max              =   2.3951639684020E-03
(PID.TID 0000.0001) %MON trAdv_CFL_v_max              =   1.5740869305826E-03
(PID.TID 0000.0001) %MON trAdv_CFL_w_max              =   1.8280612152437E-03
(PID.TID 0000.0001) %MON advcfl_uvel_max              =   2.3704075954417E-03
(PID.TID 0000.0001) %MON advcfl_vvel_max              =   1.5610237986544E-03
(PID.TID 0000.0001) %MON advcfl_wvel_max              =   2.7425431686899E-03
(PID.TID 0000.0001) %MON advcfl_W_hf_max              =   1.8280612152437E-03
(PID.TID 0000.0001) %MON pe_b_mean                    =   4.9932808857559E-04
(PID.TID 0000.0001) %MON ke_max                       =   2.4391499009517E-01
(PID.TID 0000.0001) %MON ke_mean                      =   1.6595280113295E-04
(PID.TID 0000.0001) %MON ke_vol                       =   1.3398136787791E+18
(PID.TID 0000.0001) %MON vort_r_min                   =  -4.3673837607806E-06
(PID.TID 0000.0001) %MON vort_r_max                   =   2.2083599543511E-06
(PID.TID 0000.0001) %MON vort_a_mean                  =  -2.0549865324846E-05
(PID.TID 0000.0001) %MON vort_a_sd                    =   7.5259734849071E-05
(PID.TID 0000.0001) %MON vort_p_mean                  =  -2.4783258501275E-05
(PID.TID 0000.0001) %MON vort_p_sd                    =   1.2811919748825E-04
(PID.TID 0000.0001) %MON surfExpan_theta_mean         =  -6.2606803965793E-06
(PID.TID 0000.0001) %MON surfExpan_salt_mean          =   1.2806546184829E-06
(PID.TID 0000.0001) // =======================================================
(PID.TID 0000.0001) // End MONITOR dynamic field statistics
(PID.TID 0000.0001) // =======================================================
 cg2d: Sum(rhs),rhsMax =  -7.42535549669117E+01  3.62556490343899E+01
(PID.TID 0000.0001)      cg2d_init_res =   2.26826482692811E-01
(PID.TID 0000.0001)      cg2d_iters(min,last) =      -1      10
(PID.TID 0000.0001)      cg2d_last_res =   7.47321441359588E-08
(PID.TID 0000.0001) // =======================================================
(PID.TID 0000.0001) // Begin MONITOR dynamic field statistics
(PID.TID 0000.0001) // =======================================================
(PID.TID 0000.0001) %MON time_tsnumber                =                 72070
(PID.TID 0000.0001) %MON time_secondsf                =   6.4863000000000E+07
(PID.TID 0000.0001) %MON dynstat_eta_max              =   1.1785244346024E+00
(PID.TID 0000.0001) %MON dynstat_eta_min              =  -1.9455441530922E+00
(PID.TID 0000.0001) %MON dynstat_eta_mean             =   3.1281970931470E-02
(PID.TID 0000.0001) %MON dynstat_eta_sd               =   6.1150610965880E-01
(PID.TID 0000.0001) %MON dynstat_eta_del2             =   1.6067511946356E-03
(PID.TID 0000.0001) %MON dynstat_uvel_max             =   5.0672697157650E-01
(PID.TID 0000.0001) %MON dynstat_uvel_min             =  -8.0762927622382E-01
(PID.TID 0000.0001) %MON dynstat_uvel_mean            =  -2.8302739876467E-04
(PID.TID 0000.0001) %MON dynstat_uvel_sd              =   1.3130771626767E-02
(PID.TID 0000.0001) %MON dynstat_uvel_del2            =   9.0670473423009E-05
(PID.TID 0000.0001) %MON dynstat_vvel_max             =   3.2384984589023E-01
(PID.TID 0000.0001) %MON dynstat_vvel_min             =  -5.0452774076171E-01
(PID.TID 0000.0001) %MON dynstat_vvel_mean            =   4.8053276965092E-04
(PID.TID 0000.0001) %MON dynstat_vvel_sd              =   1.3642763996992E-02
(PID.TID 0000.0001) %MON dynstat_vvel_del2            =   8.8850435137895E-05
(PID.TID 0000.0001) %MON dynstat_wvel_max             =   1.0427623718226E-04
(PID.TID 0000.0001) %MON dynstat_wvel_min             =  -1.9159013133661E-04
(PID.TID 0000.0001) %MON dynstat_wvel_mean            =  -1.7540140393218E-07
(PID.TID 0000.0001) %MON dynstat_wvel_sd              =   7.7860932903778E-06
(PID.TID 0000.0001) %MON dynstat_wvel_del2            =   6.9787257943478E-08
(PID.TID 0000.0001) %MON dynstat_theta_max            =   3.0923494333224E+01
(PID.TID 0000.0001) %MON dynstat_theta_min            =  -3.0086305061436E+00
(PID.TID 0000.0001) %MON dynstat_theta_mean           =   3.9091655976543E+00
(PID.TID 0000.0001) %MON dynstat_theta_sd             =   4.5715053907313E+00
(PID.TID 0000.0001) %MON dynstat_theta_del2           =   2.6402422425912E-03
(PID.TID 0000.0001) %MON dynstat_salt_max             =   4.1347247521207E+01
(PID.TID 0000.0001) %MON dynstat_salt_min             =   1.8519083104173E+01
(PID.TID 0000.0001) %MON dynstat_salt_mean            =   3.4771921558147E+01
(PID.TID 0000.0001) %MON dynstat_salt_sd              =   5.3210133528147E-01
(PID.TID 0000.0001) %MON dynstat_salt_del2            =   1.0966026787858E-03
(PID.TID 0000.0001) %MON dynstat_sst_max              =   3.0923494333224E+01
(PID.TID 0000.0001) %MON dynstat_sst_min              =  -1.8991219638829E+00
(PID.TID 0000.0001) %MON dynstat_sst_mean             =   1.8107706553263E+01
(PID.TID 0000.0001) %MON dynstat_sst_sd               =   9.8121422446621E+00
(PID.TID 0000.0001) %MON dynstat_sst_del2             =   1.5001853586438E-02
(PID.TID 0000.0001) %MON dynstat_sss_max              =   4.1347247521207E+01
(PID.TID 0000.0001) %MON dynstat_sss_min              =   1.8752214631106E+01
(PID.TID 0000.0001) %MON dynstat_sss_mean             =   3.4622136189803E+01
(PID.TID 0000.0001) %MON dynstat_sss_sd               =   1.4862568203004E+00
(PID.TID 0000.0001) %MON dynstat_sss_del2             =   1.2340208712288E-02
(PID.TID 0000.0001) %MON forcing_qnet_max             =   1.7352911376953E+03
(PID.TID 0000.0001) %MON forcing_qnet_min             =  -2.9917050781250E+03
(PID.TID 0000.0001) %MON forcing_qnet_mean            =  -1.6337625034311E+01
(PID.TID 0000.0001) %MON forcing_qnet_sd              =   2.2509738037623E+02
(PID.TID 0000.0001) %MON forcing_qnet_del2            =   4.4897680639100E+00
(PID.TID 0000.0001) %MON forcing_qsw_max              =   0.0000000000000E+00
(PID.TID 0000.0001) %MON forcing_qsw_min              =  -1.0788726123612E+02
(PID.TID 0000.0001) %MON forcing_qsw_mean             =  -1.6398278830788E+01
(PID.TID 0000.0001) %MON forcing_qsw_sd               =   2.8098146354561E+01
(PID.TID 0000.0001) %MON forcing_qsw_del2             =   2.4051997907641E-01
(PID.TID 0000.0001) %MON forcing_empmr_max            =   5.4280483163893E-03
(PID.TID 0000.0001) %MON forcing_empmr_min            =  -7.8035883605480E-02
(PID.TID 0000.0001) %MON forcing_empmr_mean           =  -2.3475367735202E-04
(PID.TID 0000.0001) %MON forcing_empmr_sd             =   3.4367197606463E-03
(PID.TID 0000.0001) %MON forcing_empmr_del2           =   1.3558267439002E-04
(PID.TID 0000.0001) %MON forcing_fu_max               =   3.6248083318601E-01
(PID.TID 0000.0001) %MON forcing_fu_min               =  -3.4176527768385E-01
(PID.TID 0000.0001) %MON forcing_fu_mean              =  -3.0908382030933E-03
(PID.TID 0000.0001) %MON forcing_fu_sd                =   6.1920300174890E-02
(PID.TID 0000.0001) %MON forcing_fu_del2              =   6.0931329943838E-04
(PID.TID 0000.0001) %MON forcing_fv_max               =   3.1298170581252E-01
(PID.TID 0000.0001) %MON forcing_fv_min               =  -2.5112281013658E-01
(PID.TID 0000.0001) %MON forcing_fv_mean              =  -1.4853528392611E-02
(PID.TID 0000.0001) %MON forcing_fv_sd                =   6.1258856331893E-02
(PID.TID 0000.0001) %MON forcing_fv_del2              =   5.3285623102181E-04
(PID.TID 0000.0001) %MON trAdv_CFL_u_max              =   2.3738750391166E-03
(PID.TID 0000.0001) %MON trAdv_CFL_v_max              =   1.4889918544772E-03
(PID.TID 0000.0001) %MON trAdv_CFL_w_max              =   1.7988607812621E-03
(PID.TID 0000.0001) %MON advcfl_uvel_max              =   2.3469780700484E-03
(PID.TID 0000.0001) %MON advcfl_vvel_max              =   1.4750909010494E-03
(PID.TID 0000.0001) %MON advcfl_wvel_max              =   2.7142916036689E-03
(PID.TID 0000.0001) %MON advcfl_W_hf_max              =   1.7988607812621E-03
(PID.TID 0000.0001) %MON pe_b_mean                    =   4.9945622178999E-04
(PID.TID 0000.0001) %MON ke_max                       =   2.3373947181359E-01
(PID.TID 0000.0001) %MON ke_mean                      =   1.6570499280021E-04
(PID.TID 0000.0001) %MON ke_vol                       =   1.3398137541756E+18
(PID.TID 0000.0001) %MON vort_r_min                   =  -4.2464669437486E-06
(PID.TID 0000.0001) %MON vort_r_max                   =   2.1643654155499E-06
(PID.TID 0000.0001) %MON vort_a_mean                  =  -2.0549865324846E-05
(PID.TID 0000.0001) %MON vort_a_sd                    =   7.5259731886017E-05
(PID.TID 0000.0001) %MON vort_p_mean                  =  -2.4783256910180E-05
(PID.TID 0000.0001) %MON vort_p_sd                    =   1.2811920527939E-04
(PID.TID 0000.0001) %MON surfExpan_theta_mean         =  -6.2019083102139E-06
(PID.TID 0000.0001) %MON surfExpan_salt_mean          =   1.2635546676954E-06
(PID.TID 0000.0001) // =======================================================
(PID.TID 0000.0001) // End MONITOR dynamic field statistics
(PID.TID 0000.0001) // =======================================================
 cg2d: Sum(rhs),rhsMax =  -7.48175518256599E+01  3.62149591842432E+01
(PID.TID 0000.0001)      cg2d_init_res =   2.16789784767309E-01
(PID.TID 0000.0001)      cg2d_iters(min,last) =      -1      10
(PID.TID 0000.0001)      cg2d_last_res =   8.36549991019088E-08
(PID.TID 0000.0001) // =======================================================
(PID.TID 0000.0001) // Begin MONITOR dynamic field statistics
(PID.TID 0000.0001) // =======================================================
(PID.TID 0000.0001) %MON time_tsnumber                =                 72071
(PID.TID 0000.0001) %MON time_secondsf                =   6.4863900000000E+07
(PID.TID 0000.0001) %MON dynstat_eta_max              =   1.2175756361766E+00
(PID.TID 0000.0001) %MON dynstat_eta_min              =  -2.0270080615212E+00
(PID.TID 0000.0001) %MON dynstat_eta_mean             =   3.1484200282850E-02
(PID.TID 0000.0001) %MON dynstat_eta_sd               =   6.1157200910772E-01
(PID.TID 0000.0001) %MON dynstat_eta_del2             =   1.6475711064574E-03
(PID.TID 0000.0001) %MON dynstat_uvel_max             =   4.7929339661127E-01
(PID.TID 0000.0001) %MON dynstat_uvel_min             =  -7.9614740406973E-01
(PID.TID 0000.0001) %MON dynstat_uvel_mean            =  -2.8617578272225E-04
(PID.TID 0000.0001) %MON dynstat_uvel_sd              =   1.3124969272703E-02
(PID.TID 0000.0001) %MON dynstat_uvel_del2            =   8.9671608085990E-05
(PID.TID 0000.0001) %MON dynstat_vvel_max             =   3.0826106663417E-01
(PID.TID 0000.0001) %MON dynstat_vvel_min             =  -4.7254164663844E-01
(PID.TID 0000.0001) %MON dynstat_vvel_mean            =   4.6285943240680E-04
(PID.TID 0000.0001) %MON dynstat_vvel_sd              =   1.3630250130337E-02
(PID.TID 0000.0001) %MON dynstat_vvel_del2            =   8.7145987923390E-05
(PID.TID 0000.0001) %MON dynstat_wvel_max             =   1.0413685634594E-04
(PID.TID 0000.0001) %MON dynstat_wvel_min             =  -1.9159458374682E-04
(PID.TID 0000.0001) %MON dynstat_wvel_mean            =  -1.6603572329656E-07
(PID.TID 0000.0001) %MON dynstat_wvel_sd              =   7.7735127976352E-06
(PID.TID 0000.0001) %MON dynstat_wvel_del2            =   6.9504918092964E-08
(PID.TID 0000.0001) %MON dynstat_theta_max            =   3.0923352584001E+01
(PID.TID 0000.0001) %MON dynstat_theta_min            =  -3.0089167005448E+00
(PID.TID 0000.0001) %MON dynstat_theta_mean           =   3.9091678757050E+00
(PID.TID 0000.0001) %MON dynstat_theta_sd             =   4.5715130070360E+00
(PID.TID 0000.0001) %MON dynstat_theta_del2           =   2.6401318693066E-03
(PID.TID 0000.0001) %MON dynstat_salt_max             =   4.1347198404514E+01
(PID.TID 0000.0001) %MON dynstat_salt_min             =   1.8519093216634E+01
(PID.TID 0000.0001) %MON dynstat_salt_mean            =   3.4771919673716E+01
(PID.TID 0000.0001) %MON dynstat_salt_sd              =   5.3211395074473E-01
(PID.TID 0000.0001) %MON dynstat_salt_del2            =   1.0995202254082E-03
(PID.TID 0000.0001) %MON dynstat_sst_max              =   3.0923352584001E+01
(PID.TID 0000.0001) %MON dynstat_sst_min              =  -1.8991867576768E+00
(PID.TID 0000.0001) %MON dynstat_sst_mean             =   1.8107774793411E+01
(PID.TID 0000.0001) %MON dynstat_sst_sd               =   9.8122313526821E+00
(PID.TID 0000.0001) %MON dynstat_sst_del2             =   1.5000029740482E-02
(PID.TID 0000.0001) %MON dynstat_sss_max              =   4.1347198404514E+01
(PID.TID 0000.0001) %MON dynstat_sss_min              =   1.8752232588363E+01
(PID.TID 0000.0001) %MON dynstat_sss_mean             =   3.4621992878405E+01
(PID.TID 0000.0001) %MON dynstat_sss_sd               =   1.4865810875283E+00
(PID.TID 0000.0001) %MON dynstat_sss_del2             =   1.2381180475216E-02
(PID.TID 0000.0001) %MON forcing_qnet_max             =   1.7158929443359E+03
(PID.TID 0000.0001) %MON forcing_qnet_min             =  -2.6986140136719E+03
(PID.TID 0000.0001) %MON forcing_qnet_mean            =  -1.7137846312521E+01
(PID.TID 0000.0001) %MON forcing_qnet_sd              =   2.2220843946055E+02
(PID.TID 0000.0001) %MON forcing_qnet_del2            =   4.1621416294795E+00
(PID.TID 0000.0001) %MON forcing_qsw_max              =   0.0000000000000E+00
(PID.TID 0000.0001) %MON forcing_qsw_min              =  -1.0705206497224E+02
(PID.TID 0000.0001) %MON forcing_qsw_mean             =  -1.6555689282065E+01
(PID.TID 0000.0001) %MON forcing_qsw_sd               =   2.8099844116124E+01
(PID.TID 0000.0001) %MON forcing_qsw_del2             =   2.4188803611610E-01
(PID.TID 0000.0001) %MON forcing_empmr_max            =   5.3721549920738E-03
(PID.TID 0000.0001) %MON forcing_empmr_min            =  -7.7232040464878E-02
(PID.TID 0000.0001) %MON forcing_empmr_mean           =  -2.3256375408704E-04
(PID.TID 0000.0001) %MON forcing_empmr_sd             =   3.4014618045283E-03
(PID.TID 0000.0001) %MON forcing_empmr_del2           =   1.3417648366872E-04
(PID.TID 0000.0001) %MON forcing_fu_max               =   3.5734210725775E-01
(PID.TID 0000.0001) %MON forcing_fu_min               =  -3.3014675495189E-01
(PID.TID 0000.0001) %MON forcing_fu_mean              =  -3.1350773179061E-03
(PID.TID 0000.0001) %MON forcing_fu_sd                =   6.1621312418763E-02
(PID.TID 0000.0001) %MON forcing_fu_del2              =   6.0648822321974E-04
(PID.TID 0000.0001) %MON forcing_fv_max               =   3.1385831654691E-01
(PID.TID 0000.0001) %MON forcing_fv_min               =  -2.5024615094269E-01
(PID.TID 0000.0001) %MON forcing_fv_mean              =  -1.4808895914513E-02
(PID.TID 0000.0001) %MON forcing_fv_sd                =   6.1215733415272E-02
(PID.TID 0000.0001) %MON forcing_fv_del2              =   5.3263997076994E-04
(PID.TID 0000.0001) %MON trAdv_CFL_u_max              =   2.3424486202050E-03
(PID.TID 0000.0001) %MON trAdv_CFL_v_max              =   1.3959083484371E-03
(PID.TID 0000.0001) %MON trAdv_CFL_w_max              =   1.7649317885202E-03
(PID.TID 0000.0001) %MON advcfl_uvel_max              =   2.3136116444592E-03
(PID.TID 0000.0001) %MON advcfl_vvel_max              =   1.3815729582499E-03
(PID.TID 0000.0001) %MON advcfl_wvel_max              =   2.6863318422566E-03
(PID.TID 0000.0001) %MON advcfl_W_hf_max              =   1.7649317885202E-03
(PID.TID 0000.0001) %MON pe_b_mean                    =   4.9958047700731E-04
(PID.TID 0000.0001) %MON ke_max                       =   2.2651127660092E-01
(PID.TID 0000.0001) %MON ke_mean                      =   1.6546978262044E-04
(PID.TID 0000.0001) %MON ke_vol                       =   1.3398138284571E+18
(PID.TID 0000.0001) %MON vort_r_min                   =  -4.1060936479166E-06
(PID.TID 0000.0001) %MON vort_r_max                   =   2.1197450668187E-06
(PID.TID 0000.0001) %MON vort_a_mean                  =  -2.0549865324846E-05
(PID.TID 0000.0001) %MON vort_a_sd                    =   7.5259728456188E-05
(PID.TID 0000.0001) %MON vort_p_mean                  =  -2.4783255342609E-05
(PID.TID 0000.0001) %MON vort_p_sd                    =   1.2811920980227E-04
(PID.TID 0000.0001) %MON surfExpan_theta_mean         =  -6.1637100718418E-06
(PID.TID 0000.0001) %MON surfExpan_salt_mean          =   1.2462479947613E-06
(PID.TID 0000.0001) // =======================================================
(PID.TID 0000.0001) // End MONITOR dynamic field statistics
(PID.TID 0000.0001) // =======================================================
 Computing Diagnostic #     81  oceTAUX      Counter:       1   Parms: UU      U1      
           Vector  Mate for  oceTAUX      Diagnostic #     82  oceTAUY  exists 
 Computing Diagnostic #     82  oceTAUY      Counter:       1   Parms: VV      U1      
           Vector  Mate for  oceTAUY      Diagnostic #     81  oceTAUX  exists 
 Computing Diagnostic #     85  oceFWflx     Counter:       1   Parms: SM      U1      
 Computing Diagnostic #     86  oceSflux     Counter:       1   Parms: SM      U1      
 Computing Diagnostic #     87  oceQnet      Counter:       1   Parms: SM      U1      
 Computing Diagnostic #     88  oceQsw       Counter:       1   Parms: SM      U1      
 Computing Diagnostic #     27  SALT         Counter:       1   Parms: SMR     MR      
 Computing Diagnostic #     26  THETA        Counter:       1   Parms: SMR     MR      
 Computing Diagnostic #     45  UVELMASS     Counter:       1   Parms: UUr     MR      
           Vector  Mate for  UVELMASS     Diagnostic #     46  VVELMASS exists 
 Computing Diagnostic #     46  VVELMASS     Counter:       1   Parms: VVr     MR      
           Vector  Mate for  VVELMASS     Diagnostic #     45  UVELMASS exists 
 cg2d: Sum(rhs),rhsMax =  -7.40072111969276E+01  3.68446325764695E+01
(PID.TID 0000.0001)      cg2d_init_res =   2.04187583464001E-01
(PID.TID 0000.0001)      cg2d_iters(min,last) =      -1      10
(PID.TID 0000.0001)      cg2d_last_res =   8.65930154532230E-08
(PID.TID 0000.0001) // =======================================================
(PID.TID 0000.0001) // Begin MONITOR dynamic field statistics
(PID.TID 0000.0001) // =======================================================
(PID.TID 0000.0001) %MON time_tsnumber                =                 72072
(PID.TID 0000.0001) %MON time_secondsf                =   6.4864800000000E+07
(PID.TID 0000.0001) %MON dynstat_eta_max              =   1.2512561131179E+00
(PID.TID 0000.0001) %MON dynstat_eta_min              =  -2.0759452357806E+00
(PID.TID 0000.0001) %MON dynstat_eta_mean             =   3.1684688533438E-02
(PID.TID 0000.0001) %MON dynstat_eta_sd               =   6.1162904847301E-01
(PID.TID 0000.0001) %MON dynstat_eta_del2             =   1.6797517646149E-03
(PID.TID 0000.0001) %MON dynstat_uvel_max             =   4.4671592414795E-01
(PID.TID 0000.0001) %MON dynstat_uvel_min             =  -7.8126455708984E-01
(PID.TID 0000.0001) %MON dynstat_uvel_mean            =  -2.9109793378043E-04
(PID.TID 0000.0001) %MON dynstat_uvel_sd              =   1.3116111783608E-02
(PID.TID 0000.0001) %MON dynstat_uvel_del2            =   8.8721048826820E-05
(PID.TID 0000.0001) %MON dynstat_vvel_max             =   2.9199034451443E-01
(PID.TID 0000.0001) %MON dynstat_vvel_min             =  -4.3818014355324E-01
(PID.TID 0000.0001) %MON dynstat_vvel_mean            =   4.4394077892368E-04
(PID.TID 0000.0001) %MON dynstat_vvel_sd              =   1.3622458874426E-02
(PID.TID 0000.0001) %MON dynstat_vvel_del2            =   8.5768161631451E-05
(PID.TID 0000.0001) %MON dynstat_wvel_max             =   1.0402274703550E-04
(PID.TID 0000.0001) %MON dynstat_wvel_min             =  -1.9159302958066E-04
(PID.TID 0000.0001) %MON dynstat_wvel_mean            =  -1.5707931337154E-07
(PID.TID 0000.0001) %MON dynstat_wvel_sd              =   7.7634226240238E-06
(PID.TID 0000.0001) %MON dynstat_wvel_del2            =   6.9284699051158E-08
(PID.TID 0000.0001) %MON dynstat_theta_max            =   3.0923203775095E+01
(PID.TID 0000.0001) %MON dynstat_theta_min            =  -3.0092304449306E+00
(PID.TID 0000.0001) %MON dynstat_theta_mean           =   3.9091701737681E+00
(PID.TID 0000.0001) %MON dynstat_theta_sd             =   4.5715207766150E+00
(PID.TID 0000.0001) %MON dynstat_theta_del2           =   2.6400154224890E-03
(PID.TID 0000.0001) %MON dynstat_salt_max             =   4.1347153509813E+01
(PID.TID 0000.0001) %MON dynstat_salt_min             =   1.8519103308318E+01
(PID.TID 0000.0001) %MON dynstat_salt_mean            =   3.4771917806847E+01
(PID.TID 0000.0001) %MON dynstat_salt_sd              =   5.3212637022572E-01
(PID.TID 0000.0001) %MON dynstat_salt_del2            =   1.1023773528810E-03
(PID.TID 0000.0001) %MON dynstat_sst_max              =   3.0923203775095E+01
(PID.TID 0000.0001) %MON dynstat_sst_min              =  -1.8992365943376E+00
(PID.TID 0000.0001) %MON dynstat_sst_mean             =   1.8107844322835E+01
(PID.TID 0000.0001) %MON dynstat_sst_sd               =   9.8123240233753E+00
(PID.TID 0000.0001) %MON dynstat_sst_del2             =   1.4998020421742E-02
(PID.TID 0000.0001) %MON dynstat_sss_max              =   4.1347153509813E+01
(PID.TID 0000.0001) %MON dynstat_sss_min              =   1.8752250166583E+01
(PID.TID 0000.0001) %MON dynstat_sss_mean             =   3.4621850601885E+01
(PID.TID 0000.0001) %MON dynstat_sss_sd               =   1.4869000473269E+00
(PID.TID 0000.0001) %MON dynstat_sss_del2             =   1.2421278387797E-02
(PID.TID 0000.0001) %MON forcing_qnet_max             =   1.6957645263672E+03
(PID.TID 0000.0001) %MON forcing_qnet_min             =  -1.1015335693359E+03
(PID.TID 0000.0001) %MON forcing_qnet_mean            =  -1.7727244657630E+01
(PID.TID 0000.0001) %MON forcing_qnet_sd              =   2.1815776929016E+02
(PID.TID 0000.0001) %MON forcing_qnet_del2            =   3.6659176434225E+00
(PID.TID 0000.0001) %MON forcing_qsw_max              =   0.0000000000000E+00
(PID.TID 0000.0001) %MON forcing_qsw_min              =  -1.0674733475951E+02
(PID.TID 0000.0001) %MON forcing_qsw_mean             =  -1.6681393817910E+01
(PID.TID 0000.0001) %MON forcing_qsw_sd               =   2.8034044919515E+01
(PID.TID 0000.0001) %MON forcing_qsw_del2             =   2.4257993445592E-01
(PID.TID 0000.0001) %MON forcing_empmr_max            =   5.3167534060776E-03
(PID.TID 0000.0001) %MON forcing_empmr_min            =  -7.6437421143055E-02
(PID.TID 0000.0001) %MON forcing_empmr_mean           =  -2.3056148817570E-04
(PID.TID 0000.0001) %MON forcing_empmr_sd             =   3.3666006459354E-03
(PID.TID 0000.0001) %MON forcing_empmr_del2           =   1.3277352456303E-04
(PID.TID 0000.0001) %MON forcing_fu_max               =   3.5182164524941E-01
(PID.TID 0000.0001) %MON forcing_fu_min               =  -3.4137379821829E-01
(PID.TID 0000.0001) %MON forcing_fu_mean              =  -3.2084201938059E-03
(PID.TID 0000.0001) %MON forcing_fu_sd                =   6.1405574645293E-02
(PID.TID 0000.0001) %MON forcing_fu_del2              =   6.0528330660868E-04
(PID.TID 0000.0001) %MON forcing_fv_max               =   3.1205583298159E-01
(PID.TID 0000.0001) %MON forcing_fv_min               =  -2.4946678263854E-01
(PID.TID 0000.0001) %MON forcing_fv_mean              =  -1.4766535298681E-02
(PID.TID 0000.0001) %MON forcing_fv_sd                =   6.1230089734567E-02
(PID.TID 0000.0001) %MON forcing_fv_del2              =   5.3201180759144E-04
(PID.TID 0000.0001) %MON trAdv_CFL_u_max              =   2.3008782975840E-03
(PID.TID 0000.0001) %MON trAdv_CFL_v_max              =   1.2954862877178E-03
(PID.TID 0000.0001) %MON trAdv_CFL_w_max              =   1.7265136508865E-03
(PID.TID 0000.0001) %MON advcfl_uvel_max              =   2.2703619548925E-03
(PID.TID 0000.0001) %MON advcfl_vvel_max              =   1.2811100174593E-03
(PID.TID 0000.0001) %MON advcfl_wvel_max              =   2.6586929093237E-03
(PID.TID 0000.0001) %MON advcfl_W_hf_max              =   1.7265136508865E-03
(PID.TID 0000.0001) %MON pe_b_mean                    =   4.9969026759174E-04
(PID.TID 0000.0001) %MON ke_max                       =   2.2623591262157E-01
(PID.TID 0000.0001) %MON ke_mean                      =   1.6525786929292E-04
(PID.TID 0000.0001) %MON ke_vol                       =   1.3398139020457E+18
(PID.TID 0000.0001) %MON vort_r_min                   =  -3.9470295664258E-06
(PID.TID 0000.0001) %MON vort_r_max                   =   2.0745328085601E-06
(PID.TID 0000.0001) %MON vort_a_mean                  =  -2.0549865324846E-05
(PID.TID 0000.0001) %MON vort_a_sd                    =   7.5259724622452E-05
(PID.TID 0000.0001) %MON vort_p_mean                  =  -2.4783253790848E-05
(PID.TID 0000.0001) %MON vort_p_sd                    =   1.2811921172136E-04
(PID.TID 0000.0001) %MON surfExpan_theta_mean         =  -6.1207424932847E-06
(PID.TID 0000.0001) %MON surfExpan_salt_mean          =   1.2292783916969E-06
(PID.TID 0000.0001) // =======================================================
(PID.TID 0000.0001) // End MONITOR dynamic field statistics
(PID.TID 0000.0001) // =======================================================
 cg2d: Sum(rhs),rhsMax =  -7.38735379510510E+01  3.71434206609394E+01
(PID.TID 0000.0001)      cg2d_init_res =   1.95057173060275E-01
(PID.TID 0000.0001)      cg2d_iters(min,last) =      -1      10
(PID.TID 0000.0001)      cg2d_last_res =   8.77848006508879E-08
(PID.TID 0000.0001) // =======================================================
(PID.TID 0000.0001) // Begin MONITOR dynamic field statistics
(PID.TID 0000.0001) // =======================================================
(PID.TID 0000.0001) %MON time_tsnumber                =                 72073
(PID.TID 0000.0001) %MON time_secondsf                =   6.4865700000000E+07
(PID.TID 0000.0001) %MON dynstat_eta_max              =   1.2791768023451E+00
(PID.TID 0000.0001) %MON dynstat_eta_min              =  -2.0929937310332E+00
(PID.TID 0000.0001) %MON dynstat_eta_mean             =   3.1883938946728E-02
(PID.TID 0000.0001) %MON dynstat_eta_sd               =   6.1167262610994E-01
(PID.TID 0000.0001) %MON dynstat_eta_del2             =   1.7016420494747E-03
(PID.TID 0000.0001) %MON dynstat_uvel_max             =   4.0959944655691E-01
(PID.TID 0000.0001) %MON dynstat_uvel_min             =  -7.6304444017970E-01
(PID.TID 0000.0001) %MON dynstat_uvel_mean            =  -2.9772188255989E-04
(PID.TID 0000.0001) %MON dynstat_uvel_sd              =   1.3104864591197E-02
(PID.TID 0000.0001) %MON dynstat_uvel_del2            =   8.7840630096901E-05
(PID.TID 0000.0001) %MON dynstat_vvel_max             =   2.7518856583145E-01
(PID.TID 0000.0001) %MON dynstat_vvel_min             =  -4.0168211301284E-01
(PID.TID 0000.0001) %MON dynstat_vvel_mean            =   4.2399119913015E-04
(PID.TID 0000.0001) %MON dynstat_vvel_sd              =   1.3619191586172E-02
(PID.TID 0000.0001) %MON dynstat_vvel_del2            =   8.4777777829388E-05
(PID.TID 0000.0001) %MON dynstat_wvel_max             =   1.0554983350267E-04
(PID.TID 0000.0001) %MON dynstat_wvel_min             =  -1.9158900919009E-04
(PID.TID 0000.0001) %MON dynstat_wvel_mean            =  -1.4849048927569E-07
(PID.TID 0000.0001) %MON dynstat_wvel_sd              =   7.7550160128432E-06
(PID.TID 0000.0001) %MON dynstat_wvel_del2            =   6.9112059354334E-08
(PID.TID 0000.0001) %MON dynstat_theta_max            =   3.0923047668130E+01
(PID.TID 0000.0001) %MON dynstat_theta_min            =  -3.0095724223889E+00
(PID.TID 0000.0001) %MON dynstat_theta_mean           =   3.9091726425649E+00
(PID.TID 0000.0001) %MON dynstat_theta_sd             =   4.5715293527055E+00
(PID.TID 0000.0001) %MON dynstat_theta_del2           =   2.6399012977490E-03
(PID.TID 0000.0001) %MON dynstat_salt_max             =   4.1347111617113E+01
(PID.TID 0000.0001) %MON dynstat_salt_min             =   1.8519113380505E+01
(PID.TID 0000.0001) %MON dynstat_salt_mean            =   3.4771915958659E+01
(PID.TID 0000.0001) %MON dynstat_salt_sd              =   5.3213860462499E-01
(PID.TID 0000.0001) %MON dynstat_salt_del2            =   1.1051766050432E-03
(PID.TID 0000.0001) %MON dynstat_sst_max              =   3.0923047668130E+01
(PID.TID 0000.0001) %MON dynstat_sst_min              =  -1.8992696668467E+00
(PID.TID 0000.0001) %MON dynstat_sst_mean             =   1.8107926057248E+01
(PID.TID 0000.0001) %MON dynstat_sst_sd               =   9.8124265867812E+00
(PID.TID 0000.0001) %MON dynstat_sst_del2             =   1.4996061491344E-02
(PID.TID 0000.0001) %MON dynstat_sss_max              =   4.1347111617113E+01
(PID.TID 0000.0001) %MON dynstat_sss_min              =   1.8752267409504E+01
(PID.TID 0000.0001) %MON dynstat_sss_mean             =   3.4621709498602E+01
(PID.TID 0000.0001) %MON dynstat_sss_sd               =   1.4872139369962E+00
(PID.TID 0000.0001) %MON dynstat_sss_del2             =   1.2460539767050E-02
(PID.TID 0000.0001) %MON forcing_qnet_max             =   1.6758803710938E+03
(PID.TID 0000.0001) %MON forcing_qnet_min             =  -1.1721962890625E+03
(PID.TID 0000.0001) %MON forcing_qnet_mean            =  -2.0792483193621E+01
(PID.TID 0000.0001) %MON forcing_qnet_sd              =   2.1645773818445E+02
(PID.TID 0000.0001) %MON forcing_qnet_del2            =   3.6306896788481E+00
(PID.TID 0000.0001) %MON forcing_qsw_max              =   0.0000000000000E+00
(PID.TID 0000.0001) %MON forcing_qsw_min              =  -1.0745993135913E+02
(PID.TID 0000.0001) %MON forcing_qsw_mean             =  -1.7131046506029E+01
(PID.TID 0000.0001) %MON forcing_qsw_sd               =   2.8127406597559E+01
(PID.TID 0000.0001) %MON forcing_qsw_del2             =   2.4513065305909E-01
(PID.TID 0000.0001) %MON forcing_empmr_max            =   5.2620409987867E-03
(PID.TID 0000.0001) %MON forcing_empmr_min            =  -7.5650356709957E-02
(PID.TID 0000.0001) %MON forcing_empmr_mean           =  -2.2913797528399E-04
(PID.TID 0000.0001) %MON forcing_empmr_sd             =   3.3320898502087E-03
(PID.TID 0000.0001) %MON forcing_empmr_del2           =   1.3139130757729E-04
(PID.TID 0000.0001) %MON forcing_fu_max               =   3.4492368203080E-01
(PID.TID 0000.0001) %MON forcing_fu_min               =  -3.5684865229420E-01
(PID.TID 0000.0001) %MON forcing_fu_mean              =  -3.3146324436507E-03
(PID.TID 0000.0001) %MON forcing_fu_sd                =   6.1306620389361E-02
(PID.TID 0000.0001) %MON forcing_fu_del2              =   6.0485032455848E-04
(PID.TID 0000.0001) %MON forcing_fv_max               =   3.0797836428148E-01
(PID.TID 0000.0001) %MON forcing_fv_min               =  -2.5013089076485E-01
(PID.TID 0000.0001) %MON forcing_fv_mean              =  -1.4718862542072E-02
(PID.TID 0000.0001) %MON forcing_fv_sd                =   6.1165141072548E-02
(PID.TID 0000.0001) %MON forcing_fv_del2              =   5.3088851136353E-04
(PID.TID 0000.0001) %MON trAdv_CFL_u_max              =   2.2492952113742E-03
(PID.TID 0000.0001) %MON trAdv_CFL_v_max              =   1.1884440549285E-03
(PID.TID 0000.0001) %MON trAdv_CFL_w_max              =   1.6838871512183E-03
(PID.TID 0000.0001) %MON advcfl_uvel_max              =   2.2174141283578E-03
(PID.TID 0000.0001) %MON advcfl_vvel_max              =   1.1744004980281E-03
(PID.TID 0000.0001) %MON advcfl_wvel_max              =   2.6313167551289E-03
(PID.TID 0000.0001) %MON advcfl_W_hf_max              =   1.6838871512183E-03
(PID.TID 0000.0001) %MON pe_b_mean                    =   4.9977813008081E-04
(PID.TID 0000.0001) %MON ke_max                       =   2.2485132349870E-01
(PID.TID 0000.0001) %MON ke_mean                      =   1.6507488042460E-04
(PID.TID 0000.0001) %MON ke_vol                       =   1.3398139750007E+18
(PID.TID 0000.0001) %MON vort_r_min                   =  -3.7702515382948E-06
(PID.TID 0000.0001) %MON vort_r_max                   =   2.1390221359082E-06
(PID.TID 0000.0001) %MON vort_a_mean                  =  -2.0549865324846E-05
(PID.TID 0000.0001) %MON vort_a_sd                    =   7.5259720448553E-05
(PID.TID 0000.0001) %MON vort_p_mean                  =  -2.4783252256029E-05
(PID.TID 0000.0001) %MON vort_p_sd                    =   1.2811921171223E-04
(PID.TID 0000.0001) %MON surfExpan_theta_mean         =  -6.0837632129125E-06
(PID.TID 0000.0001) %MON surfExpan_salt_mean          =   1.2122291647920E-06
(PID.TID 0000.0001) // =======================================================
(PID.TID 0000.0001) // End MONITOR dynamic field statistics
(PID.TID 0000.0001) // =======================================================
 cg2d: Sum(rhs),rhsMax =  -7.48279874013542E+01  3.68965043583089E+01
(PID.TID 0000.0001)      cg2d_init_res =   1.90273672570322E-01
(PID.TID 0000.0001)      cg2d_iters(min,last) =      -1      10
(PID.TID 0000.0001)      cg2d_last_res =   8.88590318780757E-08
(PID.TID 0000.0001) // =======================================================
(PID.TID 0000.0001) // Begin MONITOR dynamic field statistics
(PID.TID 0000.0001) // =======================================================
(PID.TID 0000.0001) %MON time_tsnumber                =                 72074
(PID.TID 0000.0001) %MON time_secondsf                =   6.4866600000000E+07
(PID.TID 0000.0001) %MON dynstat_eta_max              =   1.3009809843527E+00
(PID.TID 0000.0001) %MON dynstat_eta_min              =  -2.0793143614701E+00
(PID.TID 0000.0001) %MON dynstat_eta_mean             =   3.2081189304072E-02
(PID.TID 0000.0001) %MON dynstat_eta_sd               =   6.1169868748907E-01
(PID.TID 0000.0001) %MON dynstat_eta_del2             =   1.7122705223957E-03
(PID.TID 0000.0001) %MON dynstat_uvel_max             =   3.6859590078049E-01
(PID.TID 0000.0001) %MON dynstat_uvel_min             =  -7.4159503077662E-01
(PID.TID 0000.0001) %MON dynstat_uvel_mean            =  -3.0593653567981E-04
(PID.TID 0000.0001) %MON dynstat_uvel_sd              =   1.3091790547418E-02
(PID.TID 0000.0001) %MON dynstat_uvel_del2            =   8.7047958871558E-05
(PID.TID 0000.0001) %MON dynstat_vvel_max             =   2.7138334733276E-01
(PID.TID 0000.0001) %MON dynstat_vvel_min             =  -3.6330770584915E-01
(PID.TID 0000.0001) %MON dynstat_vvel_mean            =   4.0319237906131E-04
(PID.TID 0000.0001) %MON dynstat_vvel_sd              =   1.3620196210131E-02
(PID.TID 0000.0001) %MON dynstat_vvel_del2            =   8.4200826000702E-05
(PID.TID 0000.0001) %MON dynstat_wvel_max             =   1.1149986597093E-04
(PID.TID 0000.0001) %MON dynstat_wvel_min             =  -1.9157737559667E-04
(PID.TID 0000.0001) %MON dynstat_wvel_mean            =  -1.3919593276809E-07
(PID.TID 0000.0001) %MON dynstat_wvel_sd              =   7.7474658574461E-06
(PID.TID 0000.0001) %MON dynstat_wvel_del2            =   6.8973577050783E-08
(PID.TID 0000.0001) %MON dynstat_theta_max            =   3.0922884050406E+01
(PID.TID 0000.0001) %MON dynstat_theta_min            =  -3.0099424433868E+00
(PID.TID 0000.0001) %MON dynstat_theta_mean           =   3.9091751905270E+00
(PID.TID 0000.0001) %MON dynstat_theta_sd             =   4.5715383004616E+00
(PID.TID 0000.0001) %MON dynstat_theta_del2           =   2.6397957513601E-03
(PID.TID 0000.0001) %MON dynstat_salt_max             =   4.1347071723345E+01
(PID.TID 0000.0001) %MON dynstat_salt_min             =   1.8519123435363E+01
(PID.TID 0000.0001) %MON dynstat_salt_mean            =   3.4771914135922E+01
(PID.TID 0000.0001) %MON dynstat_salt_sd              =   5.3215066179169E-01
(PID.TID 0000.0001) %MON dynstat_salt_del2            =   1.1079183446962E-03
(PID.TID 0000.0001) %MON dynstat_sst_max              =   3.0922884050406E+01
(PID.TID 0000.0001) %MON dynstat_sst_min              =  -1.8992855554605E+00
(PID.TID 0000.0001) %MON dynstat_sst_mean             =   1.8108015608615E+01
(PID.TID 0000.0001) %MON dynstat_sst_sd               =   9.8125343225833E+00
(PID.TID 0000.0001) %MON dynstat_sst_del2             =   1.4994287698684E-02
(PID.TID 0000.0001) %MON dynstat_sss_max              =   4.1347071723345E+01
(PID.TID 0000.0001) %MON dynstat_sss_min              =   1.8752284444115E+01
(PID.TID 0000.0001) %MON dynstat_sss_mean             =   3.4621570646059E+01
(PID.TID 0000.0001) %MON dynstat_sss_sd               =   1.4875229326891E+00
(PID.TID 0000.0001) %MON dynstat_sss_del2             =   1.2498974178627E-02
(PID.TID 0000.0001) %MON forcing_qnet_max             =   1.6571831054688E+03
(PID.TID 0000.0001) %MON forcing_qnet_min             =  -1.3492523193359E+03
(PID.TID 0000.0001) %MON forcing_qnet_mean            =  -2.2474059785447E+01
(PID.TID 0000.0001) %MON forcing_qnet_sd              =   2.1590782261049E+02
(PID.TID 0000.0001) %MON forcing_qnet_del2            =   3.7016341205146E+00
(PID.TID 0000.0001) %MON forcing_qsw_max              =   0.0000000000000E+00
(PID.TID 0000.0001) %MON forcing_qsw_min              =  -1.0781586210898E+02
(PID.TID 0000.0001) %MON forcing_qsw_mean             =  -1.7330741543267E+01
(PID.TID 0000.0001) %MON forcing_qsw_sd               =   2.8080771732356E+01
(PID.TID 0000.0001) %MON forcing_qsw_del2             =   2.4509824566613E-01
(PID.TID 0000.0001) %MON forcing_empmr_max            =   5.2078207954764E-03
(PID.TID 0000.0001) %MON forcing_empmr_min            =  -7.4870847165585E-02
(PID.TID 0000.0001) %MON forcing_empmr_mean           =  -2.2683791094552E-04
(PID.TID 0000.0001) %MON forcing_empmr_sd             =   3.2980081275090E-03
(PID.TID 0000.0001) %MON forcing_empmr_del2           =   1.3003814625939E-04
(PID.TID 0000.0001) %MON forcing_fu_max               =   3.3772019252310E-01
(PID.TID 0000.0001) %MON forcing_fu_min               =  -3.6192518181117E-01
(PID.TID 0000.0001) %MON forcing_fu_mean              =  -3.3814108346057E-03
(PID.TID 0000.0001) %MON forcing_fu_sd                =   6.1204330585235E-02
(PID.TID 0000.0001) %MON forcing_fu_del2              =   6.0334229187575E-04
(PID.TID 0000.0001) %MON forcing_fv_max               =   3.0425167035071E-01
(PID.TID 0000.0001) %MON forcing_fv_min               =  -2.5048509786550E-01
(PID.TID 0000.0001) %MON forcing_fv_mean              =  -1.4722196844487E-02
(PID.TID 0000.0001) %MON forcing_fv_sd                =   6.1068405513122E-02
(PID.TID 0000.0001) %MON forcing_fv_del2              =   5.2901274091221E-04
(PID.TID 0000.0001) %MON trAdv_CFL_u_max              =   2.1879679004560E-03
(PID.TID 0000.0001) %MON trAdv_CFL_v_max              =   1.1781954667908E-03
(PID.TID 0000.0001) %MON trAdv_CFL_w_max              =   1.6373589876235E-03
(PID.TID 0000.0001) %MON advcfl_uvel_max              =   2.1550819482765E-03
(PID.TID 0000.0001) %MON advcfl_vvel_max              =   1.1221111074783E-03
(PID.TID 0000.0001) %MON advcfl_wvel_max              =   2.6042033796725E-03
(PID.TID 0000.0001) %MON advcfl_W_hf_max              =   1.6373589876235E-03
(PID.TID 0000.0001) %MON pe_b_mean                    =   4.9983738459600E-04
(PID.TID 0000.0001) %MON ke_max                       =   2.2243362680192E-01
(PID.TID 0000.0001) %MON ke_mean                      =   1.6492455816889E-04
(PID.TID 0000.0001) %MON ke_vol                       =   1.3398140475053E+18
(PID.TID 0000.0001) %MON vort_r_min                   =  -3.5769485895456E-06
(PID.TID 0000.0001) %MON vort_r_max                   =   2.2339183760152E-06
(PID.TID 0000.0001) %MON vort_a_mean                  =  -2.0549865324846E-05
(PID.TID 0000.0001) %MON vort_a_sd                    =   7.5259715994611E-05
(PID.TID 0000.0001) %MON vort_p_mean                  =  -2.4783250738021E-05
(PID.TID 0000.0001) %MON vort_p_sd                    =   1.2811921035821E-04
(PID.TID 0000.0001) %MON surfExpan_theta_mean         =  -6.0176344923151E-06
(PID.TID 0000.0001) %MON surfExpan_salt_mean          =   1.1957981976304E-06
(PID.TID 0000.0001) // =======================================================
(PID.TID 0000.0001) // End MONITOR dynamic field statistics
(PID.TID 0000.0001) // =======================================================
 cg2d: Sum(rhs),rhsMax =  -7.68791372788502E+01  3.61311983454446E+01
(PID.TID 0000.0001)      cg2d_init_res =   1.89753303915283E-01
(PID.TID 0000.0001)      cg2d_iters(min,last) =      -1      10
(PID.TID 0000.0001)      cg2d_last_res =   9.01073059959117E-08
(PID.TID 0000.0001) // =======================================================
(PID.TID 0000.0001) // Begin MONITOR dynamic field statistics
(PID.TID 0000.0001) // =======================================================
(PID.TID 0000.0001) %MON time_tsnumber                =                 72075
(PID.TID 0000.0001) %MON time_secondsf                =   6.4867500000000E+07
(PID.TID 0000.0001) %MON dynstat_eta_max              =   1.3163598394673E+00
(PID.TID 0000.0001) %MON dynstat_eta_min              =  -2.0364427858063E+00
(PID.TID 0000.0001) %MON dynstat_eta_mean             =   3.2276916609619E-02
(PID.TID 0000.0001) %MON dynstat_eta_sd               =   6.1170514300133E-01
(PID.TID 0000.0001) %MON dynstat_eta_del2             =   1.7112727613918E-03
(PID.TID 0000.0001) %MON dynstat_uvel_max             =   3.2439629528117E-01
(PID.TID 0000.0001) %MON dynstat_uvel_min             =  -7.1706746237398E-01
(PID.TID 0000.0001) %MON dynstat_uvel_mean            =  -3.1562677446359E-04
(PID.TID 0000.0001) %MON dynstat_uvel_sd              =   1.3077369522413E-02
(PID.TID 0000.0001) %MON dynstat_uvel_del2            =   8.6357628745939E-05
(PID.TID 0000.0001) %MON dynstat_vvel_max             =   2.6699823714145E-01
(PID.TID 0000.0001) %MON dynstat_vvel_min             =  -3.2333620332966E-01
(PID.TID 0000.0001) %MON dynstat_vvel_mean            =   3.8174974994239E-04
(PID.TID 0000.0001) %MON dynstat_vvel_sd              =   1.3624952853657E-02
(PID.TID 0000.0001) %MON dynstat_vvel_del2            =   8.4025375752690E-05
(PID.TID 0000.0001) %MON dynstat_wvel_max             =   1.1626238818589E-04
(PID.TID 0000.0001) %MON dynstat_wvel_min             =  -1.9156689087324E-04
(PID.TID 0000.0001) %MON dynstat_wvel_mean            =  -1.2993039542857E-07
(PID.TID 0000.0001) %MON dynstat_wvel_sd              =   7.7392981364501E-06
(PID.TID 0000.0001) %MON dynstat_wvel_del2            =   6.8853569151951E-08
(PID.TID 0000.0001) %MON dynstat_theta_max            =   3.0922712720514E+01
(PID.TID 0000.0001) %MON dynstat_theta_min            =  -3.0103396173673E+00
(PID.TID 0000.0001) %MON dynstat_theta_mean           =   3.9091778074400E+00
(PID.TID 0000.0001) %MON dynstat_theta_sd             =   4.5715475814216E+00
(PID.TID 0000.0001) %MON dynstat_theta_del2           =   2.6396837424479E-03
(PID.TID 0000.0001) %MON dynstat_salt_max             =   4.1347033068686E+01
(PID.TID 0000.0001) %MON dynstat_salt_min             =   1.8519133475631E+01
(PID.TID 0000.0001) %MON dynstat_salt_mean            =   3.4771912338012E+01
(PID.TID 0000.0001) %MON dynstat_salt_sd              =   5.3216255689460E-01
(PID.TID 0000.0001) %MON dynstat_salt_del2            =   1.1106023807176E-03
(PID.TID 0000.0001) %MON dynstat_sst_max              =   3.0922712720514E+01
(PID.TID 0000.0001) %MON dynstat_sst_min              =  -1.8992841035601E+00
(PID.TID 0000.0001) %MON dynstat_sst_mean             =   1.8108109277018E+01
(PID.TID 0000.0001) %MON dynstat_sst_sd               =   9.8126456581532E+00
(PID.TID 0000.0001) %MON dynstat_sst_del2             =   1.4992351887790E-02
(PID.TID 0000.0001) %MON dynstat_sss_max              =   4.1347033068686E+01
(PID.TID 0000.0001) %MON dynstat_sss_min              =   1.8752301205544E+01
(PID.TID 0000.0001) %MON dynstat_sss_mean             =   3.4621433102825E+01
(PID.TID 0000.0001) %MON dynstat_sss_sd               =   1.4878274363989E+00
(PID.TID 0000.0001) %MON dynstat_sss_del2             =   1.2536575477658E-02
(PID.TID 0000.0001) %MON forcing_qnet_max             =   1.6377709960938E+03
(PID.TID 0000.0001) %MON forcing_qnet_min             =  -1.6402851562500E+03
(PID.TID 0000.0001) %MON forcing_qnet_mean            =  -2.3913539957734E+01
(PID.TID 0000.0001) %MON forcing_qnet_sd              =   2.1536864471703E+02
(PID.TID 0000.0001) %MON forcing_qnet_del2            =   3.8214071245710E+00
(PID.TID 0000.0001) %MON forcing_qsw_max              =   0.0000000000000E+00
(PID.TID 0000.0001) %MON forcing_qsw_min              =  -1.0773130795399E+02
(PID.TID 0000.0001) %MON forcing_qsw_mean             =  -1.7491613715887E+01
(PID.TID 0000.0001) %MON forcing_qsw_sd               =   2.7985429549522E+01
(PID.TID 0000.0001) %MON forcing_qsw_del2             =   2.4442990081081E-01
(PID.TID 0000.0001) %MON forcing_empmr_max            =   5.1541905850172E-03
(PID.TID 0000.0001) %MON forcing_empmr_min            =  -7.4100561439991E-02
(PID.TID 0000.0001) %MON forcing_empmr_mean           =  -2.2508640137933E-04
(PID.TID 0000.0001) %MON forcing_empmr_sd             =   3.2644300926802E-03
(PID.TID 0000.0001) %MON forcing_empmr_del2           =   1.2869239871086E-04
(PID.TID 0000.0001) %MON forcing_fu_max               =   3.2956420575622E-01
(PID.TID 0000.0001) %MON forcing_fu_min               =  -3.6812507884565E-01
(PID.TID 0000.0001) %MON forcing_fu_mean              =  -3.4618693827295E-03
(PID.TID 0000.0001) %MON forcing_fu_sd                =   6.1015389286638E-02
(PID.TID 0000.0001) %MON forcing_fu_del2              =   6.0146940838490E-04
(PID.TID 0000.0001) %MON forcing_fv_max               =   2.8885620772752E-01
(PID.TID 0000.0001) %MON forcing_fv_min               =  -2.5058629582451E-01
(PID.TID 0000.0001) %MON forcing_fv_mean              =  -1.4745449422052E-02
(PID.TID 0000.0001) %MON forcing_fv_sd                =   6.0948316281115E-02
(PID.TID 0000.0001) %MON forcing_fv_del2              =   5.2570839641572E-04
(PID.TID 0000.0001) %MON trAdv_CFL_u_max              =   2.1173010673903E-03
(PID.TID 0000.0001) %MON trAdv_CFL_v_max              =   1.1806934688768E-03
(PID.TID 0000.0001) %MON trAdv_CFL_w_max              =   1.5872919123576E-03
(PID.TID 0000.0001) %MON advcfl_uvel_max              =   2.0838046099639E-03
(PID.TID 0000.0001) %MON advcfl_vvel_max              =   1.1310572470249E-03
(PID.TID 0000.0001) %MON advcfl_wvel_max              =   2.5774108326953E-03
(PID.TID 0000.0001) %MON advcfl_W_hf_max              =   1.5872919123576E-03
(PID.TID 0000.0001) %MON pe_b_mean                    =   4.9986465982501E-04
(PID.TID 0000.0001) %MON ke_max                       =   2.1907895021485E-01
(PID.TID 0000.0001) %MON ke_mean                      =   1.6480629741658E-04
(PID.TID 0000.0001) %MON ke_vol                       =   1.3398141192821E+18
(PID.TID 0000.0001) %MON vort_r_min                   =  -3.3685114154189E-06
(PID.TID 0000.0001) %MON vort_r_max                   =   2.3232520034167E-06
(PID.TID 0000.0001) %MON vort_a_mean                  =  -2.0549865324846E-05
(PID.TID 0000.0001) %MON vort_a_sd                    =   7.5259711324854E-05
(PID.TID 0000.0001) %MON vort_p_mean                  =  -2.4783249245880E-05
(PID.TID 0000.0001) %MON vort_p_sd                    =   1.2811920819359E-04
(PID.TID 0000.0001) %MON surfExpan_theta_mean         =  -5.9437038393053E-06
(PID.TID 0000.0001) %MON surfExpan_salt_mean          =   1.1798068413682E-06
(PID.TID 0000.0001) // =======================================================
(PID.TID 0000.0001) // End MONITOR dynamic field statistics
(PID.TID 0000.0001) // =======================================================
 Computing Diagnostic #     81  oceTAUX      Counter:       1   Parms: UU      U1      
           Vector  Mate for  oceTAUX      Diagnostic #     82  oceTAUY  exists 
 Computing Diagnostic #     82  oceTAUY      Counter:       1   Parms: VV      U1      
           Vector  Mate for  oceTAUY      Diagnostic #     81  oceTAUX  exists 
 Computing Diagnostic #     85  oceFWflx     Counter:       1   Parms: SM      U1      
 Computing Diagnostic #     86  oceSflux     Counter:       1   Parms: SM      U1      
 Computing Diagnostic #     87  oceQnet      Counter:       1   Parms: SM      U1      
 Computing Diagnostic #     88  oceQsw       Counter:       1   Parms: SM      U1      
 Computing Diagnostic #     27  SALT         Counter:       1   Parms: SMR     MR      
 Computing Diagnostic #     26  THETA        Counter:       1   Parms: SMR     MR      
 Computing Diagnostic #     45  UVELMASS     Counter:       1   Parms: UUr     MR      
           Vector  Mate for  UVELMASS     Diagnostic #     46  VVELMASS exists 
 Computing Diagnostic #     46  VVELMASS     Counter:       1   Parms: VVr     MR      
           Vector  Mate for  VVELMASS     Diagnostic #     45  UVELMASS exists 
 cg2d: Sum(rhs),rhsMax =  -7.73693590824103E+01  3.61177834763154E+01
(PID.TID 0000.0001)      cg2d_init_res =   1.87008469906094E-01
(PID.TID 0000.0001)      cg2d_iters(min,last) =      -1      10
(PID.TID 0000.0001)      cg2d_last_res =   8.85517198464470E-08
(PID.TID 0000.0001) // =======================================================
(PID.TID 0000.0001) // Begin MONITOR dynamic field statistics
(PID.TID 0000.0001) // =======================================================
(PID.TID 0000.0001) %MON time_tsnumber                =                 72076
(PID.TID 0000.0001) %MON time_secondsf                =   6.4868400000000E+07
(PID.TID 0000.0001) %MON dynstat_eta_max              =   1.3250400528308E+00
(PID.TID 0000.0001) %MON dynstat_eta_min              =  -1.9662701256354E+00
(PID.TID 0000.0001) %MON dynstat_eta_mean             =   3.2470670943246E-02
(PID.TID 0000.0001) %MON dynstat_eta_sd               =   6.1169141239443E-01
(PID.TID 0000.0001) %MON dynstat_eta_del2             =   1.6988890291125E-03
(PID.TID 0000.0001) %MON dynstat_uvel_max             =   3.1358579453127E-01
(PID.TID 0000.0001) %MON dynstat_uvel_min             =  -6.8965290276580E-01
(PID.TID 0000.0001) %MON dynstat_uvel_mean            =  -3.2664190489126E-04
(PID.TID 0000.0001) %MON dynstat_uvel_sd              =   1.3061946928597E-02
(PID.TID 0000.0001) %MON dynstat_uvel_del2            =   8.5778927595171E-05
(PID.TID 0000.0001) %MON dynstat_vvel_max             =   2.6071138788614E-01
(PID.TID 0000.0001) %MON dynstat_vvel_min             =  -3.1707861712353E-01
(PID.TID 0000.0001) %MON dynstat_vvel_mean            =   3.5987375778039E-04
(PID.TID 0000.0001) %MON dynstat_vvel_sd              =   1.3632887355064E-02
(PID.TID 0000.0001) %MON dynstat_vvel_del2            =   8.4206068034779E-05
(PID.TID 0000.0001) %MON dynstat_wvel_max             =   1.1982779472691E-04
(PID.TID 0000.0001) %MON dynstat_wvel_min             =  -1.9156101634534E-04
(PID.TID 0000.0001) %MON dynstat_wvel_mean            =  -1.2013533119155E-07
(PID.TID 0000.0001) %MON dynstat_wvel_sd              =   7.7308290364835E-06
(PID.TID 0000.0001) %MON dynstat_wvel_del2            =   6.8738435953590E-08
(PID.TID 0000.0001) %MON dynstat_theta_max            =   3.0922533481363E+01
(PID.TID 0000.0001) %MON dynstat_theta_min            =  -3.0107625396200E+00
(PID.TID 0000.0001) %MON dynstat_theta_mean           =   3.9091804993664E+00
(PID.TID 0000.0001) %MON dynstat_theta_sd             =   4.5715572099479E+00
(PID.TID 0000.0001) %MON dynstat_theta_del2           =   2.6395673860131E-03
(PID.TID 0000.0001) %MON dynstat_salt_max             =   4.1346995209906E+01
(PID.TID 0000.0001) %MON dynstat_salt_min             =   1.8519143503874E+01
(PID.TID 0000.0001) %MON dynstat_salt_mean            =   3.4771910576255E+01
(PID.TID 0000.0001) %MON dynstat_salt_sd              =   5.3217429391434E-01
(PID.TID 0000.0001) %MON dynstat_salt_del2            =   1.1132311724338E-03
(PID.TID 0000.0001) %MON dynstat_sst_max              =   3.0922533481363E+01
(PID.TID 0000.0001) %MON dynstat_sst_min              =  -1.8992654161279E+00
(PID.TID 0000.0001) %MON dynstat_sst_mean             =   1.8108208915179E+01
(PID.TID 0000.0001) %MON dynstat_sst_sd               =   9.8127606830624E+00
(PID.TID 0000.0001) %MON dynstat_sst_del2             =   1.4990287306549E-02
(PID.TID 0000.0001) %MON dynstat_sss_max              =   4.1346995209906E+01
(PID.TID 0000.0001) %MON dynstat_sss_min              =   1.8752317632849E+01
(PID.TID 0000.0001) %MON dynstat_sss_mean             =   3.4621298091244E+01
(PID.TID 0000.0001) %MON dynstat_sss_sd               =   1.4881275530481E+00
(PID.TID 0000.0001) %MON dynstat_sss_del2             =   1.2573381766700E-02
(PID.TID 0000.0001) %MON forcing_qnet_max             =   1.6195241699219E+03
(PID.TID 0000.0001) %MON forcing_qnet_min             =  -2.4159196777344E+03
(PID.TID 0000.0001) %MON forcing_qnet_mean            =  -2.5530914280042E+01
(PID.TID 0000.0001) %MON forcing_qnet_sd              =   2.1571207951376E+02
(PID.TID 0000.0001) %MON forcing_qnet_del2            =   4.1182953317578E+00
(PID.TID 0000.0001) %MON forcing_qsw_max              =   0.0000000000000E+00
(PID.TID 0000.0001) %MON forcing_qsw_min              =  -1.0720657574178E+02
(PID.TID 0000.0001) %MON forcing_qsw_mean             =  -1.7601457835799E+01
(PID.TID 0000.0001) %MON forcing_qsw_sd               =   2.7850777825992E+01
(PID.TID 0000.0001) %MON forcing_qsw_del2             =   2.4314719123278E-01
(PID.TID 0000.0001) %MON forcing_empmr_max            =   5.1010525785387E-03
(PID.TID 0000.0001) %MON forcing_empmr_min            =  -7.3337838053703E-02
(PID.TID 0000.0001) %MON forcing_empmr_mean           =  -2.2281748367101E-04
(PID.TID 0000.0001) %MON forcing_empmr_sd             =   3.2313050668556E-03
(PID.TID 0000.0001) %MON forcing_empmr_del2           =   1.2736577891261E-04
(PID.TID 0000.0001) %MON forcing_fu_max               =   3.2113913407712E-01
(PID.TID 0000.0001) %MON forcing_fu_min               =  -3.6892812273173E-01
(PID.TID 0000.0001) %MON forcing_fu_mean              =  -3.5605946682675E-03
(PID.TID 0000.0001) %MON forcing_fu_sd                =   6.0698921435452E-02
(PID.TID 0000.0001) %MON forcing_fu_del2              =   5.9856977228292E-04
(PID.TID 0000.0001) %MON forcing_fv_max               =   2.8404250869700E-01
(PID.TID 0000.0001) %MON forcing_fv_min               =  -2.5056599433756E-01
(PID.TID 0000.0001) %MON forcing_fv_mean              =  -1.4771913224219E-02
(PID.TID 0000.0001) %MON forcing_fv_sd                =   6.0878824850979E-02
(PID.TID 0000.0001) %MON forcing_fv_del2              =   5.2408843553322E-04
(PID.TID 0000.0001) %MON trAdv_CFL_u_max              =   2.0378282990184E-03
(PID.TID 0000.0001) %MON trAdv_CFL_v_max              =   1.1828883988304E-03
(PID.TID 0000.0001) %MON trAdv_CFL_w_max              =   1.5340655202761E-03
(PID.TID 0000.0001) %MON advcfl_uvel_max              =   2.0041376487793E-03
(PID.TID 0000.0001) %MON advcfl_vvel_max              =   1.1397807976532E-03
(PID.TID 0000.0001) %MON advcfl_wvel_max              =   2.5508813236071E-03
(PID.TID 0000.0001) %MON advcfl_W_hf_max              =   1.5340655202761E-03
(PID.TID 0000.0001) %MON pe_b_mean                    =   4.9985896771847E-04
(PID.TID 0000.0001) %MON ke_max                       =   2.1489777310860E-01
(PID.TID 0000.0001) %MON ke_mean                      =   1.6471718643490E-04
(PID.TID 0000.0001) %MON ke_vol                       =   1.3398141905046E+18
(PID.TID 0000.0001) %MON vort_r_min                   =  -3.1465134323165E-06
(PID.TID 0000.0001) %MON vort_r_max                   =   2.4062892190658E-06
(PID.TID 0000.0001) %MON vort_a_mean                  =  -2.0549865324846E-05
(PID.TID 0000.0001) %MON vort_a_sd                    =   7.5259706503585E-05
(PID.TID 0000.0001) %MON vort_p_mean                  =  -2.4783247779874E-05
(PID.TID 0000.0001) %MON vort_p_sd                    =   1.2811920562045E-04
(PID.TID 0000.0001) %MON surfExpan_theta_mean         =  -5.8472876827169E-06
(PID.TID 0000.0001) %MON surfExpan_salt_mean          =   1.1640607079253E-06
(PID.TID 0000.0001) // =======================================================
(PID.TID 0000.0001) // End MONITOR dynamic field statistics
(PID.TID 0000.0001) // =======================================================
 cg2d: Sum(rhs),rhsMax =  -7.77587118687802E+01  3.61498617183665E+01
(PID.TID 0000.0001)      cg2d_init_res =   1.85690631035954E-01
(PID.TID 0000.0001)      cg2d_iters(min,last) =      -1      10
(PID.TID 0000.0001)      cg2d_last_res =   8.58904378741653E-08
(PID.TID 0000.0001) // =======================================================
(PID.TID 0000.0001) // Begin MONITOR dynamic field statistics
(PID.TID 0000.0001) // =======================================================
(PID.TID 0000.0001) %MON time_tsnumber                =                 72077
(PID.TID 0000.0001) %MON time_secondsf                =   6.4869300000000E+07
(PID.TID 0000.0001) %MON dynstat_eta_max              =   1.3268356825676E+00
(PID.TID 0000.0001) %MON dynstat_eta_min              =  -1.8710730864107E+00
(PID.TID 0000.0001) %MON dynstat_eta_mean             =   3.2663060186746E-02
(PID.TID 0000.0001) %MON dynstat_eta_sd               =   6.1165952890260E-01
(PID.TID 0000.0001) %MON dynstat_eta_del2             =   1.6759139135538E-03
(PID.TID 0000.0001) %MON dynstat_uvel_max             =   3.3653055101555E-01
(PID.TID 0000.0001) %MON dynstat_uvel_min             =  -6.5957829297406E-01
(PID.TID 0000.0001) %MON dynstat_uvel_mean            =  -3.3879710069952E-04
(PID.TID 0000.0001) %MON dynstat_uvel_sd              =   1.3045925170975E-02
(PID.TID 0000.0001) %MON dynstat_uvel_del2            =   8.5317347890248E-05
(PID.TID 0000.0001) %MON dynstat_vvel_max             =   2.5255708306484E-01
(PID.TID 0000.0001) %MON dynstat_vvel_min             =  -3.1885880520164E-01
(PID.TID 0000.0001) %MON dynstat_vvel_mean            =   3.3779270239942E-04
(PID.TID 0000.0001) %MON dynstat_vvel_sd              =   1.3643255564788E-02
(PID.TID 0000.0001) %MON dynstat_vvel_del2            =   8.4670014841724E-05
(PID.TID 0000.0001) %MON dynstat_wvel_max             =   1.2218296230192E-04
(PID.TID 0000.0001) %MON dynstat_wvel_min             =  -1.9155617828293E-04
(PID.TID 0000.0001) %MON dynstat_wvel_mean            =  -1.1094872873714E-07
(PID.TID 0000.0001) %MON dynstat_wvel_sd              =   7.7214291130249E-06
(PID.TID 0000.0001) %MON dynstat_wvel_del2            =   6.8617267867207E-08
(PID.TID 0000.0001) %MON dynstat_theta_max            =   3.0922347076414E+01
(PID.TID 0000.0001) %MON dynstat_theta_min            =  -3.0112093161350E+00
(PID.TID 0000.0001) %MON dynstat_theta_mean           =   3.9091834745468E+00
(PID.TID 0000.0001) %MON dynstat_theta_sd             =   4.5715677482479E+00
(PID.TID 0000.0001) %MON dynstat_theta_del2           =   2.6393903516879E-03
(PID.TID 0000.0001) %MON dynstat_salt_max             =   4.1346957483163E+01
(PID.TID 0000.0001) %MON dynstat_salt_min             =   1.8519153523137E+01
(PID.TID 0000.0001) %MON dynstat_salt_mean            =   3.4771908858640E+01
(PID.TID 0000.0001) %MON dynstat_salt_sd              =   5.3218584348792E-01
(PID.TID 0000.0001) %MON dynstat_salt_del2            =   1.1158024974258E-03
(PID.TID 0000.0001) %MON dynstat_sst_max              =   3.0922347076414E+01
(PID.TID 0000.0001) %MON dynstat_sst_min              =  -1.8992287270214E+00
(PID.TID 0000.0001) %MON dynstat_sst_mean             =   1.8108329339645E+01
(PID.TID 0000.0001) %MON dynstat_sst_sd               =   9.8128768535800E+00
(PID.TID 0000.0001) %MON dynstat_sst_del2             =   1.4986531327035E-02
(PID.TID 0000.0001) %MON dynstat_sss_max              =   4.1346957483163E+01
(PID.TID 0000.0001) %MON dynstat_sss_min              =   1.8752333814099E+01
(PID.TID 0000.0001) %MON dynstat_sss_mean             =   3.4621166311589E+01
(PID.TID 0000.0001) %MON dynstat_sss_sd               =   1.4884225097991E+00
(PID.TID 0000.0001) %MON dynstat_sss_del2             =   1.2609364097367E-02
(PID.TID 0000.0001) %MON forcing_qnet_max             =   1.6005723876953E+03
(PID.TID 0000.0001) %MON forcing_qnet_min             =  -9.2327470703125E+03
(PID.TID 0000.0001) %MON forcing_qnet_mean            =  -3.0512168095084E+01
(PID.TID 0000.0001) %MON forcing_qnet_sd              =   2.5321687917061E+02
(PID.TID 0000.0001) %MON forcing_qnet_del2            =   8.2323906651165E+00
(PID.TID 0000.0001) %MON forcing_qsw_max              =   0.0000000000000E+00
(PID.TID 0000.0001) %MON forcing_qsw_min              =  -1.0597311612509E+02
(PID.TID 0000.0001) %MON forcing_qsw_mean             =  -1.7837460435472E+01
(PID.TID 0000.0001) %MON forcing_qsw_sd               =   2.7645951933513E+01
(PID.TID 0000.0001) %MON forcing_qsw_del2             =   2.3941015621162E-01
(PID.TID 0000.0001) %MON forcing_empmr_max            =   5.0485050305724E-03
(PID.TID 0000.0001) %MON forcing_empmr_min            =  -7.2582662105560E-02
(PID.TID 0000.0001) %MON forcing_empmr_mean           =  -2.2124763002408E-04
(PID.TID 0000.0001) %MON forcing_empmr_sd             =   3.1984293148149E-03
(PID.TID 0000.0001) %MON forcing_empmr_del2           =   1.2605863723340E-04
(PID.TID 0000.0001) %MON forcing_fu_max               =   3.1430183214223E-01
(PID.TID 0000.0001) %MON forcing_fu_min               =  -3.6899919067529E-01
(PID.TID 0000.0001) %MON forcing_fu_mean              =  -3.6669640026475E-03
(PID.TID 0000.0001) %MON forcing_fu_sd                =   6.0362921326339E-02
(PID.TID 0000.0001) %MON forcing_fu_del2              =   5.9580217848298E-04
(PID.TID 0000.0001) %MON forcing_fv_max               =   2.9640172646405E-01
(PID.TID 0000.0001) %MON forcing_fv_min               =  -2.5059370428685E-01
(PID.TID 0000.0001) %MON forcing_fv_mean              =  -1.4777851031723E-02
(PID.TID 0000.0001) %MON forcing_fv_sd                =   6.0899658203447E-02
(PID.TID 0000.0001) %MON forcing_fv_del2              =   5.2431888130029E-04
(PID.TID 0000.0001) %MON trAdv_CFL_u_max              =   1.9502004322684E-03
(PID.TID 0000.0001) %MON trAdv_CFL_v_max              =   1.1847959253908E-03
(PID.TID 0000.0001) %MON trAdv_CFL_w_max              =   1.4780909921005E-03
(PID.TID 0000.0001) %MON advcfl_uvel_max              =   1.9167405574102E-03
(PID.TID 0000.0001) %MON advcfl_vvel_max              =   1.1481639789364E-03
(PID.TID 0000.0001) %MON advcfl_wvel_max              =   2.5246143341064E-03
(PID.TID 0000.0001) %MON advcfl_W_hf_max              =   1.4780909921005E-03
(PID.TID 0000.0001) %MON pe_b_mean                    =   4.9982367390426E-04
(PID.TID 0000.0001) %MON ke_max                       =   2.1000965114645E-01
(PID.TID 0000.0001) %MON ke_mean                      =   1.6465282140256E-04
(PID.TID 0000.0001) %MON ke_vol                       =   1.3398142610093E+18
(PID.TID 0000.0001) %MON vort_r_min                   =  -2.9126925684516E-06
(PID.TID 0000.0001) %MON vort_r_max                   =   2.4823469907966E-06
(PID.TID 0000.0001) %MON vort_a_mean                  =  -2.0549865324846E-05
(PID.TID 0000.0001) %MON vort_a_sd                    =   7.5259701597478E-05
(PID.TID 0000.0001) %MON vort_p_mean                  =  -2.4783246345196E-05
(PID.TID 0000.0001) %MON vort_p_sd                    =   1.2811920301660E-04
(PID.TID 0000.0001) %MON surfExpan_theta_mean         =  -5.7579860078650E-06
(PID.TID 0000.0001) %MON surfExpan_salt_mean          =   1.1481997106714E-06
(PID.TID 0000.0001) // =======================================================
(PID.TID 0000.0001) // End MONITOR dynamic field statistics
(PID.TID 0000.0001) // =======================================================
 cg2d: Sum(rhs),rhsMax =  -7.81522238553641E+01  3.61774675300635E+01
(PID.TID 0000.0001)      cg2d_init_res =   1.85731613534775E-01
(PID.TID 0000.0001)      cg2d_iters(min,last) =      -1      10
(PID.TID 0000.0001)      cg2d_last_res =   8.20938644132837E-08
(PID.TID 0000.0001) // =======================================================
(PID.TID 0000.0001) // Begin MONITOR dynamic field statistics
(PID.TID 0000.0001) // =======================================================
(PID.TID 0000.0001) %MON time_tsnumber                =                 72078
(PID.TID 0000.0001) %MON time_secondsf                =   6.4870200000000E+07
(PID.TID 0000.0001) %MON dynstat_eta_max              =   1.3215967213816E+00
(PID.TID 0000.0001) %MON dynstat_eta_min              =  -1.7533370505389E+00
(PID.TID 0000.0001) %MON dynstat_eta_mean             =   3.2853426841958E-02
(PID.TID 0000.0001) %MON dynstat_eta_sd               =   6.1161079541437E-01
(PID.TID 0000.0001) %MON dynstat_eta_del2             =   1.6436341094421E-03
(PID.TID 0000.0001) %MON dynstat_uvel_max             =   3.5832073947906E-01
(PID.TID 0000.0001) %MON dynstat_uvel_min             =  -6.5712399064619E-01
(PID.TID 0000.0001) %MON dynstat_uvel_mean            =  -3.5185719396380E-04
(PID.TID 0000.0001) %MON dynstat_uvel_sd              =   1.3029629767426E-02
(PID.TID 0000.0001) %MON dynstat_uvel_del2            =   8.4972918730452E-05
(PID.TID 0000.0001) %MON dynstat_vvel_max             =   2.4261877543137E-01
(PID.TID 0000.0001) %MON dynstat_vvel_min             =  -3.2482746655394E-01
(PID.TID 0000.0001) %MON dynstat_vvel_mean            =   3.1573211483065E-04
(PID.TID 0000.0001) %MON dynstat_vvel_sd              =   1.3655158266678E-02
(PID.TID 0000.0001) %MON dynstat_vvel_del2            =   8.5328083016103E-05
(PID.TID 0000.0001) %MON dynstat_wvel_max             =   1.2334387371676E-04
(PID.TID 0000.0001) %MON dynstat_wvel_min             =  -1.9156026160045E-04
(PID.TID 0000.0001) %MON dynstat_wvel_mean            =  -1.0164535425250E-07
(PID.TID 0000.0001) %MON dynstat_wvel_sd              =   7.7109219928891E-06
(PID.TID 0000.0001) %MON dynstat_wvel_del2            =   6.8480814614929E-08
(PID.TID 0000.0001) %MON dynstat_theta_max            =   3.0922152174547E+01
(PID.TID 0000.0001) %MON dynstat_theta_min            =  -3.0116778834956E+00
(PID.TID 0000.0001) %MON dynstat_theta_mean           =   3.9091863353677E+00
(PID.TID 0000.0001) %MON dynstat_theta_sd             =   4.5715783899847E+00
(PID.TID 0000.0001) %MON dynstat_theta_del2           =   2.6392932970186E-03
(PID.TID 0000.0001) %MON dynstat_salt_max             =   4.1346919853696E+01
(PID.TID 0000.0001) %MON dynstat_salt_min             =   1.8519163536552E+01
(PID.TID 0000.0001) %MON dynstat_salt_mean            =   3.4771907137398E+01
(PID.TID 0000.0001) %MON dynstat_salt_sd              =   5.3219725909772E-01
(PID.TID 0000.0001) %MON dynstat_salt_del2            =   1.1183221323170E-03
(PID.TID 0000.0001) %MON dynstat_sst_max              =   3.0922152174547E+01
(PID.TID 0000.0001) %MON dynstat_sst_min              =  -1.8991757734307E+00
(PID.TID 0000.0001) %MON dynstat_sst_mean             =   1.8108441937824E+01
(PID.TID 0000.0001) %MON dynstat_sst_sd               =   9.8130085742401E+00
(PID.TID 0000.0001) %MON dynstat_sst_del2             =   1.4985005159026E-02
(PID.TID 0000.0001) %MON dynstat_sss_max              =   4.1346919853696E+01
(PID.TID 0000.0001) %MON dynstat_sss_min              =   1.8752349763914E+01
(PID.TID 0000.0001) %MON dynstat_sss_mean             =   3.4621034257300E+01
(PID.TID 0000.0001) %MON dynstat_sss_sd               =   1.4887132938803E+00
(PID.TID 0000.0001) %MON dynstat_sss_del2             =   1.2644605280299E-02
(PID.TID 0000.0001) %MON forcing_qnet_max             =   1.5827646484375E+03
(PID.TID 0000.0001) %MON forcing_qnet_min             =  -9.3054724448716E+02
(PID.TID 0000.0001) %MON forcing_qnet_mean            =  -2.8922436279494E+01
(PID.TID 0000.0001) %MON forcing_qnet_sd              =   2.0479580204240E+02
(PID.TID 0000.0001) %MON forcing_qnet_del2            =   3.4335680985743E+00
(PID.TID 0000.0001) %MON forcing_qsw_max              =   0.0000000000000E+00
(PID.TID 0000.0001) %MON forcing_qsw_min              =  -1.0533444201883E+02
(PID.TID 0000.0001) %MON forcing_qsw_mean             =  -1.8020082038720E+01
(PID.TID 0000.0001) %MON forcing_qsw_sd               =   2.7635199293237E+01
(PID.TID 0000.0001) %MON forcing_qsw_del2             =   2.3836605080514E-01
(PID.TID 0000.0001) %MON forcing_empmr_max            =   4.9965479411185E-03
(PID.TID 0000.0001) %MON forcing_empmr_min            =  -7.1835033595562E-02
(PID.TID 0000.0001) %MON forcing_empmr_mean           =  -2.1892165349404E-04
(PID.TID 0000.0001) %MON forcing_empmr_sd             =   3.1658040435514E-03
(PID.TID 0000.0001) %MON forcing_empmr_del2           =   1.2474680970402E-04
(PID.TID 0000.0001) %MON forcing_fu_max               =   3.0185777864965E-01
(PID.TID 0000.0001) %MON forcing_fu_min               =  -3.6458296790781E-01
(PID.TID 0000.0001) %MON forcing_fu_mean              =  -3.7668902808466E-03
(PID.TID 0000.0001) %MON forcing_fu_sd                =   5.9954526856458E-02
(PID.TID 0000.0001) %MON forcing_fu_del2              =   5.9286508682958E-04
(PID.TID 0000.0001) %MON forcing_fv_max               =   2.8951767714105E-01
(PID.TID 0000.0001) %MON forcing_fv_min               =  -2.4997995524736E-01
(PID.TID 0000.0001) %MON forcing_fv_mean              =  -1.4790216775256E-02
(PID.TID 0000.0001) %MON forcing_fv_sd                =   6.0792335792618E-02
(PID.TID 0000.0001) %MON forcing_fv_del2              =   5.2137182705342E-04
(PID.TID 0000.0001) %MON trAdv_CFL_u_max              =   1.8958802289502E-03
(PID.TID 0000.0001) %MON trAdv_CFL_v_max              =   1.1864263209166E-03
(PID.TID 0000.0001) %MON trAdv_CFL_w_max              =   1.4198054615864E-03
(PID.TID 0000.0001) %MON advcfl_uvel_max              =   1.8956975993612E-03
(PID.TID 0000.0001) %MON advcfl_vvel_max              =   1.1560874028117E-03
(PID.TID 0000.0001) %MON advcfl_wvel_max              =   2.4986098641935E-03
(PID.TID 0000.0001) %MON advcfl_W_hf_max              =   1.4198054615864E-03
(PID.TID 0000.0001) %MON pe_b_mean                    =   4.9976084638846E-04
(PID.TID 0000.0001) %MON ke_max                       =   2.0453893911391E-01
(PID.TID 0000.0001) %MON ke_mean                      =   1.6460584297765E-04
(PID.TID 0000.0001) %MON ke_vol                       =   1.3398143310172E+18
(PID.TID 0000.0001) %MON vort_r_min                   =  -2.6689307306381E-06
(PID.TID 0000.0001) %MON vort_r_max                   =   2.5508032397329E-06
(PID.TID 0000.0001) %MON vort_a_mean                  =  -2.0549865324846E-05
(PID.TID 0000.0001) %MON vort_a_sd                    =   7.5259696674609E-05
(PID.TID 0000.0001) %MON vort_p_mean                  =  -2.4783244938381E-05
(PID.TID 0000.0001) %MON vort_p_sd                    =   1.2811920071921E-04
(PID.TID 0000.0001) %MON surfExpan_theta_mean         =  -5.6416165837509E-06
(PID.TID 0000.0001) %MON surfExpan_salt_mean          =   1.1315348341397E-06
(PID.TID 0000.0001) // =======================================================
(PID.TID 0000.0001) // End MONITOR dynamic field statistics
(PID.TID 0000.0001) // =======================================================
 cg2d: Sum(rhs),rhsMax =  -7.85522267505344E+01  3.62000046272031E+01
(PID.TID 0000.0001)      cg2d_init_res =   1.86794789637147E-01
(PID.TID 0000.0001)      cg2d_iters(min,last) =      -1      10
(PID.TID 0000.0001)      cg2d_last_res =   7.73677479169330E-08
(PID.TID 0000.0001) // =======================================================
(PID.TID 0000.0001) // Begin MONITOR dynamic field statistics
(PID.TID 0000.0001) // =======================================================
(PID.TID 0000.0001) %MON time_tsnumber                =                 72079
(PID.TID 0000.0001) %MON time_secondsf                =   6.4871100000000E+07
(PID.TID 0000.0001) %MON dynstat_eta_max              =   1.3092432469880E+00
(PID.TID 0000.0001) %MON dynstat_eta_min              =  -1.6158635929914E+00
(PID.TID 0000.0001) %MON dynstat_eta_mean             =   3.3042150116073E-02
(PID.TID 0000.0001) %MON dynstat_eta_sd               =   6.1154872083543E-01
(PID.TID 0000.0001) %MON dynstat_eta_del2             =   1.6037879675575E-03
(PID.TID 0000.0001) %MON dynstat_uvel_max             =   3.7775602297317E-01
(PID.TID 0000.0001) %MON dynstat_uvel_min             =  -6.7041826152799E-01
(PID.TID 0000.0001) %MON dynstat_uvel_mean            =  -3.6557273379834E-04
(PID.TID 0000.0001) %MON dynstat_uvel_sd              =   1.3013413639984E-02
(PID.TID 0000.0001) %MON dynstat_uvel_del2            =   8.4739760632903E-05
(PID.TID 0000.0001) %MON dynstat_vvel_max             =   2.3098823837986E-01
(PID.TID 0000.0001) %MON dynstat_vvel_min             =  -3.6095332923910E-01
(PID.TID 0000.0001) %MON dynstat_vvel_mean            =   2.9393684367553E-04
(PID.TID 0000.0001) %MON dynstat_vvel_sd              =   1.3667818631111E-02
(PID.TID 0000.0001) %MON dynstat_vvel_del2            =   8.6085804894773E-05
(PID.TID 0000.0001) %MON dynstat_wvel_max             =   1.2334273116929E-04
(PID.TID 0000.0001) %MON dynstat_wvel_min             =  -1.9157001621097E-04
(PID.TID 0000.0001) %MON dynstat_wvel_mean            =  -9.2862425541574E-08
(PID.TID 0000.0001) %MON dynstat_wvel_sd              =   7.6990248464604E-06
(PID.TID 0000.0001) %MON dynstat_wvel_del2            =   6.8320828234425E-08
(PID.TID 0000.0001) %MON dynstat_theta_max            =   3.0921949757956E+01
(PID.TID 0000.0001) %MON dynstat_theta_min            =  -3.0121660378094E+00
(PID.TID 0000.0001) %MON dynstat_theta_mean           =   3.9091892150248E+00
(PID.TID 0000.0001) %MON dynstat_theta_sd             =   4.5715891870898E+00
(PID.TID 0000.0001) %MON dynstat_theta_del2           =   2.6391958065710E-03
(PID.TID 0000.0001) %MON dynstat_salt_max             =   4.1346882235881E+01
(PID.TID 0000.0001) %MON dynstat_salt_min             =   1.8519173547099E+01
(PID.TID 0000.0001) %MON dynstat_salt_mean            =   3.4771905438612E+01
(PID.TID 0000.0001) %MON dynstat_salt_sd              =   5.3220851440585E-01
(PID.TID 0000.0001) %MON dynstat_salt_del2            =   1.1207886384445E-03
(PID.TID 0000.0001) %MON dynstat_sst_max              =   3.0921949757956E+01
(PID.TID 0000.0001) %MON dynstat_sst_min              =  -1.8991062757439E+00
(PID.TID 0000.0001) %MON dynstat_sst_mean             =   1.8108556400279E+01
(PID.TID 0000.0001) %MON dynstat_sst_sd               =   9.8131435811315E+00
(PID.TID 0000.0001) %MON dynstat_sst_del2             =   1.4983462960011E-02
(PID.TID 0000.0001) %MON dynstat_sss_max              =   4.1346882235881E+01
(PID.TID 0000.0001) %MON dynstat_sss_min              =   1.8752365564041E+01
(PID.TID 0000.0001) %MON dynstat_sss_mean             =   3.4620903897627E+01
(PID.TID 0000.0001) %MON dynstat_sss_sd               =   1.4889993821513E+00
(PID.TID 0000.0001) %MON dynstat_sss_del2             =   1.2679086318741E-02
(PID.TID 0000.0001) %MON forcing_qnet_max             =   1.5642619628906E+03
(PID.TID 0000.0001) %MON forcing_qnet_min             =  -9.2083753287535E+02
(PID.TID 0000.0001) %MON forcing_qnet_mean            =  -2.9486976700906E+01
(PID.TID 0000.0001) %MON forcing_qnet_sd              =   2.0281373176419E+02
(PID.TID 0000.0001) %MON forcing_qnet_del2            =   3.3748719717445E+00
(PID.TID 0000.0001) %MON forcing_qsw_max              =   0.0000000000000E+00
(PID.TID 0000.0001) %MON forcing_qsw_min              =  -1.0426565497636E+02
(PID.TID 0000.0001) %MON forcing_qsw_mean             =  -1.8151135232451E+01
(PID.TID 0000.0001) %MON forcing_qsw_sd               =   2.7603507294067E+01
(PID.TID 0000.0001) %MON forcing_qsw_del2             =   2.3689181704706E-01
(PID.TID 0000.0001) %MON forcing_empmr_max            =   4.9450825899839E-03
(PID.TID 0000.0001) %MON forcing_empmr_min            =  -7.1095801889896E-02
(PID.TID 0000.0001) %MON forcing_empmr_mean           =  -2.1703176523272E-04
(PID.TID 0000.0001) %MON forcing_empmr_sd             =   3.1336078979394E-03
(PID.TID 0000.0001) %MON forcing_empmr_del2           =   1.2347096320433E-04
(PID.TID 0000.0001) %MON forcing_fu_max               =   2.9218468834772E-01
(PID.TID 0000.0001) %MON forcing_fu_min               =  -3.6253094522432E-01
(PID.TID 0000.0001) %MON forcing_fu_mean              =  -3.8563961949613E-03
(PID.TID 0000.0001) %MON forcing_fu_sd                =   5.9588564899716E-02
(PID.TID 0000.0001) %MON forcing_fu_del2              =   5.8981430292867E-04
(PID.TID 0000.0001) %MON forcing_fv_max               =   2.9401706991387E-01
(PID.TID 0000.0001) %MON forcing_fv_min               =  -2.4989172524999E-01
(PID.TID 0000.0001) %MON forcing_fv_mean              =  -1.4790741274350E-02
(PID.TID 0000.0001) %MON forcing_fv_sd                =   6.0779865724777E-02
(PID.TID 0000.0001) %MON forcing_fv_del2              =   5.2105884706180E-04
(PID.TID 0000.0001) %MON trAdv_CFL_u_max              =   1.9351092078751E-03
(PID.TID 0000.0001) %MON trAdv_CFL_v_max              =   1.1877798169232E-03
(PID.TID 0000.0001) %MON trAdv_CFL_w_max              =   1.3596682077773E-03
(PID.TID 0000.0001) %MON advcfl_uvel_max              =   1.9340494443016E-03
(PID.TID 0000.0001) %MON advcfl_vvel_max              =   1.1779223783414E-03
(PID.TID 0000.0001) %MON advcfl_wvel_max              =   2.4728974570399E-03
(PID.TID 0000.0001) %MON advcfl_W_hf_max              =   1.3596682077773E-03
(PID.TID 0000.0001) %MON pe_b_mean                    =   4.9967623944887E-04
(PID.TID 0000.0001) %MON ke_max                       =   1.9860849153384E-01
(PID.TID 0000.0001) %MON ke_mean                      =   1.6457069652774E-04
(PID.TID 0000.0001) %MON ke_vol                       =   1.3398144002891E+18
(PID.TID 0000.0001) %MON vort_r_min                   =  -2.4172370656230E-06
(PID.TID 0000.0001) %MON vort_r_max                   =   2.6110982678425E-06
(PID.TID 0000.0001) %MON vort_a_mean                  =  -2.0549865324846E-05
(PID.TID 0000.0001) %MON vort_a_sd                    =   7.5259691801676E-05
(PID.TID 0000.0001) %MON vort_p_mean                  =  -2.4783243563466E-05
(PID.TID 0000.0001) %MON vort_p_sd                    =   1.2811919903355E-04
(PID.TID 0000.0001) %MON surfExpan_theta_mean         =  -5.5247359108086E-06
(PID.TID 0000.0001) %MON surfExpan_salt_mean          =   1.1145013771606E-06
(PID.TID 0000.0001) // =======================================================
(PID.TID 0000.0001) // End MONITOR dynamic field statistics
(PID.TID 0000.0001) // =======================================================
 Computing Diagnostic #     81  oceTAUX      Counter:       1   Parms: UU      U1      
           Vector  Mate for  oceTAUX      Diagnostic #     82  oceTAUY  exists 
 Computing Diagnostic #     82  oceTAUY      Counter:       1   Parms: VV      U1      
           Vector  Mate for  oceTAUY      Diagnostic #     81  oceTAUX  exists 
 Computing Diagnostic #     85  oceFWflx     Counter:       1   Parms: SM      U1      
 Computing Diagnostic #     86  oceSflux     Counter:       1   Parms: SM      U1      
 Computing Diagnostic #     87  oceQnet      Counter:       1   Parms: SM      U1      
 Computing Diagnostic #     88  oceQsw       Counter:       1   Parms: SM      U1      
 Computing Diagnostic #     27  SALT         Counter:       1   Parms: SMR     MR      
 Computing Diagnostic #     26  THETA        Counter:       1   Parms: SMR     MR      
 Computing Diagnostic #     45  UVELMASS     Counter:       1   Parms: UUr     MR      
           Vector  Mate for  UVELMASS     Diagnostic #     46  VVELMASS exists 
 Computing Diagnostic #     46  VVELMASS     Counter:       1   Parms: VVr     MR      
           Vector  Mate for  VVELMASS     Diagnostic #     45  UVELMASS exists 
 cg2d: Sum(rhs),rhsMax =  -7.89578501050231E+01  3.62171810122071E+01
(PID.TID 0000.0001)      cg2d_init_res =   1.88414346326262E-01
(PID.TID 0000.0001)      cg2d_iters(min,last) =      -1      10
(PID.TID 0000.0001)      cg2d_last_res =   7.08644134683505E-08
(PID.TID 0000.0001) // =======================================================
(PID.TID 0000.0001) // Begin MONITOR dynamic field statistics
(PID.TID 0000.0001) // =======================================================
(PID.TID 0000.0001) %MON time_tsnumber                =                 72080
(PID.TID 0000.0001) %MON time_secondsf                =   6.4872000000000E+07
(PID.TID 0000.0001) %MON dynstat_eta_max              =   1.2897544234210E+00
(PID.TID 0000.0001) %MON dynstat_eta_min              =  -1.5620558640509E+00
(PID.TID 0000.0001) %MON dynstat_eta_mean             =   3.3228530207030E-02
(PID.TID 0000.0001) %MON dynstat_eta_sd               =   6.1147640275601E-01
(PID.TID 0000.0001) %MON dynstat_eta_del2             =   1.5584613836853E-03
(PID.TID 0000.0001) %MON dynstat_uvel_max             =   3.9402901581293E-01
(PID.TID 0000.0001) %MON dynstat_uvel_min             =  -6.8209338013109E-01
(PID.TID 0000.0001) %MON dynstat_uvel_mean            =  -3.7968292862957E-04
(PID.TID 0000.0001) %MON dynstat_uvel_sd              =   1.2997425964757E-02
(PID.TID 0000.0001) %MON dynstat_uvel_del2            =   8.4608287812029E-05
(PID.TID 0000.0001) %MON dynstat_vvel_max             =   2.4760084312893E-01
(PID.TID 0000.0001) %MON dynstat_vvel_min             =  -3.9047409558165E-01
(PID.TID 0000.0001) %MON dynstat_vvel_mean            =   2.7264324299767E-04
(PID.TID 0000.0001) %MON dynstat_vvel_sd              =   1.3680441110756E-02
(PID.TID 0000.0001) %MON dynstat_vvel_del2            =   8.6852197100332E-05
(PID.TID 0000.0001) %MON dynstat_wvel_max             =   1.2220334758860E-04
(PID.TID 0000.0001) %MON dynstat_wvel_min             =  -1.9159667699427E-04
(PID.TID 0000.0001) %MON dynstat_wvel_mean            =  -8.4389796077777E-08
(PID.TID 0000.0001) %MON dynstat_wvel_sd              =   7.6857517599860E-06
(PID.TID 0000.0001) %MON dynstat_wvel_del2            =   6.8130699452925E-08
(PID.TID 0000.0001) %MON dynstat_theta_max            =   3.0921739629781E+01
(PID.TID 0000.0001) %MON dynstat_theta_min            =  -3.0126717609743E+00
(PID.TID 0000.0001) %MON dynstat_theta_mean           =   3.9091921026148E+00
(PID.TID 0000.0001) %MON dynstat_theta_sd             =   4.5716000824620E+00
(PID.TID 0000.0001) %MON dynstat_theta_del2           =   2.6390958062546E-03
(PID.TID 0000.0001) %MON dynstat_salt_max             =   4.1346844883296E+01
(PID.TID 0000.0001) %MON dynstat_salt_min             =   1.8519183557548E+01
(PID.TID 0000.0001) %MON dynstat_salt_mean            =   3.4771903772561E+01
(PID.TID 0000.0001) %MON dynstat_salt_sd              =   5.3221961562386E-01
(PID.TID 0000.0001) %MON dynstat_salt_del2            =   1.1232020839298E-03
(PID.TID 0000.0001) %MON dynstat_sst_max              =   3.0921739629781E+01
(PID.TID 0000.0001) %MON dynstat_sst_min              =  -1.8990224312499E+00
(PID.TID 0000.0001) %MON dynstat_sst_mean             =   1.8108672276802E+01
(PID.TID 0000.0001) %MON dynstat_sst_sd               =   9.8132808671957E+00
(PID.TID 0000.0001) %MON dynstat_sst_del2             =   1.4981849690832E-02
(PID.TID 0000.0001) %MON dynstat_sss_max              =   4.1346844883296E+01
(PID.TID 0000.0001) %MON dynstat_sss_min              =   1.8752381145573E+01
(PID.TID 0000.0001) %MON dynstat_sss_mean             =   3.4620776031175E+01
(PID.TID 0000.0001) %MON dynstat_sss_sd               =   1.4892809880834E+00
(PID.TID 0000.0001) %MON dynstat_sss_del2             =   1.2712809841442E-02
(PID.TID 0000.0001) %MON forcing_qnet_max             =   1.5468828125000E+03
(PID.TID 0000.0001) %MON forcing_qnet_min             =  -1.0019686279297E+03
(PID.TID 0000.0001) %MON forcing_qnet_mean            =  -2.9925139033695E+01
(PID.TID 0000.0001) %MON forcing_qnet_sd              =   2.0152087774053E+02
(PID.TID 0000.0001) %MON forcing_qnet_del2            =   3.4414155585619E+00
(PID.TID 0000.0001) %MON forcing_qsw_max              =   0.0000000000000E+00
(PID.TID 0000.0001) %MON forcing_qsw_min              =  -1.0515227020765E+02
(PID.TID 0000.0001) %MON forcing_qsw_mean             =  -1.8228559541917E+01
(PID.TID 0000.0001) %MON forcing_qsw_sd               =   2.7553073502762E+01
(PID.TID 0000.0001) %MON forcing_qsw_del2             =   2.3502224392098E-01
(PID.TID 0000.0001) %MON forcing_empmr_max            =   4.8941094428301E-03
(PID.TID 0000.0001) %MON forcing_empmr_min            =  -7.0364117622375E-02
(PID.TID 0000.0001) %MON forcing_empmr_mean           =  -2.1433710459953E-04
(PID.TID 0000.0001) %MON forcing_empmr_sd             =   3.1017046587775E-03
(PID.TID 0000.0001) %MON forcing_empmr_del2           =   1.2219500804850E-04
(PID.TID 0000.0001) %MON forcing_fu_max               =   2.7557839784927E-01
(PID.TID 0000.0001) %MON forcing_fu_min               =  -3.5674537097651E-01
(PID.TID 0000.0001) %MON forcing_fu_mean              =  -3.9343998103891E-03
(PID.TID 0000.0001) %MON forcing_fu_sd                =   5.9180859025900E-02
(PID.TID 0000.0001) %MON forcing_fu_del2              =   5.8594244136891E-04
(PID.TID 0000.0001) %MON forcing_fv_max               =   2.8581546099244E-01
(PID.TID 0000.0001) %MON forcing_fv_min               =  -2.5028317903088E-01
(PID.TID 0000.0001) %MON forcing_fv_mean              =  -1.4805925446341E-02
(PID.TID 0000.0001) %MON forcing_fv_sd                =   6.0774893837126E-02
(PID.TID 0000.0001) %MON forcing_fv_del2              =   5.1927096172896E-04
(PID.TID 0000.0001) %MON trAdv_CFL_u_max              =   1.9697758473582E-03
(PID.TID 0000.0001) %MON trAdv_CFL_v_max              =   1.2735107070000E-03
(PID.TID 0000.0001) %MON trAdv_CFL_w_max              =   1.2981635744901E-03
(PID.TID 0000.0001) %MON advcfl_uvel_max              =   1.9677302939178E-03
(PID.TID 0000.0001) %MON advcfl_vvel_max              =   1.2742594072143E-03
(PID.TID 0000.0001) %MON advcfl_wvel_max              =   2.4474475694739E-03
(PID.TID 0000.0001) %MON advcfl_W_hf_max              =   1.3221851727889E-03
(PID.TID 0000.0001) %MON pe_b_mean                    =   4.9957484175521E-04
(PID.TID 0000.0001) %MON ke_max                       =   1.9233454716266E-01
(PID.TID 0000.0001) %MON ke_mean                      =   1.6453906528430E-04
(PID.TID 0000.0001) %MON ke_vol                       =   1.3398144689630E+18
(PID.TID 0000.0001) %MON vort_r_min                   =  -2.1954701965016E-06
(PID.TID 0000.0001) %MON vort_r_max                   =   2.6627388070449E-06
(PID.TID 0000.0001) %MON vort_a_mean                  =  -2.0549865324846E-05
(PID.TID 0000.0001) %MON vort_a_sd                    =   7.5259687038897E-05
(PID.TID 0000.0001) %MON vort_p_mean                  =  -2.4783242217312E-05
(PID.TID 0000.0001) %MON vort_p_sd                    =   1.2811919818913E-04
(PID.TID 0000.0001) %MON surfExpan_theta_mean         =  -5.3938133329959E-06
(PID.TID 0000.0001) %MON surfExpan_salt_mean          =   1.0970559762522E-06
(PID.TID 0000.0001) // =======================================================
(PID.TID 0000.0001) // End MONITOR dynamic field statistics
(PID.TID 0000.0001) // =======================================================
 cg2d: Sum(rhs),rhsMax =  -7.93708427789803E+01  3.62290779514641E+01
(PID.TID 0000.0001)      cg2d_init_res =   1.90246909942494E-01
(PID.TID 0000.0001)      cg2d_iters(min,last) =      -1      10
(PID.TID 0000.0001)      cg2d_last_res =   6.22828026667502E-08
(PID.TID 0000.0001) // =======================================================
(PID.TID 0000.0001) // Begin MONITOR dynamic field statistics
(PID.TID 0000.0001) // =======================================================
(PID.TID 0000.0001) %MON time_tsnumber                =                 72081
(PID.TID 0000.0001) %MON time_secondsf                =   6.4872900000000E+07
(PID.TID 0000.0001) %MON dynstat_eta_max              =   1.2631911975128E+00
(PID.TID 0000.0001) %MON dynstat_eta_min              =  -1.5609621858369E+00
(PID.TID 0000.0001) %MON dynstat_eta_mean             =   3.3413305859028E-02
(PID.TID 0000.0001) %MON dynstat_eta_sd               =   6.1139764155435E-01
(PID.TID 0000.0001) %MON dynstat_eta_del2             =   1.5100086440502E-03
(PID.TID 0000.0001) %MON dynstat_uvel_max             =   4.0690181287357E-01
(PID.TID 0000.0001) %MON dynstat_uvel_min             =  -6.9202564352763E-01
(PID.TID 0000.0001) %MON dynstat_uvel_mean            =  -3.9393151378415E-04
(PID.TID 0000.0001) %MON dynstat_uvel_sd              =   1.2981986017658E-02
(PID.TID 0000.0001) %MON dynstat_uvel_del2            =   8.4565579074820E-05
(PID.TID 0000.0001) %MON dynstat_vvel_max             =   2.7234105139060E-01
(PID.TID 0000.0001) %MON dynstat_vvel_min             =  -4.1318365347729E-01
(PID.TID 0000.0001) %MON dynstat_vvel_mean            =   2.5208714207852E-04
(PID.TID 0000.0001) %MON dynstat_vvel_sd              =   1.3692130550762E-02
(PID.TID 0000.0001) %MON dynstat_vvel_del2            =   8.7547740596849E-05
(PID.TID 0000.0001) %MON dynstat_wvel_max             =   1.1998200702571E-04
(PID.TID 0000.0001) %MON dynstat_wvel_min             =  -1.9162898535892E-04
(PID.TID 0000.0001) %MON dynstat_wvel_mean            =  -7.7152658720705E-08
(PID.TID 0000.0001) %MON dynstat_wvel_sd              =   7.6712934403159E-06
(PID.TID 0000.0001) %MON dynstat_wvel_del2            =   6.7910012165999E-08
(PID.TID 0000.0001) %MON dynstat_theta_max            =   3.0921521613027E+01
(PID.TID 0000.0001) %MON dynstat_theta_min            =  -3.0131931178824E+00
(PID.TID 0000.0001) %MON dynstat_theta_mean           =   3.9091951272432E+00
(PID.TID 0000.0001) %MON dynstat_theta_sd             =   4.5716116194886E+00
(PID.TID 0000.0001) %MON dynstat_theta_del2           =   2.6389952621078E-03
(PID.TID 0000.0001) %MON dynstat_salt_max             =   4.1346808375158E+01
(PID.TID 0000.0001) %MON dynstat_salt_min             =   1.8519193570402E+01
(PID.TID 0000.0001) %MON dynstat_salt_mean            =   3.4771902133676E+01
(PID.TID 0000.0001) %MON dynstat_salt_sd              =   5.3223056845270E-01
(PID.TID 0000.0001) %MON dynstat_salt_del2            =   1.1255634509310E-03
(PID.TID 0000.0001) %MON dynstat_sst_max              =   3.0921521613027E+01
(PID.TID 0000.0001) %MON dynstat_sst_min              =  -1.8989266245943E+00
(PID.TID 0000.0001) %MON dynstat_sst_mean             =   1.8108798404887E+01
(PID.TID 0000.0001) %MON dynstat_sst_sd               =   9.8134254813890E+00
(PID.TID 0000.0001) %MON dynstat_sst_del2             =   1.4980214909672E-02
(PID.TID 0000.0001) %MON dynstat_sss_max              =   4.1346808375158E+01
(PID.TID 0000.0001) %MON dynstat_sss_min              =   1.8752396515261E+01
(PID.TID 0000.0001) %MON dynstat_sss_mean             =   3.4620650273027E+01
(PID.TID 0000.0001) %MON dynstat_sss_sd               =   1.4895582020726E+00
(PID.TID 0000.0001) %MON dynstat_sss_del2             =   1.2745791026047E-02
(PID.TID 0000.0001) %MON forcing_qnet_max             =   1.5306021728516E+03
(PID.TID 0000.0001) %MON forcing_qnet_min             =  -1.6577713572417E+03
(PID.TID 0000.0001) %MON forcing_qnet_mean            =  -3.2404560287887E+01
(PID.TID 0000.0001) %MON forcing_qnet_sd              =   1.9927907136890E+02
(PID.TID 0000.0001) %MON forcing_qnet_del2            =   3.5462442227335E+00
(PID.TID 0000.0001) %MON forcing_qsw_max              =   0.0000000000000E+00
(PID.TID 0000.0001) %MON forcing_qsw_min              =  -1.0486736721678E+02
(PID.TID 0000.0001) %MON forcing_qsw_mean             =  -1.8513507682033E+01
(PID.TID 0000.0001) %MON forcing_qsw_sd               =   2.7565494635693E+01
(PID.TID 0000.0001) %MON forcing_qsw_del2             =   2.3057781110949E-01
(PID.TID 0000.0001) %MON forcing_empmr_max            =   4.8437267541885E-03
(PID.TID 0000.0001) %MON forcing_empmr_min            =  -6.9639980792999E-02
(PID.TID 0000.0001) %MON forcing_empmr_mean           =  -2.1249199979837E-04
(PID.TID 0000.0001) %MON forcing_empmr_sd             =   3.0700732572859E-03
(PID.TID 0000.0001) %MON forcing_empmr_del2           =   1.2093625741790E-04
(PID.TID 0000.0001) %MON forcing_fu_max               =   2.8015675567475E-01
(PID.TID 0000.0001) %MON forcing_fu_min               =  -3.5477649603176E-01
(PID.TID 0000.0001) %MON forcing_fu_mean              =  -4.0119613663624E-03
(PID.TID 0000.0001) %MON forcing_fu_sd                =   5.8891872584929E-02
(PID.TID 0000.0001) %MON forcing_fu_del2              =   5.8331385039942E-04
(PID.TID 0000.0001) %MON forcing_fv_max               =   2.6688807292792E-01
(PID.TID 0000.0001) %MON forcing_fv_min               =  -2.5067135572979E-01
(PID.TID 0000.0001) %MON forcing_fv_mean              =  -1.4860287570553E-02
(PID.TID 0000.0001) %MON forcing_fv_sd                =   6.0565188546225E-02
(PID.TID 0000.0001) %MON forcing_fv_del2              =   5.1563988756366E-04
(PID.TID 0000.0001) %MON trAdv_CFL_u_max              =   1.9995193175669E-03
(PID.TID 0000.0001) %MON trAdv_CFL_v_max              =   1.3526668483259E-03
(PID.TID 0000.0001) %MON trAdv_CFL_w_max              =   1.2357677268129E-03
(PID.TID 0000.0001) %MON advcfl_uvel_max              =   1.9963832850504E-03
(PID.TID 0000.0001) %MON advcfl_vvel_max              =   1.3483689783988E-03
(PID.TID 0000.0001) %MON advcfl_wvel_max              =   2.4222602014956E-03
(PID.TID 0000.0001) %MON advcfl_W_hf_max              =   1.3225143139273E-03
(PID.TID 0000.0001) %MON pe_b_mean                    =   4.9946291230127E-04
(PID.TID 0000.0001) %MON ke_max                       =   1.8582298443841E-01
(PID.TID 0000.0001) %MON ke_mean                      =   1.6450332109866E-04
(PID.TID 0000.0001) %MON ke_vol                       =   1.3398145367842E+18
(PID.TID 0000.0001) %MON vort_r_min                   =  -2.2274394090846E-06
(PID.TID 0000.0001) %MON vort_r_max                   =   2.7053066127623E-06
(PID.TID 0000.0001) %MON vort_a_mean                  =  -2.0549865324846E-05
(PID.TID 0000.0001) %MON vort_a_sd                    =   7.5259682445429E-05
(PID.TID 0000.0001) %MON vort_p_mean                  =  -2.4783240903681E-05
(PID.TID 0000.0001) %MON vort_p_sd                    =   1.2811919837733E-04
(PID.TID 0000.0001) %MON surfExpan_theta_mean         =  -5.2766293991493E-06
(PID.TID 0000.0001) %MON surfExpan_salt_mean          =   1.0787148411645E-06
(PID.TID 0000.0001) // =======================================================
(PID.TID 0000.0001) // End MONITOR dynamic field statistics
(PID.TID 0000.0001) // =======================================================
 cg2d: Sum(rhs),rhsMax =  -7.97907301281915E+01  3.62361287243429E+01
(PID.TID 0000.0001)      cg2d_init_res =   1.91956505609499E-01
(PID.TID 0000.0001)      cg2d_iters(min,last) =      -1      10
(PID.TID 0000.0001)      cg2d_last_res =   5.24753481937207E-08
(PID.TID 0000.0001) // =======================================================
(PID.TID 0000.0001) // Begin MONITOR dynamic field statistics
(PID.TID 0000.0001) // =======================================================
(PID.TID 0000.0001) %MON time_tsnumber                =                 72082
(PID.TID 0000.0001) %MON time_secondsf                =   6.4873800000000E+07
(PID.TID 0000.0001) %MON dynstat_eta_max              =   1.2296905644511E+00
(PID.TID 0000.0001) %MON dynstat_eta_min              =  -1.5598498720547E+00
(PID.TID 0000.0001) %MON dynstat_eta_mean             =   3.3596605988847E-02
(PID.TID 0000.0001) %MON dynstat_eta_sd               =   6.1131524128893E-01
(PID.TID 0000.0001) %MON dynstat_eta_del2             =   1.4609346499627E-03
(PID.TID 0000.0001) %MON dynstat_uvel_max             =   4.1622957530213E-01
(PID.TID 0000.0001) %MON dynstat_uvel_min             =  -7.0010460686932E-01
(PID.TID 0000.0001) %MON dynstat_uvel_mean            =  -4.0808521642043E-04
(PID.TID 0000.0001) %MON dynstat_uvel_sd              =   1.2967140799453E-02
(PID.TID 0000.0001) %MON dynstat_uvel_del2            =   8.4596130666515E-05
(PID.TID 0000.0001) %MON dynstat_vvel_max             =   2.9315636290752E-01
(PID.TID 0000.0001) %MON dynstat_vvel_min             =  -4.2897997876337E-01
(PID.TID 0000.0001) %MON dynstat_vvel_mean            =   2.3251804342510E-04
(PID.TID 0000.0001) %MON dynstat_vvel_sd              =   1.3702366881584E-02
(PID.TID 0000.0001) %MON dynstat_vvel_del2            =   8.8109812289763E-05
(PID.TID 0000.0001) %MON dynstat_wvel_max             =   1.1674183382207E-04
(PID.TID 0000.0001) %MON dynstat_wvel_min             =  -1.9167254856704E-04
(PID.TID 0000.0001) %MON dynstat_wvel_mean            =  -7.0776990416721E-08
(PID.TID 0000.0001) %MON dynstat_wvel_sd              =   7.6566067478078E-06
(PID.TID 0000.0001) %MON dynstat_wvel_del2            =   6.7659191571510E-08
(PID.TID 0000.0001) %MON dynstat_theta_max            =   3.0921295535851E+01
(PID.TID 0000.0001) %MON dynstat_theta_min            =  -3.0137285338038E+00
(PID.TID 0000.0001) %MON dynstat_theta_mean           =   3.9091981770270E+00
(PID.TID 0000.0001) %MON dynstat_theta_sd             =   4.5716233214742E+00
(PID.TID 0000.0001) %MON dynstat_theta_del2           =   2.6388948236941E-03
(PID.TID 0000.0001) %MON dynstat_salt_max             =   4.1346773218674E+01
(PID.TID 0000.0001) %MON dynstat_salt_min             =   1.8519203587855E+01
(PID.TID 0000.0001) %MON dynstat_salt_mean            =   3.4771900523580E+01
(PID.TID 0000.0001) %MON dynstat_salt_sd              =   5.3224138318532E-01
(PID.TID 0000.0001) %MON dynstat_salt_del2            =   1.1278730529523E-03
(PID.TID 0000.0001) %MON dynstat_sst_max              =   3.0921295535851E+01
(PID.TID 0000.0001) %MON dynstat_sst_min              =  -1.8988191799241E+00
(PID.TID 0000.0001) %MON dynstat_sst_mean             =   1.8108927671887E+01
(PID.TID 0000.0001) %MON dynstat_sst_sd               =   9.8135725146273E+00
(PID.TID 0000.0001) %MON dynstat_sst_del2             =   1.4978727034564E-02
(PID.TID 0000.0001) %MON dynstat_sss_max              =   4.1346773218674E+01
(PID.TID 0000.0001) %MON dynstat_sss_min              =   1.8752411605012E+01
(PID.TID 0000.0001) %MON dynstat_sss_mean             =   3.4620526878273E+01
(PID.TID 0000.0001) %MON dynstat_sss_sd               =   1.4898313612314E+00
(PID.TID 0000.0001) %MON dynstat_sss_del2             =   1.2778043200241E-02
(PID.TID 0000.0001) %MON forcing_qnet_max             =   1.5127418212891E+03
(PID.TID 0000.0001) %MON forcing_qnet_min             =  -2.3205713102247E+03
(PID.TID 0000.0001) %MON forcing_qnet_mean            =  -3.3002517546968E+01
(PID.TID 0000.0001) %MON forcing_qnet_sd              =   1.9925874750699E+02
(PID.TID 0000.0001) %MON forcing_qnet_del2            =   3.7191670432817E+00
(PID.TID 0000.0001) %MON forcing_qsw_max              =   0.0000000000000E+00
(PID.TID 0000.0001) %MON forcing_qsw_min              =  -1.0530955704230E+02
(PID.TID 0000.0001) %MON forcing_qsw_mean             =  -1.8691829093177E+01
(PID.TID 0000.0001) %MON forcing_qsw_sd               =   2.7661694245948E+01
(PID.TID 0000.0001) %MON forcing_qsw_del2             =   2.2962068255982E-01
(PID.TID 0000.0001) %MON forcing_empmr_max            =   4.7938362695277E-03
(PID.TID 0000.0001) %MON forcing_empmr_min            =  -6.8922564387321E-02
(PID.TID 0000.0001) %MON forcing_empmr_mean           =  -2.1079514929178E-04
(PID.TID 0000.0001) %MON forcing_empmr_sd             =   3.0388244637818E-03
(PID.TID 0000.0001) %MON forcing_empmr_del2           =   1.1968703958019E-04
(PID.TID 0000.0001) %MON forcing_fu_max               =   2.8039411850055E-01
(PID.TID 0000.0001) %MON forcing_fu_min               =  -3.4949170069920E-01
(PID.TID 0000.0001) %MON forcing_fu_mean              =  -4.1085276463206E-03
(PID.TID 0000.0001) %MON forcing_fu_sd                =   5.8533735573450E-02
(PID.TID 0000.0001) %MON forcing_fu_del2              =   5.8029136402901E-04
(PID.TID 0000.0001) %MON forcing_fv_max               =   2.5853650834741E-01
(PID.TID 0000.0001) %MON forcing_fv_min               =  -2.5143124029520E-01
(PID.TID 0000.0001) %MON forcing_fv_mean              =  -1.4921124185232E-02
(PID.TID 0000.0001) %MON forcing_fv_sd                =   6.0397747858838E-02
(PID.TID 0000.0001) %MON forcing_fv_del2              =   5.1230655760734E-04
(PID.TID 0000.0001) %MON trAdv_CFL_u_max              =   2.0240138798163E-03
(PID.TID 0000.0001) %MON trAdv_CFL_v_max              =   1.4077587923881E-03
(PID.TID 0000.0001) %MON trAdv_CFL_w_max              =   1.1729970887733E-03
(PID.TID 0000.0001) %MON advcfl_uvel_max              =   2.0196898019790E-03
(PID.TID 0000.0001) %MON advcfl_vvel_max              =   1.3999181498367E-03
(PID.TID 0000.0001) %MON advcfl_wvel_max              =   2.3973065873851E-03
(PID.TID 0000.0001) %MON advcfl_W_hf_max              =   1.3193402077990E-03
(PID.TID 0000.0001) %MON pe_b_mean                    =   4.9934503132819E-04
(PID.TID 0000.0001) %MON ke_max                       =   1.7916853187834E-01
(PID.TID 0000.0001) %MON ke_mean                      =   1.6445728754334E-04
(PID.TID 0000.0001) %MON ke_vol                       =   1.3398146040216E+18
(PID.TID 0000.0001) %MON vort_r_min                   =  -2.2534433606725E-06
(PID.TID 0000.0001) %MON vort_r_max                   =   2.7384776699365E-06
(PID.TID 0000.0001) %MON vort_a_mean                  =  -2.0549865324846E-05
(PID.TID 0000.0001) %MON vort_a_sd                    =   7.5259678075528E-05
(PID.TID 0000.0001) %MON vort_p_mean                  =  -2.4783239615648E-05
(PID.TID 0000.0001) %MON vort_p_sd                    =   1.2811919966846E-04
(PID.TID 0000.0001) %MON surfExpan_theta_mean         =  -5.1609741875920E-06
(PID.TID 0000.0001) %MON surfExpan_salt_mean          =   1.0600754250544E-06
(PID.TID 0000.0001) // =======================================================
(PID.TID 0000.0001) // End MONITOR dynamic field statistics
(PID.TID 0000.0001) // =======================================================
 cg2d: Sum(rhs),rhsMax =  -8.02151235693981E+01  3.62390482597074E+01
(PID.TID 0000.0001)      cg2d_init_res =   1.93283554967405E-01
(PID.TID 0000.0001)      cg2d_iters(min,last) =      -1      10
(PID.TID 0000.0001)      cg2d_last_res =   4.51455668413602E-08
(PID.TID 0000.0001) // =======================================================
(PID.TID 0000.0001) // Begin MONITOR dynamic field statistics
(PID.TID 0000.0001) // =======================================================
(PID.TID 0000.0001) %MON time_tsnumber                =                 72083
(PID.TID 0000.0001) %MON time_secondsf                =   6.4874700000000E+07
(PID.TID 0000.0001) %MON dynstat_eta_max              =   1.1894416792779E+00
(PID.TID 0000.0001) %MON dynstat_eta_min              =  -1.5587430451966E+00
(PID.TID 0000.0001) %MON dynstat_eta_mean             =   3.3778021938966E-02
(PID.TID 0000.0001) %MON dynstat_eta_sd               =   6.1123056404221E-01
(PID.TID 0000.0001) %MON dynstat_eta_del2             =   1.4137379903556E-03
(PID.TID 0000.0001) %MON dynstat_uvel_max             =   4.2196197133432E-01
(PID.TID 0000.0001) %MON dynstat_uvel_min             =  -7.0622789592720E-01
(PID.TID 0000.0001) %MON dynstat_uvel_mean            =  -4.2190650183342E-04
(PID.TID 0000.0001) %MON dynstat_uvel_sd              =   1.2952975494454E-02
(PID.TID 0000.0001) %MON dynstat_uvel_del2            =   8.4682857071354E-05
(PID.TID 0000.0001) %MON dynstat_vvel_max             =   3.0985211204549E-01
(PID.TID 0000.0001) %MON dynstat_vvel_min             =  -4.3786201254160E-01
(PID.TID 0000.0001) %MON dynstat_vvel_mean            =   2.1420226326731E-04
(PID.TID 0000.0001) %MON dynstat_vvel_sd              =   1.3710727538620E-02
(PID.TID 0000.0001) %MON dynstat_vvel_del2            =   8.8495165775207E-05
(PID.TID 0000.0001) %MON dynstat_wvel_max             =   1.1253556646868E-04
(PID.TID 0000.0001) %MON dynstat_wvel_min             =  -1.9172969267923E-04
(PID.TID 0000.0001) %MON dynstat_wvel_mean            =  -6.5055969969655E-08
(PID.TID 0000.0001) %MON dynstat_wvel_sd              =   7.6415536780506E-06
(PID.TID 0000.0001) %MON dynstat_wvel_del2            =   6.7380416586123E-08
(PID.TID 0000.0001) %MON dynstat_theta_max            =   3.0921061257272E+01
(PID.TID 0000.0001) %MON dynstat_theta_min            =  -3.0142767201136E+00
(PID.TID 0000.0001) %MON dynstat_theta_mean           =   3.9092012165820E+00
(PID.TID 0000.0001) %MON dynstat_theta_sd             =   4.5716350426519E+00
(PID.TID 0000.0001) %MON dynstat_theta_del2           =   2.6387903052064E-03
(PID.TID 0000.0001) %MON dynstat_salt_max             =   4.1346740093276E+01
(PID.TID 0000.0001) %MON dynstat_salt_min             =   1.8519213611718E+01
(PID.TID 0000.0001) %MON dynstat_salt_mean            =   3.4771898927523E+01
(PID.TID 0000.0001) %MON dynstat_salt_sd              =   5.3225200006826E-01
(PID.TID 0000.0001) %MON dynstat_salt_del2            =   1.1301311704507E-03
(PID.TID 0000.0001) %MON dynstat_sst_max              =   3.0921061257272E+01
(PID.TID 0000.0001) %MON dynstat_sst_min              =  -1.8987016912940E+00
(PID.TID 0000.0001) %MON dynstat_sst_mean             =   1.8109056879968E+01
(PID.TID 0000.0001) %MON dynstat_sst_sd               =   9.8137212796772E+00
(PID.TID 0000.0001) %MON dynstat_sst_del2             =   1.4977006880749E-02
(PID.TID 0000.0001) %MON dynstat_sss_max              =   4.1346740093276E+01
(PID.TID 0000.0001) %MON dynstat_sss_min              =   1.8752426494688E+01
(PID.TID 0000.0001) %MON dynstat_sss_mean             =   3.4620404570909E+01
(PID.TID 0000.0001) %MON dynstat_sss_sd               =   1.4900986324934E+00
(PID.TID 0000.0001) %MON dynstat_sss_del2             =   1.2809557308934E-02
(PID.TID 0000.0001) %MON forcing_qnet_max             =   1.4959750976562E+03
(PID.TID 0000.0001) %MON forcing_qnet_min             =  -9.0277768890053E+02
(PID.TID 0000.0001) %MON forcing_qnet_mean            =  -3.3059337987784E+01
(PID.TID 0000.0001) %MON forcing_qnet_sd              =   1.9448022453923E+02
(PID.TID 0000.0001) %MON forcing_qnet_del2            =   3.3740801819219E+00
(PID.TID 0000.0001) %MON forcing_qsw_max              =   0.0000000000000E+00
(PID.TID 0000.0001) %MON forcing_qsw_min              =  -1.0591096662530E+02
(PID.TID 0000.0001) %MON forcing_qsw_mean             =  -1.8825065402201E+01
(PID.TID 0000.0001) %MON forcing_qsw_sd               =   2.7738547338411E+01
(PID.TID 0000.0001) %MON forcing_qsw_del2             =   2.2841527911357E-01
(PID.TID 0000.0001) %MON forcing_empmr_max            =   4.7444375231862E-03
(PID.TID 0000.0001) %MON forcing_empmr_min            =  -6.8213537335396E-02
(PID.TID 0000.0001) %MON forcing_empmr_mean           =  -2.0862834263711E-04
(PID.TID 0000.0001) %MON forcing_empmr_sd             =   3.0075910271153E-03
(PID.TID 0000.0001) %MON forcing_empmr_del2           =   1.1843921065199E-04
(PID.TID 0000.0001) %MON forcing_fu_max               =   2.7547722282621E-01
(PID.TID 0000.0001) %MON forcing_fu_min               =  -3.4514621805957E-01
(PID.TID 0000.0001) %MON forcing_fu_mean              =  -4.2099997471074E-03
(PID.TID 0000.0001) %MON forcing_fu_sd                =   5.8130692530921E-02
(PID.TID 0000.0001) %MON forcing_fu_del2              =   5.7714505693433E-04
(PID.TID 0000.0001) %MON forcing_fv_max               =   2.6689585594391E-01
(PID.TID 0000.0001) %MON forcing_fv_min               =  -2.5213441353393E-01
(PID.TID 0000.0001) %MON forcing_fv_mean              =  -1.4889756620675E-02
(PID.TID 0000.0001) %MON forcing_fv_sd                =   6.0403750523002E-02
(PID.TID 0000.0001) %MON forcing_fv_del2              =   5.1297753023830E-04
(PID.TID 0000.0001) %MON trAdv_CFL_u_max              =   2.0429538844576E-03
(PID.TID 0000.0001) %MON trAdv_CFL_v_max              =   1.4388306795133E-03
(PID.TID 0000.0001) %MON trAdv_CFL_w_max              =   1.1733193880551E-03
(PID.TID 0000.0001) %MON advcfl_uvel_max              =   2.0373545114288E-03
(PID.TID 0000.0001) %MON advcfl_vvel_max              =   1.4289034659567E-03
(PID.TID 0000.0001) %MON advcfl_wvel_max              =   2.3726447768833E-03
(PID.TID 0000.0001) %MON advcfl_W_hf_max              =   1.3129746716123E-03
(PID.TID 0000.0001) %MON pe_b_mean                    =   4.9922338046501E-04
(PID.TID 0000.0001) %MON ke_max                       =   1.7244883875271E-01
(PID.TID 0000.0001) %MON ke_mean                      =   1.6439644005563E-04
(PID.TID 0000.0001) %MON ke_vol                       =   1.3398146707221E+18
(PID.TID 0000.0001) %MON vort_r_min                   =  -2.2731525368978E-06
(PID.TID 0000.0001) %MON vort_r_max                   =   2.7620038967594E-06
(PID.TID 0000.0001) %MON vort_a_mean                  =  -2.0549865324846E-05
(PID.TID 0000.0001) %MON vort_a_sd                    =   7.5259673984882E-05
(PID.TID 0000.0001) %MON vort_p_mean                  =  -2.4783238351414E-05
(PID.TID 0000.0001) %MON vort_p_sd                    =   1.2811920206315E-04
(PID.TID 0000.0001) %MON surfExpan_theta_mean         =  -5.0359786378112E-06
(PID.TID 0000.0001) %MON surfExpan_salt_mean          =   1.0388603327355E-06
(PID.TID 0000.0001) // =======================================================
(PID.TID 0000.0001) // End MONITOR dynamic field statistics
(PID.TID 0000.0001) // =======================================================
 Computing Diagnostic #     81  oceTAUX      Counter:       1   Parms: UU      U1      
           Vector  Mate for  oceTAUX      Diagnostic #     82  oceTAUY  exists 
 Computing Diagnostic #     82  oceTAUY      Counter:       1   Parms: VV      U1      
           Vector  Mate for  oceTAUY      Diagnostic #     81  oceTAUX  exists 
 Computing Diagnostic #     85  oceFWflx     Counter:       1   Parms: SM      U1      
 Computing Diagnostic #     86  oceSflux     Counter:       1   Parms: SM      U1      
 Computing Diagnostic #     87  oceQnet      Counter:       1   Parms: SM      U1      
 Computing Diagnostic #     88  oceQsw       Counter:       1   Parms: SM      U1      
 Computing Diagnostic #     27  SALT         Counter:       1   Parms: SMR     MR      
 Computing Diagnostic #     26  THETA        Counter:       1   Parms: SMR     MR      
 Computing Diagnostic #     45  UVELMASS     Counter:       1   Parms: UUr     MR      
           Vector  Mate for  UVELMASS     Diagnostic #     46  VVELMASS exists 
 Computing Diagnostic #     46  VVELMASS     Counter:       1   Parms: VVr     MR      
           Vector  Mate for  VVELMASS     Diagnostic #     45  UVELMASS exists 
 cg2d: Sum(rhs),rhsMax =  -8.06412346791622E+01  3.62389155510411E+01
(PID.TID 0000.0001)      cg2d_init_res =   1.94077784869562E-01
(PID.TID 0000.0001)      cg2d_iters(min,last) =      -1      10
(PID.TID 0000.0001)      cg2d_last_res =   4.02727586291073E-08
(PID.TID 0000.0001) // =======================================================
(PID.TID 0000.0001) // Begin MONITOR dynamic field statistics
(PID.TID 0000.0001) // =======================================================
(PID.TID 0000.0001) %MON time_tsnumber                =                 72084
(PID.TID 0000.0001) %MON time_secondsf                =   6.4875600000000E+07
(PID.TID 0000.0001) %MON dynstat_eta_max              =   1.1427058205785E+00
(PID.TID 0000.0001) %MON dynstat_eta_min              =  -1.5576619089817E+00
(PID.TID 0000.0001) %MON dynstat_eta_mean             =   3.3957329964081E-02
(PID.TID 0000.0001) %MON dynstat_eta_sd               =   6.1114430435691E-01
(PID.TID 0000.0001) %MON dynstat_eta_del2             =   1.3707487833452E-03
(PID.TID 0000.0001) %MON dynstat_uvel_max             =   4.2414208605217E-01
(PID.TID 0000.0001) %MON dynstat_uvel_min             =  -7.1028452241491E-01
(PID.TID 0000.0001) %MON dynstat_uvel_mean            =  -4.3520699196495E-04
(PID.TID 0000.0001) %MON dynstat_uvel_sd              =   1.2939672524268E-02
(PID.TID 0000.0001) %MON dynstat_uvel_del2            =   8.4808679548479E-05
(PID.TID 0000.0001) %MON dynstat_vvel_max             =   3.2230920724498E-01
(PID.TID 0000.0001) %MON dynstat_vvel_min             =  -4.3992993636630E-01
(PID.TID 0000.0001) %MON dynstat_vvel_mean            =   1.9734094663946E-04
(PID.TID 0000.0001) %MON dynstat_vvel_sd              =   1.3716815130478E-02
(PID.TID 0000.0001) %MON dynstat_vvel_del2            =   8.8680264900682E-05
(PID.TID 0000.0001) %MON dynstat_wvel_max             =   1.0745117633247E-04
(PID.TID 0000.0001) %MON dynstat_wvel_min             =  -1.9180169147478E-04
(PID.TID 0000.0001) %MON dynstat_wvel_mean            =  -5.9825792254189E-08
(PID.TID 0000.0001) %MON dynstat_wvel_sd              =   7.6273587253211E-06
(PID.TID 0000.0001) %MON dynstat_wvel_del2            =   6.7083010391250E-08
(PID.TID 0000.0001) %MON dynstat_theta_max            =   3.0920818621915E+01
(PID.TID 0000.0001) %MON dynstat_theta_min            =  -3.0148368951205E+00
(PID.TID 0000.0001) %MON dynstat_theta_mean           =   3.9092042584725E+00
(PID.TID 0000.0001) %MON dynstat_theta_sd             =   4.5716468575783E+00
(PID.TID 0000.0001) %MON dynstat_theta_del2           =   2.6386827815596E-03
(PID.TID 0000.0001) %MON dynstat_salt_max             =   4.1346710063409E+01
(PID.TID 0000.0001) %MON dynstat_salt_min             =   1.8519223643428E+01
(PID.TID 0000.0001) %MON dynstat_salt_mean            =   3.4771897358413E+01
(PID.TID 0000.0001) %MON dynstat_salt_sd              =   5.3226244901144E-01
(PID.TID 0000.0001) %MON dynstat_salt_del2            =   1.1323392250168E-03
(PID.TID 0000.0001) %MON dynstat_sst_max              =   3.0920818621915E+01
(PID.TID 0000.0001) %MON dynstat_sst_min              =  -1.8985769972445E+00
(PID.TID 0000.0001) %MON dynstat_sst_mean             =   1.8109187597199E+01
(PID.TID 0000.0001) %MON dynstat_sst_sd               =   9.8138725604216E+00
(PID.TID 0000.0001) %MON dynstat_sst_del2             =   1.4975169889711E-02
(PID.TID 0000.0001) %MON dynstat_sss_max              =   4.1346710063409E+01
(PID.TID 0000.0001) %MON dynstat_sss_min              =   1.8752441189497E+01
(PID.TID 0000.0001) %MON dynstat_sss_mean             =   3.4620284389313E+01
(PID.TID 0000.0001) %MON dynstat_sss_sd               =   1.4903609781587E+00
(PID.TID 0000.0001) %MON dynstat_sss_del2             =   1.2840360637554E-02
(PID.TID 0000.0001) %MON forcing_qnet_max             =   1.4794074707031E+03
(PID.TID 0000.0001) %MON forcing_qnet_min             =  -9.0736907503880E+02
(PID.TID 0000.0001) %MON forcing_qnet_mean            =  -3.3355181669176E+01
(PID.TID 0000.0001) %MON forcing_qnet_sd              =   1.9259048243517E+02
(PID.TID 0000.0001) %MON forcing_qnet_del2            =   3.3254202134751E+00
(PID.TID 0000.0001) %MON forcing_qsw_max              =   0.0000000000000E+00
(PID.TID 0000.0001) %MON forcing_qsw_min              =  -1.0607495746650E+02
(PID.TID 0000.0001) %MON forcing_qsw_mean             =  -1.8914650263579E+01
(PID.TID 0000.0001) %MON forcing_qsw_sd               =   2.7793473941216E+01
(PID.TID 0000.0001) %MON forcing_qsw_del2             =   2.2697360946338E-01
(PID.TID 0000.0001) %MON forcing_empmr_max            =   4.6955309808254E-03
(PID.TID 0000.0001) %MON forcing_empmr_min            =  -6.7511223256588E-02
(PID.TID 0000.0001) %MON forcing_empmr_mean           =  -2.0620422888192E-04
(PID.TID 0000.0001) %MON forcing_empmr_sd             =   2.9767157062396E-03
(PID.TID 0000.0001) %MON forcing_empmr_del2           =   1.1720507089295E-04
(PID.TID 0000.0001) %MON forcing_fu_max               =   2.7251958497801E-01
(PID.TID 0000.0001) %MON forcing_fu_min               =  -3.4419188796508E-01
(PID.TID 0000.0001) %MON forcing_fu_mean              =  -4.2968835365835E-03
(PID.TID 0000.0001) %MON forcing_fu_sd                =   5.7806607538354E-02
(PID.TID 0000.0001) %MON forcing_fu_del2              =   5.7456695834305E-04
(PID.TID 0000.0001) %MON forcing_fv_max               =   2.6807581648660E-01
(PID.TID 0000.0001) %MON forcing_fv_min               =  -2.5295336650689E-01
(PID.TID 0000.0001) %MON forcing_fv_mean              =  -1.4879946289511E-02
(PID.TID 0000.0001) %MON forcing_fv_sd                =   6.0314025172901E-02
(PID.TID 0000.0001) %MON forcing_fv_del2              =   5.1102602045123E-04
(PID.TID 0000.0001) %MON trAdv_CFL_u_max              =   2.0560058608513E-03
(PID.TID 0000.0001) %MON trAdv_CFL_v_max              =   1.4463271039020E-03
(PID.TID 0000.0001) %MON trAdv_CFL_w_max              =   1.1807828974166E-03
(PID.TID 0000.0001) %MON advcfl_uvel_max              =   2.0490572299472E-03
(PID.TID 0000.0001) %MON advcfl_vvel_max              =   1.4356518557138E-03
(PID.TID 0000.0001) %MON advcfl_wvel_max              =   2.3482164610987E-03
(PID.TID 0000.0001) %MON advcfl_W_hf_max              =   1.3037273142331E-03
(PID.TID 0000.0001) %MON pe_b_mean                    =   4.9909906925608E-04
(PID.TID 0000.0001) %MON ke_max                       =   1.7340968306070E-01
(PID.TID 0000.0001) %MON ke_mean                      =   1.6431770384354E-04
(PID.TID 0000.0001) %MON ke_vol                       =   1.3398147367370E+18
(PID.TID 0000.0001) %MON vort_r_min                   =  -2.2862096971218E-06
(PID.TID 0000.0001) %MON vort_r_max                   =   2.7756635431646E-06
(PID.TID 0000.0001) %MON vort_a_mean                  =  -2.0549865324846E-05
(PID.TID 0000.0001) %MON vort_a_sd                    =   7.5259670220357E-05
(PID.TID 0000.0001) %MON vort_p_mean                  =  -2.4783237111873E-05
(PID.TID 0000.0001) %MON vort_p_sd                    =   1.2811920547213E-04
(PID.TID 0000.0001) %MON surfExpan_theta_mean         =  -4.9026911203355E-06
(PID.TID 0000.0001) %MON surfExpan_salt_mean          =   1.0178610845153E-06
(PID.TID 0000.0001) // =======================================================
(PID.TID 0000.0001) // End MONITOR dynamic field statistics
(PID.TID 0000.0001) // =======================================================
 cg2d: Sum(rhs),rhsMax =  -8.10670912096290E+01  3.62369458100731E+01
(PID.TID 0000.0001)      cg2d_init_res =   1.94202576622740E-01
(PID.TID 0000.0001)      cg2d_iters(min,last) =      -1      10
(PID.TID 0000.0001)      cg2d_last_res =   3.87754719819922E-08
(PID.TID 0000.0001) // =======================================================
(PID.TID 0000.0001) // Begin MONITOR dynamic field statistics
(PID.TID 0000.0001) // =======================================================
(PID.TID 0000.0001) %MON time_tsnumber                =                 72085
(PID.TID 0000.0001) %MON time_secondsf                =   6.4876500000000E+07
(PID.TID 0000.0001) %MON dynstat_eta_max              =   1.0898045166375E+00
(PID.TID 0000.0001) %MON dynstat_eta_min              =  -1.5566234387398E+00
(PID.TID 0000.0001) %MON dynstat_eta_mean             =   3.4134799010311E-02
(PID.TID 0000.0001) %MON dynstat_eta_sd               =   6.1105678847898E-01
(PID.TID 0000.0001) %MON dynstat_eta_del2             =   1.3339196607502E-03
(PID.TID 0000.0001) %MON dynstat_uvel_max             =   4.2290255445246E-01
(PID.TID 0000.0001) %MON dynstat_uvel_min             =  -7.1221349270498E-01
(PID.TID 0000.0001) %MON dynstat_uvel_mean            =  -4.4784879055263E-04
(PID.TID 0000.0001) %MON dynstat_uvel_sd              =   1.2927228073243E-02
(PID.TID 0000.0001) %MON dynstat_uvel_del2            =   8.4956929392335E-05
(PID.TID 0000.0001) %MON dynstat_vvel_max             =   3.3048116956500E-01
(PID.TID 0000.0001) %MON dynstat_vvel_min             =  -4.3538076903236E-01
(PID.TID 0000.0001) %MON dynstat_vvel_mean            =   1.8212496945861E-04
(PID.TID 0000.0001) %MON dynstat_vvel_sd              =   1.3720507487149E-02
(PID.TID 0000.0001) %MON dynstat_vvel_del2            =   8.8661351052908E-05
(PID.TID 0000.0001) %MON dynstat_wvel_max             =   1.0496225891791E-04
(PID.TID 0000.0001) %MON dynstat_wvel_min             =  -1.9188462314208E-04
(PID.TID 0000.0001) %MON dynstat_wvel_mean            =  -5.5675943769709E-08
(PID.TID 0000.0001) %MON dynstat_wvel_sd              =   7.6144756681121E-06
(PID.TID 0000.0001) %MON dynstat_wvel_del2            =   6.6769615924965E-08
(PID.TID 0000.0001) %MON dynstat_theta_max            =   3.0920567503334E+01
(PID.TID 0000.0001) %MON dynstat_theta_min            =  -3.0154085318974E+00
(PID.TID 0000.0001) %MON dynstat_theta_mean           =   3.9092074416565E+00
(PID.TID 0000.0001) %MON dynstat_theta_sd             =   4.5716593791733E+00
(PID.TID 0000.0001) %MON dynstat_theta_del2           =   2.6385725525247E-03
(PID.TID 0000.0001) %MON dynstat_salt_max             =   4.1346684158711E+01
(PID.TID 0000.0001) %MON dynstat_salt_min             =   1.8519233684021E+01
(PID.TID 0000.0001) %MON dynstat_salt_mean            =   3.4771895816009E+01
(PID.TID 0000.0001) %MON dynstat_salt_sd              =   5.3227273663202E-01
(PID.TID 0000.0001) %MON dynstat_salt_del2            =   1.1344978775740E-03
(PID.TID 0000.0001) %MON dynstat_sst_max              =   3.0920567503334E+01
(PID.TID 0000.0001) %MON dynstat_sst_min              =  -1.8984468812785E+00
(PID.TID 0000.0001) %MON dynstat_sst_mean             =   1.8109330082671E+01
(PID.TID 0000.0001) %MON dynstat_sst_sd               =   9.8140323120932E+00
(PID.TID 0000.0001) %MON dynstat_sst_del2             =   1.4973282251939E-02
(PID.TID 0000.0001) %MON dynstat_sss_max              =   4.1346684158711E+01
(PID.TID 0000.0001) %MON dynstat_sss_min              =   1.8752455693516E+01
(PID.TID 0000.0001) %MON dynstat_sss_mean             =   3.4620166414881E+01
(PID.TID 0000.0001) %MON dynstat_sss_sd               =   1.4906185887048E+00
(PID.TID 0000.0001) %MON dynstat_sss_del2             =   1.2870464674334E-02
(PID.TID 0000.0001) %MON forcing_qnet_max             =   1.4621733398438E+03
(PID.TID 0000.0001) %MON forcing_qnet_min             =  -8.6085109582706E+02
(PID.TID 0000.0001) %MON forcing_qnet_mean            =  -3.5907344574685E+01
(PID.TID 0000.0001) %MON forcing_qnet_sd              =   1.9037259797857E+02
(PID.TID 0000.0001) %MON forcing_qnet_del2            =   3.2473106621723E+00
(PID.TID 0000.0001) %MON forcing_qsw_max              =   0.0000000000000E+00
(PID.TID 0000.0001) %MON forcing_qsw_min              =  -1.0517978264793E+02
(PID.TID 0000.0001) %MON forcing_qsw_mean             =  -1.9258181821139E+01
(PID.TID 0000.0001) %MON forcing_qsw_sd               =   2.8225676722166E+01
(PID.TID 0000.0001) %MON forcing_qsw_del2             =   2.2751634807467E-01
(PID.TID 0000.0001) %MON forcing_empmr_max            =   4.6472148969769E-03
(PID.TID 0000.0001) %MON forcing_empmr_min            =  -6.6816456615925E-02
(PID.TID 0000.0001) %MON forcing_empmr_mean           =  -2.0408940316499E-04
(PID.TID 0000.0001) %MON forcing_empmr_sd             =   2.9461563158099E-03
(PID.TID 0000.0001) %MON forcing_empmr_del2           =   1.1597787140160E-04
(PID.TID 0000.0001) %MON forcing_fu_max               =   2.6914368257916E-01
(PID.TID 0000.0001) %MON forcing_fu_min               =  -3.3968846068669E-01
(PID.TID 0000.0001) %MON forcing_fu_mean              =  -4.4024154786366E-03
(PID.TID 0000.0001) %MON forcing_fu_sd                =   5.7444890444229E-02
(PID.TID 0000.0001) %MON forcing_fu_del2              =   5.7189570067287E-04
(PID.TID 0000.0001) %MON forcing_fv_max               =   2.6605970295737E-01
(PID.TID 0000.0001) %MON forcing_fv_min               =  -2.5455569975233E-01
(PID.TID 0000.0001) %MON forcing_fv_mean              =  -1.4912568451797E-02
(PID.TID 0000.0001) %MON forcing_fv_sd                =   6.0191451517486E-02
(PID.TID 0000.0001) %MON forcing_fv_del2              =   5.0906209011119E-04
(PID.TID 0000.0001) %MON trAdv_CFL_u_max              =   2.0629776931197E-03
(PID.TID 0000.0001) %MON trAdv_CFL_v_max              =   1.4310647908775E-03
(PID.TID 0000.0001) %MON trAdv_CFL_w_max              =   1.2016582431160E-03
(PID.TID 0000.0001) %MON advcfl_uvel_max              =   2.0546220006757E-03
(PID.TID 0000.0001) %MON advcfl_vvel_max              =   1.4208062633022E-03
(PID.TID 0000.0001) %MON advcfl_wvel_max              =   2.3240506649017E-03
(PID.TID 0000.0001) %MON advcfl_W_hf_max              =   1.2919028838907E-03
(PID.TID 0000.0001) %MON pe_b_mean                    =   4.9897265141144E-04
(PID.TID 0000.0001) %MON ke_max                       =   1.7912049743578E-01
(PID.TID 0000.0001) %MON ke_mean                      =   1.6421929587944E-04
(PID.TID 0000.0001) %MON ke_vol                       =   1.3398148019848E+18
(PID.TID 0000.0001) %MON vort_r_min                   =  -2.2924185197041E-06
(PID.TID 0000.0001) %MON vort_r_max                   =   2.7794284260698E-06
(PID.TID 0000.0001) %MON vort_a_mean                  =  -2.0549865324846E-05
(PID.TID 0000.0001) %MON vort_a_sd                    =   7.5259666817381E-05
(PID.TID 0000.0001) %MON vort_p_mean                  =  -2.4783235898038E-05
(PID.TID 0000.0001) %MON vort_p_sd                    =   1.2811920970788E-04
(PID.TID 0000.0001) %MON surfExpan_theta_mean         =  -4.7794728243011E-06
(PID.TID 0000.0001) %MON surfExpan_salt_mean          =   9.9575811909393E-07
(PID.TID 0000.0001) // =======================================================
(PID.TID 0000.0001) // End MONITOR dynamic field statistics
(PID.TID 0000.0001) // =======================================================
 cg2d: Sum(rhs),rhsMax =  -8.14889848346302E+01  3.62344764399158E+01
(PID.TID 0000.0001)      cg2d_init_res =   1.93559988662922E-01
(PID.TID 0000.0001)      cg2d_iters(min,last) =      -1      10
(PID.TID 0000.0001)      cg2d_last_res =   3.96916312529948E-08
(PID.TID 0000.0001) // =======================================================
(PID.TID 0000.0001) // Begin MONITOR dynamic field statistics
(PID.TID 0000.0001) // =======================================================
(PID.TID 0000.0001) %MON time_tsnumber                =                 72086
(PID.TID 0000.0001) %MON time_secondsf                =   6.4877400000000E+07
(PID.TID 0000.0001) %MON dynstat_eta_max              =   1.0311275556266E+00
(PID.TID 0000.0001) %MON dynstat_eta_min              =  -1.5567133318939E+00
(PID.TID 0000.0001) %MON dynstat_eta_mean             =   3.4310106903958E-02
(PID.TID 0000.0001) %MON dynstat_eta_sd               =   6.1096678985275E-01
(PID.TID 0000.0001) %MON dynstat_eta_del2             =   1.3046450161313E-03
(PID.TID 0000.0001) %MON dynstat_uvel_max             =   4.1845940187446E-01
(PID.TID 0000.0001) %MON dynstat_uvel_min             =  -7.1195341334800E-01
(PID.TID 0000.0001) %MON dynstat_uvel_mean            =  -4.5973192887122E-04
(PID.TID 0000.0001) %MON dynstat_uvel_sd              =   1.2915696745040E-02
(PID.TID 0000.0001) %MON dynstat_uvel_del2            =   8.5111939813715E-05
(PID.TID 0000.0001) %MON dynstat_vvel_max             =   3.3439062101030E-01
(PID.TID 0000.0001) %MON dynstat_vvel_min             =  -4.2450632960152E-01
(PID.TID 0000.0001) %MON dynstat_vvel_mean            =   1.6873940684071E-04
(PID.TID 0000.0001) %MON dynstat_vvel_sd              =   1.3721779384532E-02
(PID.TID 0000.0001) %MON dynstat_vvel_del2            =   8.8452477116402E-05
(PID.TID 0000.0001) %MON dynstat_wvel_max             =   1.0518982731703E-04
(PID.TID 0000.0001) %MON dynstat_wvel_min             =  -1.9198103786402E-04
(PID.TID 0000.0001) %MON dynstat_wvel_mean            =  -5.1963119132075E-08
(PID.TID 0000.0001) %MON dynstat_wvel_sd              =   7.6035617483138E-06
(PID.TID 0000.0001) %MON dynstat_wvel_del2            =   6.6449029985495E-08
(PID.TID 0000.0001) %MON dynstat_theta_max            =   3.0920308969697E+01
(PID.TID 0000.0001) %MON dynstat_theta_min            =  -3.0159915096797E+00
(PID.TID 0000.0001) %MON dynstat_theta_mean           =   3.9092106490599E+00
(PID.TID 0000.0001) %MON dynstat_theta_sd             =   4.5716720513576E+00
(PID.TID 0000.0001) %MON dynstat_theta_del2           =   2.6384592378848E-03
(PID.TID 0000.0001) %MON dynstat_salt_max             =   4.1346663518818E+01
(PID.TID 0000.0001) %MON dynstat_salt_min             =   1.8519243734160E+01
(PID.TID 0000.0001) %MON dynstat_salt_mean            =   3.4771894302152E+01
(PID.TID 0000.0001) %MON dynstat_salt_sd              =   5.3228287428667E-01
(PID.TID 0000.0001) %MON dynstat_salt_del2            =   1.1366078912335E-03
(PID.TID 0000.0001) %MON dynstat_sst_max              =   3.0920308969697E+01
(PID.TID 0000.0001) %MON dynstat_sst_min              =  -1.8983132228542E+00
(PID.TID 0000.0001) %MON dynstat_sst_mean             =   1.8109475878720E+01
(PID.TID 0000.0001) %MON dynstat_sst_sd               =   9.8141938349726E+00
(PID.TID 0000.0001) %MON dynstat_sst_del2             =   1.4971321011281E-02
(PID.TID 0000.0001) %MON dynstat_sss_max              =   4.1346663518818E+01
(PID.TID 0000.0001) %MON dynstat_sss_min              =   1.8752470011533E+01
(PID.TID 0000.0001) %MON dynstat_sss_mean             =   3.4620050740533E+01
(PID.TID 0000.0001) %MON dynstat_sss_sd               =   1.4908717842314E+00
(PID.TID 0000.0001) %MON dynstat_sss_del2             =   1.2899880790796E-02
(PID.TID 0000.0001) %MON forcing_qnet_max             =   1.4460039062500E+03
(PID.TID 0000.0001) %MON forcing_qnet_min             =  -8.5122255658762E+02
(PID.TID 0000.0001) %MON forcing_qnet_mean            =  -3.6538910841238E+01
(PID.TID 0000.0001) %MON forcing_qnet_sd              =   1.8962126307054E+02
(PID.TID 0000.0001) %MON forcing_qnet_del2            =   3.1984611274930E+00
(PID.TID 0000.0001) %MON forcing_qsw_max              =   0.0000000000000E+00
(PID.TID 0000.0001) %MON forcing_qsw_min              =  -1.0542082438744E+02
(PID.TID 0000.0001) %MON forcing_qsw_mean             =  -1.9465682630424E+01
(PID.TID 0000.0001) %MON forcing_qsw_sd               =   2.8431670868198E+01
(PID.TID 0000.0001) %MON forcing_qsw_del2             =   2.2786904704431E-01
(PID.TID 0000.0001) %MON forcing_empmr_max            =   4.5992922969162E-03
(PID.TID 0000.0001) %MON forcing_empmr_min            =  -6.6128402948380E-02
(PID.TID 0000.0001) %MON forcing_empmr_mean           =  -2.0160407769452E-04
(PID.TID 0000.0001) %MON forcing_empmr_sd             =   2.9159065638245E-03
(PID.TID 0000.0001) %MON forcing_empmr_del2           =   1.1475449276510E-04
(PID.TID 0000.0001) %MON forcing_fu_max               =   2.6544785724310E-01
(PID.TID 0000.0001) %MON forcing_fu_min               =  -3.3554941160857E-01
(PID.TID 0000.0001) %MON forcing_fu_mean              =  -4.5159953160823E-03
(PID.TID 0000.0001) %MON forcing_fu_sd                =   5.7077299563896E-02
(PID.TID 0000.0001) %MON forcing_fu_del2              =   5.6880594831760E-04
(PID.TID 0000.0001) %MON forcing_fv_max               =   2.6001193751052E-01
(PID.TID 0000.0001) %MON forcing_fv_min               =  -2.5512089264434E-01
(PID.TID 0000.0001) %MON forcing_fv_mean              =  -1.4936481438094E-02
(PID.TID 0000.0001) %MON forcing_fv_sd                =   6.0058810735411E-02
(PID.TID 0000.0001) %MON forcing_fv_del2              =   5.0767920219125E-04
(PID.TID 0000.0001) %MON trAdv_CFL_u_max              =   2.0636732938722E-03
(PID.TID 0000.0001) %MON trAdv_CFL_v_max              =   1.3942051632051E-03
(PID.TID 0000.0001) %MON trAdv_CFL_w_max              =   1.2339395233089E-03
(PID.TID 0000.0001) %MON advcfl_uvel_max              =   2.0538717133331E-03
(PID.TID 0000.0001) %MON advcfl_vvel_max              =   1.3853190007675E-03
(PID.TID 0000.0001) %MON advcfl_wvel_max              =   2.3001183634219E-03
(PID.TID 0000.0001) %MON advcfl_W_hf_max              =   1.2777853254625E-03
(PID.TID 0000.0001) %MON pe_b_mean                    =   4.9884209909200E-04
(PID.TID 0000.0001) %MON ke_max                       =   1.8399588009661E-01
(PID.TID 0000.0001) %MON ke_mean                      =   1.6410138245346E-04
(PID.TID 0000.0001) %MON ke_vol                       =   1.3398148665634E+18
(PID.TID 0000.0001) %MON vort_r_min                   =  -2.2915813960878E-06
(PID.TID 0000.0001) %MON vort_r_max                   =   2.7733055601777E-06
(PID.TID 0000.0001) %MON vort_a_mean                  =  -2.0549865324846E-05
(PID.TID 0000.0001) %MON vort_a_sd                    =   7.5259663811123E-05
(PID.TID 0000.0001) %MON vort_p_mean                  =  -2.4783234707479E-05
(PID.TID 0000.0001) %MON vort_p_sd                    =   1.2811921452848E-04
(PID.TID 0000.0001) %MON surfExpan_theta_mean         =  -4.6508430086886E-06
(PID.TID 0000.0001) %MON surfExpan_salt_mean          =   9.7416719229244E-07
(PID.TID 0000.0001) // =======================================================
(PID.TID 0000.0001) // End MONITOR dynamic field statistics
(PID.TID 0000.0001) // =======================================================
 cg2d: Sum(rhs),rhsMax =  -8.19053272004033E+01  3.62328072269460E+01
(PID.TID 0000.0001)      cg2d_init_res =   1.92163717319303E-01
(PID.TID 0000.0001)      cg2d_iters(min,last) =      -1      10
(PID.TID 0000.0001)      cg2d_last_res =   4.06412669485587E-08
(PID.TID 0000.0001) // =======================================================
(PID.TID 0000.0001) // Begin MONITOR dynamic field statistics
(PID.TID 0000.0001) // =======================================================
(PID.TID 0000.0001) %MON time_tsnumber                =                 72087
(PID.TID 0000.0001) %MON time_secondsf                =   6.4878300000000E+07
(PID.TID 0000.0001) %MON dynstat_eta_max              =   9.8336565372369E-01
(PID.TID 0000.0001) %MON dynstat_eta_min              =  -1.5570613534464E+00
(PID.TID 0000.0001) %MON dynstat_eta_mean             =   3.4483814977158E-02
(PID.TID 0000.0001) %MON dynstat_eta_sd               =   6.1087313897862E-01
(PID.TID 0000.0001) %MON dynstat_eta_del2             =   1.2836126975610E-03
(PID.TID 0000.0001) %MON dynstat_uvel_max             =   4.1110396156727E-01
(PID.TID 0000.0001) %MON dynstat_uvel_min             =  -7.0945007441918E-01
(PID.TID 0000.0001) %MON dynstat_uvel_mean            =  -4.7080596708133E-04
(PID.TID 0000.0001) %MON dynstat_uvel_sd              =   1.2905050298205E-02
(PID.TID 0000.0001) %MON dynstat_uvel_del2            =   8.5260172939228E-05
(PID.TID 0000.0001) %MON dynstat_vvel_max             =   3.3412766040171E-01
(PID.TID 0000.0001) %MON dynstat_vvel_min             =  -4.0768233793150E-01
(PID.TID 0000.0001) %MON dynstat_vvel_mean            =   1.5733369070735E-04
(PID.TID 0000.0001) %MON dynstat_vvel_sd              =   1.3720779412460E-02
(PID.TID 0000.0001) %MON dynstat_vvel_del2            =   8.8082735154854E-05
(PID.TID 0000.0001) %MON dynstat_wvel_max             =   1.0542352389304E-04
(PID.TID 0000.0001) %MON dynstat_wvel_min             =  -1.9208942772794E-04
(PID.TID 0000.0001) %MON dynstat_wvel_mean            =  -4.9421053638759E-08
(PID.TID 0000.0001) %MON dynstat_wvel_sd              =   7.5947795769610E-06
(PID.TID 0000.0001) %MON dynstat_wvel_del2            =   6.6127267320298E-08
(PID.TID 0000.0001) %MON dynstat_theta_max            =   3.0920042920652E+01
(PID.TID 0000.0001) %MON dynstat_theta_min            =  -3.0165859610809E+00
(PID.TID 0000.0001) %MON dynstat_theta_mean           =   3.9092138831322E+00
(PID.TID 0000.0001) %MON dynstat_theta_sd             =   4.5716848398863E+00
(PID.TID 0000.0001) %MON dynstat_theta_del2           =   2.6383425162893E-03
(PID.TID 0000.0001) %MON dynstat_salt_max             =   4.1346649436567E+01
(PID.TID 0000.0001) %MON dynstat_salt_min             =   1.8519253794170E+01
(PID.TID 0000.0001) %MON dynstat_salt_mean            =   3.4771892807826E+01
(PID.TID 0000.0001) %MON dynstat_salt_sd              =   5.3229284413992E-01
(PID.TID 0000.0001) %MON dynstat_salt_del2            =   1.1386686793644E-03
(PID.TID 0000.0001) %MON dynstat_sst_max              =   3.0920042920652E+01
(PID.TID 0000.0001) %MON dynstat_sst_min              =  -1.8981779109988E+00
(PID.TID 0000.0001) %MON dynstat_sst_mean             =   1.8109624933303E+01
(PID.TID 0000.0001) %MON dynstat_sst_sd               =   9.8143557304193E+00
(PID.TID 0000.0001) %MON dynstat_sst_del2             =   1.4969281541451E-02
(PID.TID 0000.0001) %MON dynstat_sss_max              =   4.1346649436567E+01
(PID.TID 0000.0001) %MON dynstat_sss_min              =   1.8752484222514E+01
(PID.TID 0000.0001) %MON dynstat_sss_mean             =   3.4619936665812E+01
(PID.TID 0000.0001) %MON dynstat_sss_sd               =   1.4911200405277E+00
(PID.TID 0000.0001) %MON dynstat_sss_del2             =   1.2928601520867E-02
(PID.TID 0000.0001) %MON forcing_qnet_max             =   1.4300263671875E+03
(PID.TID 0000.0001) %MON forcing_qnet_min             =  -8.4045657082573E+02
(PID.TID 0000.0001) %MON forcing_qnet_mean            =  -3.7065771978085E+01
(PID.TID 0000.0001) %MON forcing_qnet_sd              =   1.8993143502029E+02
(PID.TID 0000.0001) %MON forcing_qnet_del2            =   3.2329702453770E+00
(PID.TID 0000.0001) %MON forcing_qsw_max              =   0.0000000000000E+00
(PID.TID 0000.0001) %MON forcing_qsw_min              =  -1.0546443107780E+02
(PID.TID 0000.0001) %MON forcing_qsw_mean             =  -1.9626398673242E+01
(PID.TID 0000.0001) %MON forcing_qsw_sd               =   2.8608113227830E+01
(PID.TID 0000.0001) %MON forcing_qsw_del2             =   2.2800502058050E-01
(PID.TID 0000.0001) %MON forcing_empmr_max            =   4.5519596897066E-03
(PID.TID 0000.0001) %MON forcing_empmr_min            =  -6.5447904169559E-02
(PID.TID 0000.0001) %MON forcing_empmr_mean           =  -1.9976428417974E-04
(PID.TID 0000.0001) %MON forcing_empmr_sd             =   2.8859653176098E-03
(PID.TID 0000.0001) %MON forcing_empmr_del2           =   1.1355202880951E-04
(PID.TID 0000.0001) %MON forcing_fu_max               =   2.6173849333918E-01
(PID.TID 0000.0001) %MON forcing_fu_min               =  -3.3310209477513E-01
(PID.TID 0000.0001) %MON forcing_fu_mean              =  -4.6476496830865E-03
(PID.TID 0000.0001) %MON forcing_fu_sd                =   5.6659818480590E-02
(PID.TID 0000.0001) %MON forcing_fu_del2              =   5.6596549956718E-04
(PID.TID 0000.0001) %MON forcing_fv_max               =   2.6028823649752E-01
(PID.TID 0000.0001) %MON forcing_fv_min               =  -2.5525084174797E-01
(PID.TID 0000.0001) %MON forcing_fv_mean              =  -1.4938407486049E-02
(PID.TID 0000.0001) %MON forcing_fv_sd                =   5.9923312585260E-02
(PID.TID 0000.0001) %MON forcing_fv_del2              =   5.0582676343811E-04
(PID.TID 0000.0001) %MON trAdv_CFL_u_max              =   2.0579144953359E-03
(PID.TID 0000.0001) %MON trAdv_CFL_v_max              =   1.3372303453451E-03
(PID.TID 0000.0001) %MON trAdv_CFL_w_max              =   1.2578197680762E-03
(PID.TID 0000.0001) %MON advcfl_uvel_max              =   2.0466499809580E-03
(PID.TID 0000.0001) %MON advcfl_vvel_max              =   1.3304161790566E-03
(PID.TID 0000.0001) %MON advcfl_wvel_max              =   2.2764488406803E-03
(PID.TID 0000.0001) %MON advcfl_W_hf_max              =   1.2616224044753E-03
(PID.TID 0000.0001) %MON pe_b_mean                    =   4.9870555922042E-04
(PID.TID 0000.0001) %MON ke_max                       =   1.8794596430738E-01
(PID.TID 0000.0001) %MON ke_mean                      =   1.6396538916737E-04
(PID.TID 0000.0001) %MON ke_vol                       =   1.3398149303556E+18
(PID.TID 0000.0001) %MON vort_r_min                   =  -2.3005076640416E-06
(PID.TID 0000.0001) %MON vort_r_max                   =   2.7573599280713E-06
(PID.TID 0000.0001) %MON vort_a_mean                  =  -2.0549865324846E-05
(PID.TID 0000.0001) %MON vort_a_sd                    =   7.5259661226286E-05
(PID.TID 0000.0001) %MON vort_p_mean                  =  -2.4783233542171E-05
(PID.TID 0000.0001) %MON vort_p_sd                    =   1.2811921965123E-04
(PID.TID 0000.0001) %MON surfExpan_theta_mean         =  -4.5413178728941E-06
(PID.TID 0000.0001) %MON surfExpan_salt_mean          =   9.5131414943651E-07
(PID.TID 0000.0001) // =======================================================
(PID.TID 0000.0001) // End MONITOR dynamic field statistics
(PID.TID 0000.0001) // =======================================================
 Computing Diagnostic #     81  oceTAUX      Counter:       1   Parms: UU      U1      
           Vector  Mate for  oceTAUX      Diagnostic #     82  oceTAUY  exists 
 Computing Diagnostic #     82  oceTAUY      Counter:       1   Parms: VV      U1      
           Vector  Mate for  oceTAUY      Diagnostic #     81  oceTAUX  exists 
 Computing Diagnostic #     85  oceFWflx     Counter:       1   Parms: SM      U1      
 Computing Diagnostic #     86  oceSflux     Counter:       1   Parms: SM      U1      
 Computing Diagnostic #     87  oceQnet      Counter:       1   Parms: SM      U1      
 Computing Diagnostic #     88  oceQsw       Counter:       1   Parms: SM      U1      
 Computing Diagnostic #     27  SALT         Counter:       1   Parms: SMR     MR      
 Computing Diagnostic #     26  THETA        Counter:       1   Parms: SMR     MR      
 Computing Diagnostic #     45  UVELMASS     Counter:       1   Parms: UUr     MR      
           Vector  Mate for  UVELMASS     Diagnostic #     46  VVELMASS exists 
 Computing Diagnostic #     46  VVELMASS     Counter:       1   Parms: VVr     MR      
           Vector  Mate for  VVELMASS     Diagnostic #     45  UVELMASS exists 
 cg2d: Sum(rhs),rhsMax =  -8.23140151255404E+01  3.62331673159590E+01
(PID.TID 0000.0001)      cg2d_init_res =   1.90016043287129E-01
(PID.TID 0000.0001)      cg2d_iters(min,last) =      -1      10
(PID.TID 0000.0001)      cg2d_last_res =   3.95256395915726E-08
(PID.TID 0000.0001) // =======================================================
(PID.TID 0000.0001) // Begin MONITOR dynamic field statistics
(PID.TID 0000.0001) // =======================================================
(PID.TID 0000.0001) %MON time_tsnumber                =                 72088
(PID.TID 0000.0001) %MON time_secondsf                =   6.4879200000000E+07
(PID.TID 0000.0001) %MON dynstat_eta_max              =   9.8144069356356E-01
(PID.TID 0000.0001) %MON dynstat_eta_min              =  -1.5575177956112E+00
(PID.TID 0000.0001) %MON dynstat_eta_mean             =   3.4656225354845E-02
(PID.TID 0000.0001) %MON dynstat_eta_sd               =   6.1077312661702E-01
(PID.TID 0000.0001) %MON dynstat_eta_del2             =   1.2707911893736E-03
(PID.TID 0000.0001) %MON dynstat_uvel_max             =   4.0119269442054E-01
(PID.TID 0000.0001) %MON dynstat_uvel_min             =  -7.0466384546206E-01
(PID.TID 0000.0001) %MON dynstat_uvel_mean            =  -4.8103472321703E-04
(PID.TID 0000.0001) %MON dynstat_uvel_sd              =   1.2895330400164E-02
(PID.TID 0000.0001) %MON dynstat_uvel_del2            =   8.5390277400481E-05
(PID.TID 0000.0001) %MON dynstat_vvel_max             =   3.2984102625809E-01
(PID.TID 0000.0001) %MON dynstat_vvel_min             =  -3.8536582308304E-01
(PID.TID 0000.0001) %MON dynstat_vvel_mean            =   1.4801264899195E-04
(PID.TID 0000.0001) %MON dynstat_vvel_sd              =   1.3717807393152E-02
(PID.TID 0000.0001) %MON dynstat_vvel_del2            =   8.7592821441895E-05
(PID.TID 0000.0001) %MON dynstat_wvel_max             =   1.0566815858359E-04
(PID.TID 0000.0001) %MON dynstat_wvel_min             =  -1.9220803695004E-04
(PID.TID 0000.0001) %MON dynstat_wvel_mean            =  -4.7738862252422E-08
(PID.TID 0000.0001) %MON dynstat_wvel_sd              =   7.5890271088573E-06
(PID.TID 0000.0001) %MON dynstat_wvel_del2            =   6.5811150564585E-08
(PID.TID 0000.0001) %MON dynstat_theta_max            =   3.0919768073843E+01
(PID.TID 0000.0001) %MON dynstat_theta_min            =  -3.0171923910925E+00
(PID.TID 0000.0001) %MON dynstat_theta_mean           =   3.9092171225074E+00
(PID.TID 0000.0001) %MON dynstat_theta_sd             =   4.5716977012417E+00
(PID.TID 0000.0001) %MON dynstat_theta_del2           =   2.6382233755108E-03
(PID.TID 0000.0001) %MON dynstat_salt_max             =   4.1346643227945E+01
(PID.TID 0000.0001) %MON dynstat_salt_min             =   1.8519263864064E+01
(PID.TID 0000.0001) %MON dynstat_salt_mean            =   3.4771891335764E+01
(PID.TID 0000.0001) %MON dynstat_salt_sd              =   5.3230264004747E-01
(PID.TID 0000.0001) %MON dynstat_salt_del2            =   1.1406811598652E-03
(PID.TID 0000.0001) %MON dynstat_sst_max              =   3.0919768073843E+01
(PID.TID 0000.0001) %MON dynstat_sst_min              =  -1.8980417040819E+00
(PID.TID 0000.0001) %MON dynstat_sst_mean             =   1.8109775468286E+01
(PID.TID 0000.0001) %MON dynstat_sst_sd               =   9.8145189943820E+00
(PID.TID 0000.0001) %MON dynstat_sst_del2             =   1.4967176831217E-02
(PID.TID 0000.0001) %MON dynstat_sss_max              =   4.1346643227945E+01
(PID.TID 0000.0001) %MON dynstat_sss_min              =   1.8752498180920E+01
(PID.TID 0000.0001) %MON dynstat_sss_mean             =   3.4619824377062E+01
(PID.TID 0000.0001) %MON dynstat_sss_sd               =   1.4913632415102E+00
(PID.TID 0000.0001) %MON dynstat_sss_del2             =   1.2956640397826E-02
(PID.TID 0000.0001) %MON forcing_qnet_max             =   1.4142385253906E+03
(PID.TID 0000.0001) %MON forcing_qnet_min             =  -8.3042515344788E+02
(PID.TID 0000.0001) %MON forcing_qnet_mean            =  -3.7211211319490E+01
(PID.TID 0000.0001) %MON forcing_qnet_sd              =   1.8979324474402E+02
(PID.TID 0000.0001) %MON forcing_qnet_del2            =   3.1829168237849E+00
(PID.TID 0000.0001) %MON forcing_qsw_max              =   0.0000000000000E+00
(PID.TID 0000.0001) %MON forcing_qsw_min              =  -1.0579677429377E+02
(PID.TID 0000.0001) %MON forcing_qsw_mean             =  -1.9733576915178E+01
(PID.TID 0000.0001) %MON forcing_qsw_sd               =   2.8756660099034E+01
(PID.TID 0000.0001) %MON forcing_qsw_del2             =   2.2791883744840E-01
(PID.TID 0000.0001) %MON forcing_empmr_max            =   4.5050214976072E-03
(PID.TID 0000.0001) %MON forcing_empmr_min            =  -6.4774118363857E-02
(PID.TID 0000.0001) %MON forcing_empmr_mean           =  -1.9827193433985E-04
(PID.TID 0000.0001) %MON forcing_empmr_sd             =   2.8560529763990E-03
(PID.TID 0000.0001) %MON forcing_empmr_del2           =   1.1233844649700E-04
(PID.TID 0000.0001) %MON forcing_fu_max               =   2.5747183928490E-01
(PID.TID 0000.0001) %MON forcing_fu_min               =  -3.3285784115627E-01
(PID.TID 0000.0001) %MON forcing_fu_mean              =  -4.7578078886317E-03
(PID.TID 0000.0001) %MON forcing_fu_sd                =   5.6341965239604E-02
(PID.TID 0000.0001) %MON forcing_fu_del2              =   5.6345620931780E-04
(PID.TID 0000.0001) %MON forcing_fv_max               =   2.5436490881525E-01
(PID.TID 0000.0001) %MON forcing_fv_min               =  -2.5611738176955E-01
(PID.TID 0000.0001) %MON forcing_fv_mean              =  -1.4942401517847E-02
(PID.TID 0000.0001) %MON forcing_fv_sd                =   5.9771689915914E-02
(PID.TID 0000.0001) %MON forcing_fv_del2              =   5.0398541925914E-04
(PID.TID 0000.0001) %MON trAdv_CFL_u_max              =   2.0455631571199E-03
(PID.TID 0000.0001) %MON trAdv_CFL_v_max              =   1.2619055177641E-03
(PID.TID 0000.0001) %MON trAdv_CFL_w_max              =   1.2738615790144E-03
(PID.TID 0000.0001) %MON advcfl_uvel_max              =   2.0328424760226E-03
(PID.TID 0000.0001) %MON advcfl_vvel_max              =   1.2575892507055E-03
(PID.TID 0000.0001) %MON advcfl_wvel_max              =   2.2530128126559E-03
(PID.TID 0000.0001) %MON advcfl_W_hf_max              =   1.2738615790144E-03
(PID.TID 0000.0001) %MON pe_b_mean                    =   4.9855865134816E-04
(PID.TID 0000.0001) %MON ke_max                       =   1.9089366206006E-01
(PID.TID 0000.0001) %MON ke_mean                      =   1.6381551682664E-04
(PID.TID 0000.0001) %MON ke_vol                       =   1.3398149935657E+18
(PID.TID 0000.0001) %MON vort_r_min                   =  -2.3381459501068E-06
(PID.TID 0000.0001) %MON vort_r_max                   =   2.7317332847433E-06
(PID.TID 0000.0001) %MON vort_a_mean                  =  -2.0549865324846E-05
(PID.TID 0000.0001) %MON vort_a_sd                    =   7.5259659077117E-05
(PID.TID 0000.0001) %MON vort_p_mean                  =  -2.4783232397250E-05
(PID.TID 0000.0001) %MON vort_p_sd                    =   1.2811922478155E-04
(PID.TID 0000.0001) %MON surfExpan_theta_mean         =  -4.4413219193316E-06
(PID.TID 0000.0001) %MON surfExpan_salt_mean          =   9.2884356283753E-07
(PID.TID 0000.0001) // =======================================================
(PID.TID 0000.0001) // End MONITOR dynamic field statistics
(PID.TID 0000.0001) // =======================================================
 cg2d: Sum(rhs),rhsMax =  -8.27109262744660E+01  3.62365094097062E+01
(PID.TID 0000.0001)      cg2d_init_res =   1.87235583235961E-01
(PID.TID 0000.0001)      cg2d_iters(min,last) =      -1      10
(PID.TID 0000.0001)      cg2d_last_res =   3.94657333907575E-08
(PID.TID 0000.0001) // =======================================================
(PID.TID 0000.0001) // Begin MONITOR dynamic field statistics
(PID.TID 0000.0001) // =======================================================
(PID.TID 0000.0001) %MON time_tsnumber                =                 72089
(PID.TID 0000.0001) %MON time_secondsf                =   6.4880100000000E+07
(PID.TID 0000.0001) %MON dynstat_eta_max              =   9.7900204551443E-01
(PID.TID 0000.0001) %MON dynstat_eta_min              =  -1.5580955939216E+00
(PID.TID 0000.0001) %MON dynstat_eta_mean             =   3.4826546765731E-02
(PID.TID 0000.0001) %MON dynstat_eta_sd               =   6.1066297164667E-01
(PID.TID 0000.0001) %MON dynstat_eta_del2             =   1.2654283954000E-03
(PID.TID 0000.0001) %MON dynstat_uvel_max             =   3.8913571469628E-01
(PID.TID 0000.0001) %MON dynstat_uvel_min             =  -6.9758616783799E-01
(PID.TID 0000.0001) %MON dynstat_uvel_mean            =  -4.9041669082223E-04
(PID.TID 0000.0001) %MON dynstat_uvel_sd              =   1.2886555104181E-02
(PID.TID 0000.0001) %MON dynstat_uvel_del2            =   8.5493660038922E-05
(PID.TID 0000.0001) %MON dynstat_vvel_max             =   3.2173665271438E-01
(PID.TID 0000.0001) %MON dynstat_vvel_min             =  -3.5808604884828E-01
(PID.TID 0000.0001) %MON dynstat_vvel_mean            =   1.4083795101088E-04
(PID.TID 0000.0001) %MON dynstat_vvel_sd              =   1.3713194464175E-02
(PID.TID 0000.0001) %MON dynstat_vvel_del2            =   8.7030828056956E-05
(PID.TID 0000.0001) %MON dynstat_wvel_max             =   1.0591370602016E-04
(PID.TID 0000.0001) %MON dynstat_wvel_min             =  -1.9234074738933E-04
(PID.TID 0000.0001) %MON dynstat_wvel_mean            =  -4.6042780331352E-08
(PID.TID 0000.0001) %MON dynstat_wvel_sd              =   7.5862510100060E-06
(PID.TID 0000.0001) %MON dynstat_wvel_del2            =   6.5508551032990E-08
(PID.TID 0000.0001) %MON dynstat_theta_max            =   3.0919485523233E+01
(PID.TID 0000.0001) %MON dynstat_theta_min            =  -3.0178113247672E+00
(PID.TID 0000.0001) %MON dynstat_theta_mean           =   3.9092204369601E+00
(PID.TID 0000.0001) %MON dynstat_theta_sd             =   4.5717110112999E+00
(PID.TID 0000.0001) %MON dynstat_theta_del2           =   2.6381012770928E-03
(PID.TID 0000.0001) %MON dynstat_salt_max             =   4.1346646302065E+01
(PID.TID 0000.0001) %MON dynstat_salt_min             =   1.8519273943582E+01
(PID.TID 0000.0001) %MON dynstat_salt_mean            =   3.4771889888089E+01
(PID.TID 0000.0001) %MON dynstat_salt_sd              =   5.3231229398053E-01
(PID.TID 0000.0001) %MON dynstat_salt_del2            =   1.1426470202550E-03
(PID.TID 0000.0001) %MON dynstat_sst_max              =   3.0919485523233E+01
(PID.TID 0000.0001) %MON dynstat_sst_min              =  -1.8979064303716E+00
(PID.TID 0000.0001) %MON dynstat_sst_mean             =   1.8109933852465E+01
(PID.TID 0000.0001) %MON dynstat_sst_sd               =   9.8146882858738E+00
(PID.TID 0000.0001) %MON dynstat_sst_del2             =   1.4965009123194E-02
(PID.TID 0000.0001) %MON dynstat_sss_max              =   4.1346646302065E+01
(PID.TID 0000.0001) %MON dynstat_sss_min              =   1.8752511889805E+01
(PID.TID 0000.0001) %MON dynstat_sss_mean             =   3.4619714177656E+01
(PID.TID 0000.0001) %MON dynstat_sss_sd               =   1.4916023975665E+00
(PID.TID 0000.0001) %MON dynstat_sss_del2             =   1.2984022761455E-02
(PID.TID 0000.0001) %MON forcing_qnet_max             =   1.3986379394531E+03
(PID.TID 0000.0001) %MON forcing_qnet_min             =  -8.2027242795330E+02
(PID.TID 0000.0001) %MON forcing_qnet_mean            =  -3.8711562193236E+01
(PID.TID 0000.0001) %MON forcing_qnet_sd              =   1.9202944930139E+02
(PID.TID 0000.0001) %MON forcing_qnet_del2            =   3.2217558760978E+00
(PID.TID 0000.0001) %MON forcing_qsw_max              =   0.0000000000000E+00
(PID.TID 0000.0001) %MON forcing_qsw_min              =  -1.0635386444686E+02
(PID.TID 0000.0001) %MON forcing_qsw_mean             =  -2.0056860779194E+01
(PID.TID 0000.0001) %MON forcing_qsw_sd               =   2.9072178211283E+01
(PID.TID 0000.0001) %MON forcing_qsw_del2             =   2.2504089280277E-01
(PID.TID 0000.0001) %MON forcing_empmr_max            =   4.4585750438273E-03
(PID.TID 0000.0001) %MON forcing_empmr_min            =  -6.4107887446880E-02
(PID.TID 0000.0001) %MON forcing_empmr_mean           =  -1.9586962251824E-04
(PID.TID 0000.0001) %MON forcing_empmr_sd             =   2.8268318051653E-03
(PID.TID 0000.0001) %MON forcing_empmr_del2           =   1.1115686351807E-04
(PID.TID 0000.0001) %MON forcing_fu_max               =   2.5582689362811E-01
(PID.TID 0000.0001) %MON forcing_fu_min               =  -3.3198802398367E-01
(PID.TID 0000.0001) %MON forcing_fu_mean              =  -4.8510380735799E-03
(PID.TID 0000.0001) %MON forcing_fu_sd                =   5.6091004914753E-02
(PID.TID 0000.0001) %MON forcing_fu_del2              =   5.6155998134686E-04
(PID.TID 0000.0001) %MON forcing_fv_max               =   2.4988672420351E-01
(PID.TID 0000.0001) %MON forcing_fv_min               =  -2.5575153935448E-01
(PID.TID 0000.0001) %MON forcing_fv_mean              =  -1.4977585306798E-02
(PID.TID 0000.0001) %MON forcing_fv_sd                =   5.9586231736745E-02
(PID.TID 0000.0001) %MON forcing_fv_del2              =   5.0184242179769E-04
(PID.TID 0000.0001) %MON trAdv_CFL_u_max              =   2.0265690690176E-03
(PID.TID 0000.0001) %MON trAdv_CFL_v_max              =   1.1702294131503E-03
(PID.TID 0000.0001) %MON trAdv_CFL_w_max              =   1.2827624552534E-03
(PID.TID 0000.0001) %MON advcfl_uvel_max              =   2.0124245082235E-03
(PID.TID 0000.0001) %MON advcfl_vvel_max              =   1.1744547612703E-03
(PID.TID 0000.0001) %MON advcfl_wvel_max              =   2.2298395633698E-03
(PID.TID 0000.0001) %MON advcfl_W_hf_max              =   1.2827624552534E-03
(PID.TID 0000.0001) %MON pe_b_mean                    =   4.9839515334389E-04
(PID.TID 0000.0001) %MON ke_max                       =   1.9278521189149E-01
(PID.TID 0000.0001) %MON ke_mean                      =   1.6365611307740E-04
(PID.TID 0000.0001) %MON ke_vol                       =   1.3398150563035E+18
(PID.TID 0000.0001) %MON vort_r_min                   =  -2.3793581886911E-06
(PID.TID 0000.0001) %MON vort_r_max                   =   2.6966846889543E-06
(PID.TID 0000.0001) %MON vort_a_mean                  =  -2.0549865324846E-05
(PID.TID 0000.0001) %MON vort_a_sd                    =   7.5259657371975E-05
(PID.TID 0000.0001) %MON vort_p_mean                  =  -2.4783231268619E-05
(PID.TID 0000.0001) %MON vort_p_sd                    =   1.2811922963395E-04
(PID.TID 0000.0001) %MON surfExpan_theta_mean         =  -4.3214252513716E-06
(PID.TID 0000.0001) %MON surfExpan_salt_mean          =   9.0753421765918E-07
(PID.TID 0000.0001) // =======================================================
(PID.TID 0000.0001) // End MONITOR dynamic field statistics
(PID.TID 0000.0001) // =======================================================
 cg2d: Sum(rhs),rhsMax =  -8.30932649496398E+01  3.62435104994669E+01
(PID.TID 0000.0001)      cg2d_init_res =   1.83849567512785E-01
(PID.TID 0000.0001)      cg2d_iters(min,last) =      -1      10
(PID.TID 0000.0001)      cg2d_last_res =   3.80977489098209E-08
(PID.TID 0000.0001) // =======================================================
(PID.TID 0000.0001) // Begin MONITOR dynamic field statistics
(PID.TID 0000.0001) // =======================================================
(PID.TID 0000.0001) %MON time_tsnumber                =                 72090
(PID.TID 0000.0001) %MON time_secondsf                =   6.4881000000000E+07
(PID.TID 0000.0001) %MON dynstat_eta_max              =   9.7610619630979E-01
(PID.TID 0000.0001) %MON dynstat_eta_min              =  -1.5588047295862E+00
(PID.TID 0000.0001) %MON dynstat_eta_mean             =   3.4994295383062E-02
(PID.TID 0000.0001) %MON dynstat_eta_sd               =   6.1053850270803E-01
(PID.TID 0000.0001) %MON dynstat_eta_del2             =   1.2662455007686E-03
(PID.TID 0000.0001) %MON dynstat_uvel_max             =   3.7538417901807E-01
(PID.TID 0000.0001) %MON dynstat_uvel_min             =  -6.8822619170942E-01
(PID.TID 0000.0001) %MON dynstat_uvel_mean            =  -4.9899299074472E-04
(PID.TID 0000.0001) %MON dynstat_uvel_sd              =   1.2878646752776E-02
(PID.TID 0000.0001) %MON dynstat_uvel_del2            =   8.5563747786872E-05
(PID.TID 0000.0001) %MON dynstat_vvel_max             =   3.1007059657165E-01
(PID.TID 0000.0001) %MON dynstat_vvel_min             =  -3.4136835817752E-01
(PID.TID 0000.0001) %MON dynstat_vvel_mean            =   1.3588142393105E-04
(PID.TID 0000.0001) %MON dynstat_vvel_sd              =   1.3707458596248E-02
(PID.TID 0000.0001) %MON dynstat_vvel_del2            =   8.6448931053630E-05
(PID.TID 0000.0001) %MON dynstat_wvel_max             =   1.0616075590210E-04
(PID.TID 0000.0001) %MON dynstat_wvel_min             =  -1.9247638615793E-04
(PID.TID 0000.0001) %MON dynstat_wvel_mean            =  -4.4350734722531E-08
(PID.TID 0000.0001) %MON dynstat_wvel_sd              =   7.5855010707697E-06
(PID.TID 0000.0001) %MON dynstat_wvel_del2            =   6.5218178086493E-08
(PID.TID 0000.0001) %MON dynstat_theta_max            =   3.0919195178440E+01
(PID.TID 0000.0001) %MON dynstat_theta_min            =  -3.0184434527620E+00
(PID.TID 0000.0001) %MON dynstat_theta_mean           =   3.9092237777025E+00
(PID.TID 0000.0001) %MON dynstat_theta_sd             =   4.5717245275297E+00
(PID.TID 0000.0001) %MON dynstat_theta_del2           =   2.6379723522195E-03
(PID.TID 0000.0001) %MON dynstat_salt_max             =   4.1346659998281E+01
(PID.TID 0000.0001) %MON dynstat_salt_min             =   1.8519284032275E+01
(PID.TID 0000.0001) %MON dynstat_salt_mean            =   3.4771888467348E+01
(PID.TID 0000.0001) %MON dynstat_salt_sd              =   5.3232178221446E-01
(PID.TID 0000.0001) %MON dynstat_salt_del2            =   1.1445652970717E-03
(PID.TID 0000.0001) %MON dynstat_sst_max              =   3.0919195178440E+01
(PID.TID 0000.0001) %MON dynstat_sst_min              =  -1.8977738976776E+00
(PID.TID 0000.0001) %MON dynstat_sst_mean             =   1.8110095022440E+01
(PID.TID 0000.0001) %MON dynstat_sst_sd               =   9.8148597421000E+00
(PID.TID 0000.0001) %MON dynstat_sst_del2             =   1.4962759033689E-02
(PID.TID 0000.0001) %MON dynstat_sss_max              =   4.1346659998281E+01
(PID.TID 0000.0001) %MON dynstat_sss_min              =   1.8752525502818E+01
(PID.TID 0000.0001) %MON dynstat_sss_mean             =   3.4619605538024E+01
(PID.TID 0000.0001) %MON dynstat_sss_sd               =   1.4918369700733E+00
(PID.TID 0000.0001) %MON dynstat_sss_del2             =   1.3010754053807E-02
(PID.TID 0000.0001) %MON forcing_qnet_max             =   1.3823934326172E+03
(PID.TID 0000.0001) %MON forcing_qnet_min             =  -8.0928411027633E+02
(PID.TID 0000.0001) %MON forcing_qnet_mean            =  -3.9419488184153E+01
(PID.TID 0000.0001) %MON forcing_qnet_sd              =   1.9414206973086E+02
(PID.TID 0000.0001) %MON forcing_qnet_del2            =   3.2613303508082E+00
(PID.TID 0000.0001) %MON forcing_qsw_max              =   0.0000000000000E+00
(PID.TID 0000.0001) %MON forcing_qsw_min              =  -1.0660084382251E+02
(PID.TID 0000.0001) %MON forcing_qsw_mean             =  -2.0279491227630E+01
(PID.TID 0000.0001) %MON forcing_qsw_sd               =   2.9300253813746E+01
(PID.TID 0000.0001) %MON forcing_qsw_del2             =   2.2601515607803E-01
(PID.TID 0000.0001) %MON forcing_empmr_max            =   4.4127185828984E-03
(PID.TID 0000.0001) %MON forcing_empmr_min            =  -6.3448362052441E-02
(PID.TID 0000.0001) %MON forcing_empmr_mean           =  -1.9291090993147E-04
(PID.TID 0000.0001) %MON forcing_empmr_sd             =   2.7976880401516E-03
(PID.TID 0000.0001) %MON forcing_empmr_del2           =   1.0998853932356E-04
(PID.TID 0000.0001) %MON forcing_fu_max               =   2.5085908638720E-01
(PID.TID 0000.0001) %MON forcing_fu_min               =  -3.3352485406172E-01
(PID.TID 0000.0001) %MON forcing_fu_mean              =  -4.9730235200389E-03
(PID.TID 0000.0001) %MON forcing_fu_sd                =   5.5862038725531E-02
(PID.TID 0000.0001) %MON forcing_fu_del2              =   5.6016851564716E-04
(PID.TID 0000.0001) %MON forcing_fv_max               =   2.5880909798361E-01
(PID.TID 0000.0001) %MON forcing_fv_min               =  -2.5492447592626E-01
(PID.TID 0000.0001) %MON forcing_fv_mean              =  -1.4939643411913E-02
(PID.TID 0000.0001) %MON forcing_fv_sd                =   5.9503265652183E-02
(PID.TID 0000.0001) %MON forcing_fv_del2              =   5.0106946203436E-04
(PID.TID 0000.0001) %MON trAdv_CFL_u_max              =   2.0009325193294E-03
(PID.TID 0000.0001) %MON trAdv_CFL_v_max              =   1.1616932590508E-03
(PID.TID 0000.0001) %MON trAdv_CFL_w_max              =   1.2853277351669E-03
(PID.TID 0000.0001) %MON advcfl_uvel_max              =   1.9854224743158E-03
(PID.TID 0000.0001) %MON advcfl_vvel_max              =   1.1663160089067E-03
(PID.TID 0000.0001) %MON advcfl_wvel_max              =   2.2068995496501E-03
(PID.TID 0000.0001) %MON advcfl_W_hf_max              =   1.2853277351669E-03
(PID.TID 0000.0001) %MON pe_b_mean                    =   4.9820824078197E-04
(PID.TID 0000.0001) %MON ke_max                       =   1.9358403214072E-01
(PID.TID 0000.0001) %MON ke_mean                      =   1.6349280825386E-04
(PID.TID 0000.0001) %MON ke_vol                       =   1.3398151182812E+18
(PID.TID 0000.0001) %MON vort_r_min                   =  -2.4270762395046E-06
(PID.TID 0000.0001) %MON vort_r_max                   =   2.6525432770215E-06
(PID.TID 0000.0001) %MON vort_a_mean                  =  -2.0549865324846E-05
(PID.TID 0000.0001) %MON vort_a_sd                    =   7.5259656111557E-05
(PID.TID 0000.0001) %MON vort_p_mean                  =  -2.4783230161100E-05
(PID.TID 0000.0001) %MON vort_p_sd                    =   1.2811923396871E-04
(PID.TID 0000.0001) %MON surfExpan_theta_mean         =  -4.1887884995821E-06
(PID.TID 0000.0001) %MON surfExpan_salt_mean          =   8.8533057701469E-07
(PID.TID 0000.0001) // =======================================================
(PID.TID 0000.0001) // End MONITOR dynamic field statistics
(PID.TID 0000.0001) // =======================================================
 cg2d: Sum(rhs),rhsMax =  -8.34634514912266E+01  3.62544648998402E+01
(PID.TID 0000.0001)      cg2d_init_res =   1.79949464069478E-01
(PID.TID 0000.0001)      cg2d_iters(min,last) =      -1      10
(PID.TID 0000.0001)      cg2d_last_res =   3.83048869430777E-08
(PID.TID 0000.0001) // =======================================================
(PID.TID 0000.0001) // Begin MONITOR dynamic field statistics
(PID.TID 0000.0001) // =======================================================
(PID.TID 0000.0001) %MON time_tsnumber                =                 72091
(PID.TID 0000.0001) %MON time_secondsf                =   6.4881900000000E+07
(PID.TID 0000.0001) %MON dynstat_eta_max              =   9.7282438202820E-01
(PID.TID 0000.0001) %MON dynstat_eta_min              =  -1.5596544500579E+00
(PID.TID 0000.0001) %MON dynstat_eta_mean             =   3.5160821467912E-02
(PID.TID 0000.0001) %MON dynstat_eta_sd               =   6.1039757424673E-01
(PID.TID 0000.0001) %MON dynstat_eta_del2             =   1.2716265641120E-03
(PID.TID 0000.0001) %MON dynstat_uvel_max             =   3.6041694546638E-01
(PID.TID 0000.0001) %MON dynstat_uvel_min             =  -6.7657030247898E-01
(PID.TID 0000.0001) %MON dynstat_uvel_mean            =  -5.0680013187172E-04
(PID.TID 0000.0001) %MON dynstat_uvel_sd              =   1.2871516392050E-02
(PID.TID 0000.0001) %MON dynstat_uvel_del2            =   8.5596455909333E-05
(PID.TID 0000.0001) %MON dynstat_vvel_max             =   2.9514221570825E-01
(PID.TID 0000.0001) %MON dynstat_vvel_min             =  -3.4302050288864E-01
(PID.TID 0000.0001) %MON dynstat_vvel_mean            =   1.3313010522253E-04
(PID.TID 0000.0001) %MON dynstat_vvel_sd              =   1.3701057657783E-02
(PID.TID 0000.0001) %MON dynstat_vvel_del2            =   8.5897374139982E-05
(PID.TID 0000.0001) %MON dynstat_wvel_max             =   1.0640842484796E-04
(PID.TID 0000.0001) %MON dynstat_wvel_min             =  -1.9261460830735E-04
(PID.TID 0000.0001) %MON dynstat_wvel_mean            =  -4.3788146868946E-08
(PID.TID 0000.0001) %MON dynstat_wvel_sd              =   7.5879474609435E-06
(PID.TID 0000.0001) %MON dynstat_wvel_del2            =   6.4950095828706E-08
(PID.TID 0000.0001) %MON dynstat_theta_max            =   3.0918895798573E+01
(PID.TID 0000.0001) %MON dynstat_theta_min            =  -3.0190893898800E+00
(PID.TID 0000.0001) %MON dynstat_theta_mean           =   3.9092271850508E+00
(PID.TID 0000.0001) %MON dynstat_theta_sd             =   4.5717384112263E+00
(PID.TID 0000.0001) %MON dynstat_theta_del2           =   2.6378485318806E-03
(PID.TID 0000.0001) %MON dynstat_salt_max             =   4.1346685509966E+01
(PID.TID 0000.0001) %MON dynstat_salt_min             =   1.8519294129557E+01
(PID.TID 0000.0001) %MON dynstat_salt_mean            =   3.4771887069565E+01
(PID.TID 0000.0001) %MON dynstat_salt_sd              =   5.3233112861253E-01
(PID.TID 0000.0001) %MON dynstat_salt_del2            =   1.1464430079288E-03
(PID.TID 0000.0001) %MON dynstat_sst_max              =   3.0918895798573E+01
(PID.TID 0000.0001) %MON dynstat_sst_min              =  -1.8976457752933E+00
(PID.TID 0000.0001) %MON dynstat_sst_mean             =   1.8110263620235E+01
(PID.TID 0000.0001) %MON dynstat_sst_sd               =   9.8150363550512E+00
(PID.TID 0000.0001) %MON dynstat_sst_del2             =   1.4960538013012E-02
(PID.TID 0000.0001) %MON dynstat_sss_max              =   4.1346685509966E+01
(PID.TID 0000.0001) %MON dynstat_sss_min              =   1.8752538873542E+01
(PID.TID 0000.0001) %MON dynstat_sss_mean             =   3.4619499265075E+01
(PID.TID 0000.0001) %MON dynstat_sss_sd               =   1.4920674600741E+00
(PID.TID 0000.0001) %MON dynstat_sss_del2             =   1.3036896841374E-02
(PID.TID 0000.0001) %MON forcing_qnet_max             =   1.3679892578125E+03
(PID.TID 0000.0001) %MON forcing_qnet_min             =  -7.9902385618634E+02
(PID.TID 0000.0001) %MON forcing_qnet_mean            =  -4.0566568815016E+01
(PID.TID 0000.0001) %MON forcing_qnet_sd              =   1.9527294999285E+02
(PID.TID 0000.0001) %MON forcing_qnet_del2            =   3.1753491177000E+00
(PID.TID 0000.0001) %MON forcing_qsw_max              =   0.0000000000000E+00
(PID.TID 0000.0001) %MON forcing_qsw_min              =  -1.0641867241538E+02
(PID.TID 0000.0001) %MON forcing_qsw_mean             =  -2.0457137767958E+01
(PID.TID 0000.0001) %MON forcing_qsw_sd               =   2.9480468728033E+01
(PID.TID 0000.0001) %MON forcing_qsw_del2             =   2.2669362535675E-01
(PID.TID 0000.0001) %MON forcing_empmr_max            =   4.3672560714185E-03
(PID.TID 0000.0001) %MON forcing_empmr_min            =  -6.2795557081699E-02
(PID.TID 0000.0001) %MON forcing_empmr_mean           =  -1.9150499757738E-04
(PID.TID 0000.0001) %MON forcing_empmr_sd             =   2.7689899578438E-03
(PID.TID 0000.0001) %MON forcing_empmr_del2           =   1.0882251024930E-04
(PID.TID 0000.0001) %MON forcing_fu_max               =   2.4858190324330E-01
(PID.TID 0000.0001) %MON forcing_fu_min               =  -3.3386537325930E-01
(PID.TID 0000.0001) %MON forcing_fu_mean              =  -5.0813975709293E-03
(PID.TID 0000.0001) %MON forcing_fu_sd                =   5.5621039359898E-02
(PID.TID 0000.0001) %MON forcing_fu_del2              =   5.5858725605547E-04
(PID.TID 0000.0001) %MON forcing_fv_max               =   2.6142899344716E-01
(PID.TID 0000.0001) %MON forcing_fv_min               =  -2.5516584719260E-01
(PID.TID 0000.0001) %MON forcing_fv_mean              =  -1.4919300778952E-02
(PID.TID 0000.0001) %MON forcing_fv_sd                =   5.9369337983969E-02
(PID.TID 0000.0001) %MON forcing_fv_del2              =   4.9973162381101E-04
(PID.TID 0000.0001) %MON trAdv_CFL_u_max              =   1.9685867118138E-03
(PID.TID 0000.0001) %MON trAdv_CFL_v_max              =   1.1523151617843E-03
(PID.TID 0000.0001) %MON trAdv_CFL_w_max              =   1.2824485432380E-03
(PID.TID 0000.0001) %MON advcfl_uvel_max              =   1.9517970983638E-03
(PID.TID 0000.0001) %MON advcfl_vvel_max              =   1.1560990574674E-03
(PID.TID 0000.0001) %MON advcfl_wvel_max              =   2.1841932897982E-03
(PID.TID 0000.0001) %MON advcfl_W_hf_max              =   1.2824485432380E-03
(PID.TID 0000.0001) %MON pe_b_mean                    =   4.9799456167150E-04
(PID.TID 0000.0001) %MON ke_max                       =   1.9324967306529E-01
(PID.TID 0000.0001) %MON ke_mean                      =   1.6333033560365E-04
(PID.TID 0000.0001) %MON ke_vol                       =   1.3398151793227E+18
(PID.TID 0000.0001) %MON vort_r_min                   =  -2.4738177984065E-06
(PID.TID 0000.0001) %MON vort_r_max                   =   2.5996298331322E-06
(PID.TID 0000.0001) %MON vort_a_mean                  =  -2.0549865324846E-05
(PID.TID 0000.0001) %MON vort_a_sd                    =   7.5259655281267E-05
(PID.TID 0000.0001) %MON vort_p_mean                  =  -2.4783229077175E-05
(PID.TID 0000.0001) %MON vort_p_sd                    =   1.2811923756685E-04
(PID.TID 0000.0001) %MON surfExpan_theta_mean         =  -4.0906094676494E-06
(PID.TID 0000.0001) %MON surfExpan_salt_mean          =   8.6483058558454E-07
(PID.TID 0000.0001) // =======================================================
(PID.TID 0000.0001) // End MONITOR dynamic field statistics
(PID.TID 0000.0001) // =======================================================
 Computing Diagnostic #     81  oceTAUX      Counter:       1   Parms: UU      U1      
           Vector  Mate for  oceTAUX      Diagnostic #     82  oceTAUY  exists 
 Computing Diagnostic #     82  oceTAUY      Counter:       1   Parms: VV      U1      
           Vector  Mate for  oceTAUY      Diagnostic #     81  oceTAUX  exists 
 Computing Diagnostic #     85  oceFWflx     Counter:       1   Parms: SM      U1      
 Computing Diagnostic #     86  oceSflux     Counter:       1   Parms: SM      U1      
 Computing Diagnostic #     87  oceQnet      Counter:       1   Parms: SM      U1      
 Computing Diagnostic #     88  oceQsw       Counter:       1   Parms: SM      U1      
 Computing Diagnostic #     27  SALT         Counter:       1   Parms: SMR     MR      
 Computing Diagnostic #     26  THETA        Counter:       1   Parms: SMR     MR      
 Computing Diagnostic #     45  UVELMASS     Counter:       1   Parms: UUr     MR      
           Vector  Mate for  UVELMASS     Diagnostic #     46  VVELMASS exists 
 Computing Diagnostic #     46  VVELMASS     Counter:       1   Parms: VVr     MR      
           Vector  Mate for  VVELMASS     Diagnostic #     45  UVELMASS exists 
 cg2d: Sum(rhs),rhsMax =  -8.38190989659782E+01  3.62692367455338E+01
(PID.TID 0000.0001)      cg2d_init_res =   1.75709796046811E-01
(PID.TID 0000.0001)      cg2d_iters(min,last) =      -1      10
(PID.TID 0000.0001)      cg2d_last_res =   3.61787156989816E-08
(PID.TID 0000.0001) // =======================================================
(PID.TID 0000.0001) // Begin MONITOR dynamic field statistics
(PID.TID 0000.0001) // =======================================================
(PID.TID 0000.0001) %MON time_tsnumber                =                 72092
(PID.TID 0000.0001) %MON time_secondsf                =   6.4882800000000E+07
(PID.TID 0000.0001) %MON dynstat_eta_max              =   9.6913700362501E-01
(PID.TID 0000.0001) %MON dynstat_eta_min              =  -1.5606529918572E+00
(PID.TID 0000.0001) %MON dynstat_eta_mean             =   3.5325033105420E-02
(PID.TID 0000.0001) %MON dynstat_eta_sd               =   6.1023605918579E-01
(PID.TID 0000.0001) %MON dynstat_eta_del2             =   1.2797888731248E-03
(PID.TID 0000.0001) %MON dynstat_uvel_max             =   3.4472683625575E-01
(PID.TID 0000.0001) %MON dynstat_uvel_min             =  -6.6268839417361E-01
(PID.TID 0000.0001) %MON dynstat_uvel_mean            =  -5.1388857907002E-04
(PID.TID 0000.0001) %MON dynstat_uvel_sd              =   1.2865122668922E-02
(PID.TID 0000.0001) %MON dynstat_uvel_del2            =   8.5590584884441E-05
(PID.TID 0000.0001) %MON dynstat_vvel_max             =   3.0409482002021E-01
(PID.TID 0000.0001) %MON dynstat_vvel_min             =  -3.4465471758681E-01
(PID.TID 0000.0001) %MON dynstat_vvel_mean            =   1.3255132370123E-04
(PID.TID 0000.0001) %MON dynstat_vvel_sd              =   1.3694499161058E-02
(PID.TID 0000.0001) %MON dynstat_vvel_del2            =   8.5421131446391E-05
(PID.TID 0000.0001) %MON dynstat_wvel_max             =   1.0664600875542E-04
(PID.TID 0000.0001) %MON dynstat_wvel_min             =  -1.9275749329862E-04
(PID.TID 0000.0001) %MON dynstat_wvel_mean            =  -4.2927104117193E-08
(PID.TID 0000.0001) %MON dynstat_wvel_sd              =   7.5932145876251E-06
(PID.TID 0000.0001) %MON dynstat_wvel_del2            =   6.4705099510544E-08
(PID.TID 0000.0001) %MON dynstat_theta_max            =   3.0918588483580E+01
(PID.TID 0000.0001) %MON dynstat_theta_min            =  -3.0197498426246E+00
(PID.TID 0000.0001) %MON dynstat_theta_mean           =   3.9092306365631E+00
(PID.TID 0000.0001) %MON dynstat_theta_sd             =   4.5717525972329E+00
(PID.TID 0000.0001) %MON dynstat_theta_del2           =   2.6377248640071E-03
(PID.TID 0000.0001) %MON dynstat_salt_max             =   4.1346724411379E+01
(PID.TID 0000.0001) %MON dynstat_salt_min             =   1.8519304234758E+01
(PID.TID 0000.0001) %MON dynstat_salt_mean            =   3.4771885703708E+01
(PID.TID 0000.0001) %MON dynstat_salt_sd              =   5.3234035020509E-01
(PID.TID 0000.0001) %MON dynstat_salt_del2            =   1.1482779022502E-03
(PID.TID 0000.0001) %MON dynstat_sst_max              =   3.0918588483580E+01
(PID.TID 0000.0001) %MON dynstat_sst_min              =  -1.8975236531543E+00
(PID.TID 0000.0001) %MON dynstat_sst_mean             =   1.8110438282070E+01
(PID.TID 0000.0001) %MON dynstat_sst_sd               =   9.8152171608488E+00
(PID.TID 0000.0001) %MON dynstat_sst_del2             =   1.4958309425227E-02
(PID.TID 0000.0001) %MON dynstat_sss_max              =   4.1346724411379E+01
(PID.TID 0000.0001) %MON dynstat_sss_min              =   1.8752552124351E+01
(PID.TID 0000.0001) %MON dynstat_sss_mean             =   3.4619395709140E+01
(PID.TID 0000.0001) %MON dynstat_sss_sd               =   1.4922945204810E+00
(PID.TID 0000.0001) %MON dynstat_sss_del2             =   1.3062434700672E-02
(PID.TID 0000.0001) %MON forcing_qnet_max             =   1.3529368896484E+03
(PID.TID 0000.0001) %MON forcing_qnet_min             =  -7.8828758321333E+02
(PID.TID 0000.0001) %MON forcing_qnet_mean            =  -4.1594768500559E+01
(PID.TID 0000.0001) %MON forcing_qnet_sd              =   1.9747634080364E+02
(PID.TID 0000.0001) %MON forcing_qnet_del2            =   3.1498543744575E+00
(PID.TID 0000.0001) %MON forcing_qsw_max              =   0.0000000000000E+00
(PID.TID 0000.0001) %MON forcing_qsw_min              =  -1.0586551204399E+02
(PID.TID 0000.0001) %MON forcing_qsw_mean             =  -2.0589929621671E+01
(PID.TID 0000.0001) %MON forcing_qsw_sd               =   2.9608862120957E+01
(PID.TID 0000.0001) %MON forcing_qsw_del2             =   2.2707130204701E-01
(PID.TID 0000.0001) %MON forcing_empmr_max            =   4.3222852982581E-03
(PID.TID 0000.0001) %MON forcing_empmr_min            =  -6.2148615717888E-02
(PID.TID 0000.0001) %MON forcing_empmr_mean           =  -1.8884338313456E-04
(PID.TID 0000.0001) %MON forcing_empmr_sd             =   2.7409616423624E-03
(PID.TID 0000.0001) %MON forcing_empmr_del2           =   1.0769136939026E-04
(PID.TID 0000.0001) %MON forcing_fu_max               =   2.4698851814991E-01
(PID.TID 0000.0001) %MON forcing_fu_min               =  -3.3311932170886E-01
(PID.TID 0000.0001) %MON forcing_fu_mean              =  -5.1806377396553E-03
(PID.TID 0000.0001) %MON forcing_fu_sd                =   5.5412853285025E-02
(PID.TID 0000.0001) %MON forcing_fu_del2              =   5.5725048148765E-04
(PID.TID 0000.0001) %MON forcing_fv_max               =   2.5788498008112E-01
(PID.TID 0000.0001) %MON forcing_fv_min               =  -2.5431967404957E-01
(PID.TID 0000.0001) %MON forcing_fv_mean              =  -1.4913041044887E-02
(PID.TID 0000.0001) %MON forcing_fv_sd                =   5.9197961138853E-02
(PID.TID 0000.0001) %MON forcing_fv_del2              =   4.9832231049629E-04
(PID.TID 0000.0001) %MON trAdv_CFL_u_max              =   1.9297074225675E-03
(PID.TID 0000.0001) %MON trAdv_CFL_v_max              =   1.1412855386824E-03
(PID.TID 0000.0001) %MON trAdv_CFL_w_max              =   1.2750745604002E-03
(PID.TID 0000.0001) %MON advcfl_uvel_max              =   1.9117500134550E-03
(PID.TID 0000.0001) %MON advcfl_vvel_max              =   1.1437849960748E-03
(PID.TID 0000.0001) %MON advcfl_wvel_max              =   2.1616909814918E-03
(PID.TID 0000.0001) %MON advcfl_W_hf_max              =   1.2750745604002E-03
(PID.TID 0000.0001) %MON pe_b_mean                    =   4.9774731982619E-04
(PID.TID 0000.0001) %MON ke_max                       =   1.9179358624210E-01
(PID.TID 0000.0001) %MON ke_mean                      =   1.6317463828592E-04
(PID.TID 0000.0001) %MON ke_vol                       =   1.3398152399194E+18
(PID.TID 0000.0001) %MON vort_r_min                   =  -2.5193231732821E-06
(PID.TID 0000.0001) %MON vort_r_max                   =   2.5384396840712E-06
(PID.TID 0000.0001) %MON vort_a_mean                  =  -2.0549865324846E-05
(PID.TID 0000.0001) %MON vort_a_sd                    =   7.5259654860628E-05
(PID.TID 0000.0001) %MON vort_p_mean                  =  -2.4783228006165E-05
(PID.TID 0000.0001) %MON vort_p_sd                    =   1.2811924019422E-04
(PID.TID 0000.0001) %MON surfExpan_theta_mean         =  -3.9701729801093E-06
(PID.TID 0000.0001) %MON surfExpan_salt_mean          =   8.4565736553545E-07
(PID.TID 0000.0001) // =======================================================
(PID.TID 0000.0001) // End MONITOR dynamic field statistics
(PID.TID 0000.0001) // =======================================================
 cg2d: Sum(rhs),rhsMax =  -8.41653571313473E+01  3.62873148322818E+01
(PID.TID 0000.0001)      cg2d_init_res =   1.71247457535887E-01
(PID.TID 0000.0001)      cg2d_iters(min,last) =      -1      10
(PID.TID 0000.0001)      cg2d_last_res =   3.46631145438197E-08
(PID.TID 0000.0001) // =======================================================
(PID.TID 0000.0001) // Begin MONITOR dynamic field statistics
(PID.TID 0000.0001) // =======================================================
(PID.TID 0000.0001) %MON time_tsnumber                =                 72093
(PID.TID 0000.0001) %MON time_secondsf                =   6.4883700000000E+07
(PID.TID 0000.0001) %MON dynstat_eta_max              =   9.6515540885910E-01
(PID.TID 0000.0001) %MON dynstat_eta_min              =  -1.5618017998367E+00
(PID.TID 0000.0001) %MON dynstat_eta_mean             =   3.5488641629002E-02
(PID.TID 0000.0001) %MON dynstat_eta_sd               =   6.1005268579302E-01
(PID.TID 0000.0001) %MON dynstat_eta_del2             =   1.2890150413286E-03
(PID.TID 0000.0001) %MON dynstat_uvel_max             =   3.2880686780358E-01
(PID.TID 0000.0001) %MON dynstat_uvel_min             =  -6.4666715595702E-01
(PID.TID 0000.0001) %MON dynstat_uvel_mean            =  -5.2032149318221E-04
(PID.TID 0000.0001) %MON dynstat_uvel_sd              =   1.2859417022884E-02
(PID.TID 0000.0001) %MON dynstat_uvel_del2            =   8.5547271504927E-05
(PID.TID 0000.0001) %MON dynstat_vvel_max             =   3.3080201473816E-01
(PID.TID 0000.0001) %MON dynstat_vvel_min             =  -3.4627168237058E-01
(PID.TID 0000.0001) %MON dynstat_vvel_mean            =   1.3406226268004E-04
(PID.TID 0000.0001) %MON dynstat_vvel_sd              =   1.3688172171738E-02
(PID.TID 0000.0001) %MON dynstat_vvel_del2            =   8.5055336432210E-05
(PID.TID 0000.0001) %MON dynstat_wvel_max             =   1.0688236219370E-04
(PID.TID 0000.0001) %MON dynstat_wvel_min             =  -1.9289453016682E-04
(PID.TID 0000.0001) %MON dynstat_wvel_mean            =  -4.3704527382935E-08
(PID.TID 0000.0001) %MON dynstat_wvel_sd              =   7.6001417495244E-06
(PID.TID 0000.0001) %MON dynstat_wvel_del2            =   6.4480695051645E-08
(PID.TID 0000.0001) %MON dynstat_theta_max            =   3.0918273180967E+01
(PID.TID 0000.0001) %MON dynstat_theta_min            =  -3.0204252343730E+00
(PID.TID 0000.0001) %MON dynstat_theta_mean           =   3.9092342862536E+00
(PID.TID 0000.0001) %MON dynstat_theta_sd             =   4.5717677335748E+00
(PID.TID 0000.0001) %MON dynstat_theta_del2           =   2.6375971540658E-03
(PID.TID 0000.0001) %MON dynstat_salt_max             =   4.1346777881729E+01
(PID.TID 0000.0001) %MON dynstat_salt_min             =   1.8519314347211E+01
(PID.TID 0000.0001) %MON dynstat_salt_mean            =   3.4771884348545E+01
(PID.TID 0000.0001) %MON dynstat_salt_sd              =   5.3234944168387E-01
(PID.TID 0000.0001) %MON dynstat_salt_del2            =   1.1500705473231E-03
(PID.TID 0000.0001) %MON dynstat_sst_max              =   3.0918273180967E+01
(PID.TID 0000.0001) %MON dynstat_sst_min              =  -1.8974100683582E+00
(PID.TID 0000.0001) %MON dynstat_sst_mean             =   1.8110628695794E+01
(PID.TID 0000.0001) %MON dynstat_sst_sd               =   9.8154084007847E+00
(PID.TID 0000.0001) %MON dynstat_sst_del2             =   1.4955966927505E-02
(PID.TID 0000.0001) %MON dynstat_sss_max              =   4.1346777881729E+01
(PID.TID 0000.0001) %MON dynstat_sss_min              =   1.8752565139706E+01
(PID.TID 0000.0001) %MON dynstat_sss_mean             =   3.4619293195081E+01
(PID.TID 0000.0001) %MON dynstat_sss_sd               =   1.4925179084517E+00
(PID.TID 0000.0001) %MON dynstat_sss_del2             =   1.3087378000619E-02
(PID.TID 0000.0001) %MON forcing_qnet_max             =   1.3380628662109E+03
(PID.TID 0000.0001) %MON forcing_qnet_min             =  -7.7755609457288E+02
(PID.TID 0000.0001) %MON forcing_qnet_mean            =  -4.4848675360232E+01
(PID.TID 0000.0001) %MON forcing_qnet_sd              =   2.0177146826458E+02
(PID.TID 0000.0001) %MON forcing_qnet_del2            =   3.2244606826848E+00
(PID.TID 0000.0001) %MON forcing_qsw_max              =   0.0000000000000E+00
(PID.TID 0000.0001) %MON forcing_qsw_min              =  -1.0349943198146E+02
(PID.TID 0000.0001) %MON forcing_qsw_mean             =  -2.1184975866659E+01
(PID.TID 0000.0001) %MON forcing_qsw_sd               =   3.0130250808310E+01
(PID.TID 0000.0001) %MON forcing_qsw_del2             =   2.3015001871336E-01
(PID.TID 0000.0001) %MON forcing_empmr_max            =   4.2777084745467E-03
(PID.TID 0000.0001) %MON forcing_empmr_min            =  -6.1509236693382E-02
(PID.TID 0000.0001) %MON forcing_empmr_mean           =  -1.8814980211902E-04
(PID.TID 0000.0001) %MON forcing_empmr_sd             =   2.7130340511658E-03
(PID.TID 0000.0001) %MON forcing_empmr_del2           =   1.0659143501515E-04
(PID.TID 0000.0001) %MON forcing_fu_max               =   2.4557439562392E-01
(PID.TID 0000.0001) %MON forcing_fu_min               =  -3.3291404592157E-01
(PID.TID 0000.0001) %MON forcing_fu_mean              =  -5.2846284838587E-03
(PID.TID 0000.0001) %MON forcing_fu_sd                =   5.5232180795045E-02
(PID.TID 0000.0001) %MON forcing_fu_del2              =   5.5607368440259E-04
(PID.TID 0000.0001) %MON forcing_fv_max               =   2.4611269719303E-01
(PID.TID 0000.0001) %MON forcing_fv_min               =  -2.5249793709305E-01
(PID.TID 0000.0001) %MON forcing_fv_mean              =  -1.4938009148987E-02
(PID.TID 0000.0001) %MON forcing_fv_sd                =   5.8918713415563E-02
(PID.TID 0000.0001) %MON forcing_fv_del2              =   4.9538958736634E-04
(PID.TID 0000.0001) %MON trAdv_CFL_u_max              =   1.8845207826622E-03
(PID.TID 0000.0001) %MON trAdv_CFL_v_max              =   1.2133168882169E-03
(PID.TID 0000.0001) %MON trAdv_CFL_w_max              =   1.2641838218733E-03
(PID.TID 0000.0001) %MON advcfl_uvel_max              =   1.8655313039598E-03
(PID.TID 0000.0001) %MON advcfl_vvel_max              =   1.1713514906316E-03
(PID.TID 0000.0001) %MON advcfl_wvel_max              =   2.1394517110742E-03
(PID.TID 0000.0001) %MON advcfl_W_hf_max              =   1.2641838218733E-03
(PID.TID 0000.0001) %MON pe_b_mean                    =   4.9746463368350E-04
(PID.TID 0000.0001) %MON ke_max                       =   1.8924864555274E-01
(PID.TID 0000.0001) %MON ke_mean                      =   1.6303007646820E-04
(PID.TID 0000.0001) %MON ke_vol                       =   1.3398152996738E+18
(PID.TID 0000.0001) %MON vort_r_min                   =  -2.5633291962422E-06
(PID.TID 0000.0001) %MON vort_r_max                   =   2.4695833883806E-06
(PID.TID 0000.0001) %MON vort_a_mean                  =  -2.0549865324846E-05
(PID.TID 0000.0001) %MON vort_a_sd                    =   7.5259654818880E-05
(PID.TID 0000.0001) %MON vort_p_mean                  =  -2.4783226955031E-05
(PID.TID 0000.0001) %MON vort_p_sd                    =   1.2811924170899E-04
(PID.TID 0000.0001) %MON surfExpan_theta_mean         =  -3.9019959928739E-06
(PID.TID 0000.0001) %MON surfExpan_salt_mean          =   8.2724923425652E-07
(PID.TID 0000.0001) // =======================================================
(PID.TID 0000.0001) // End MONITOR dynamic field statistics
(PID.TID 0000.0001) // =======================================================
 cg2d: Sum(rhs),rhsMax =  -8.45002264904335E+01  3.63077410248154E+01
(PID.TID 0000.0001)      cg2d_init_res =   1.66790225441157E-01
(PID.TID 0000.0001)      cg2d_iters(min,last) =      -1      10
(PID.TID 0000.0001)      cg2d_last_res =   3.32626472022332E-08
(PID.TID 0000.0001) // =======================================================
(PID.TID 0000.0001) // Begin MONITOR dynamic field statistics
(PID.TID 0000.0001) // =======================================================
(PID.TID 0000.0001) %MON time_tsnumber                =                 72094
(PID.TID 0000.0001) %MON time_secondsf                =   6.4884600000000E+07
(PID.TID 0000.0001) %MON dynstat_eta_max              =   9.6089517047433E-01
(PID.TID 0000.0001) %MON dynstat_eta_min              =  -1.5631023778313E+00
(PID.TID 0000.0001) %MON dynstat_eta_mean             =   3.5649896661777E-02
(PID.TID 0000.0001) %MON dynstat_eta_sd               =   6.0984293636073E-01
(PID.TID 0000.0001) %MON dynstat_eta_del2             =   1.2977892512129E-03
(PID.TID 0000.0001) %MON dynstat_uvel_max             =   3.1313680278254E-01
(PID.TID 0000.0001) %MON dynstat_uvel_min             =  -6.2859777059999E-01
(PID.TID 0000.0001) %MON dynstat_uvel_mean            =  -5.2615839869023E-04
(PID.TID 0000.0001) %MON dynstat_uvel_sd              =   1.2854350038583E-02
(PID.TID 0000.0001) %MON dynstat_uvel_del2            =   8.5469548890439E-05
(PID.TID 0000.0001) %MON dynstat_vvel_max             =   3.5684430463032E-01
(PID.TID 0000.0001) %MON dynstat_vvel_min             =  -3.4787675717780E-01
(PID.TID 0000.0001) %MON dynstat_vvel_mean            =   1.3756541869756E-04
(PID.TID 0000.0001) %MON dynstat_vvel_sd              =   1.3682603182598E-02
(PID.TID 0000.0001) %MON dynstat_vvel_del2            =   8.4824105989174E-05
(PID.TID 0000.0001) %MON dynstat_wvel_max             =   1.0710177442449E-04
(PID.TID 0000.0001) %MON dynstat_wvel_min             =  -1.9302843672830E-04
(PID.TID 0000.0001) %MON dynstat_wvel_mean            =  -4.3488618061086E-08
(PID.TID 0000.0001) %MON dynstat_wvel_sd              =   7.6084283929820E-06
(PID.TID 0000.0001) %MON dynstat_wvel_del2            =   6.4272438343120E-08
(PID.TID 0000.0001) %MON dynstat_theta_max            =   3.0917949835248E+01
(PID.TID 0000.0001) %MON dynstat_theta_min            =  -3.0211159288031E+00
(PID.TID 0000.0001) %MON dynstat_theta_mean           =   3.9092380309472E+00
(PID.TID 0000.0001) %MON dynstat_theta_sd             =   4.5717834057786E+00
(PID.TID 0000.0001) %MON dynstat_theta_del2           =   2.6374663398828E-03
(PID.TID 0000.0001) %MON dynstat_salt_max             =   4.1346847140680E+01
(PID.TID 0000.0001) %MON dynstat_salt_min             =   1.8519324466247E+01
(PID.TID 0000.0001) %MON dynstat_salt_mean            =   3.4771883021819E+01
(PID.TID 0000.0001) %MON dynstat_salt_sd              =   5.3235838960569E-01
(PID.TID 0000.0001) %MON dynstat_salt_del2            =   1.1518202757949E-03
(PID.TID 0000.0001) %MON dynstat_sst_max              =   3.0917949835248E+01
(PID.TID 0000.0001) %MON dynstat_sst_min              =  -1.8973063245327E+00
(PID.TID 0000.0001) %MON dynstat_sst_mean             =   1.8110829255583E+01
(PID.TID 0000.0001) %MON dynstat_sst_sd               =   9.8156059760077E+00
(PID.TID 0000.0001) %MON dynstat_sst_del2             =   1.4953547604624E-02
(PID.TID 0000.0001) %MON dynstat_sss_max              =   4.1346847140680E+01
(PID.TID 0000.0001) %MON dynstat_sss_min              =   1.8752578072950E+01
(PID.TID 0000.0001) %MON dynstat_sss_mean             =   3.4619193090214E+01
(PID.TID 0000.0001) %MON dynstat_sss_sd               =   1.4927374981466E+00
(PID.TID 0000.0001) %MON dynstat_sss_del2             =   1.3111718536894E-02
(PID.TID 0000.0001) %MON forcing_qnet_max             =   1.3233648681641E+03
(PID.TID 0000.0001) %MON forcing_qnet_min             =  -7.6712812653826E+02
(PID.TID 0000.0001) %MON forcing_qnet_mean            =  -4.6794111111874E+01
(PID.TID 0000.0001) %MON forcing_qnet_sd              =   2.0440484241757E+02
(PID.TID 0000.0001) %MON forcing_qnet_del2            =   3.2171078417551E+00
(PID.TID 0000.0001) %MON forcing_qsw_max              =   0.0000000000000E+00
(PID.TID 0000.0001) %MON forcing_qsw_min              =  -1.0222655230398E+02
(PID.TID 0000.0001) %MON forcing_qsw_mean             =  -2.1420209641666E+01
(PID.TID 0000.0001) %MON forcing_qsw_sd               =   3.0261897942194E+01
(PID.TID 0000.0001) %MON forcing_qsw_del2             =   2.3124279550319E-01
(PID.TID 0000.0001) %MON forcing_empmr_max            =   4.2336238548160E-03
(PID.TID 0000.0001) %MON forcing_empmr_min            =  -6.0876563191414E-02
(PID.TID 0000.0001) %MON forcing_empmr_mean           =  -1.8544328769110E-04
(PID.TID 0000.0001) %MON forcing_empmr_sd             =   2.6855413683421E-03
(PID.TID 0000.0001) %MON forcing_empmr_del2           =   1.0545679168706E-04
(PID.TID 0000.0001) %MON forcing_fu_max               =   2.4329767728670E-01
(PID.TID 0000.0001) %MON forcing_fu_min               =  -3.3369382806273E-01
(PID.TID 0000.0001) %MON forcing_fu_mean              =  -5.3987158390810E-03
(PID.TID 0000.0001) %MON forcing_fu_sd                =   5.5044181040096E-02
(PID.TID 0000.0001) %MON forcing_fu_del2              =   5.5493648038177E-04
(PID.TID 0000.0001) %MON forcing_fv_max               =   2.4361672009480E-01
(PID.TID 0000.0001) %MON forcing_fv_min               =  -2.5125941969747E-01
(PID.TID 0000.0001) %MON forcing_fv_mean              =  -1.4929572578359E-02
(PID.TID 0000.0001) %MON forcing_fv_sd                =   5.8690623345510E-02
(PID.TID 0000.0001) %MON forcing_fv_del2              =   4.9410434599652E-04
(PID.TID 0000.0001) %MON trAdv_CFL_u_max              =   1.8332677154587E-03
(PID.TID 0000.0001) %MON trAdv_CFL_v_max              =   1.3085972328068E-03
(PID.TID 0000.0001) %MON trAdv_CFL_w_max              =   1.2507584645134E-03
(PID.TID 0000.0001) %MON advcfl_uvel_max              =   1.8134040175864E-03
(PID.TID 0000.0001) %MON advcfl_vvel_max              =   1.2635657871763E-03
(PID.TID 0000.0001) %MON advcfl_wvel_max              =   2.1174456762231E-03
(PID.TID 0000.0001) %MON advcfl_W_hf_max              =   1.2507584645134E-03
(PID.TID 0000.0001) %MON pe_b_mean                    =   4.9713902746450E-04
(PID.TID 0000.0001) %MON ke_max                       =   1.8565647577421E-01
(PID.TID 0000.0001) %MON ke_mean                      =   1.6290275013904E-04
(PID.TID 0000.0001) %MON ke_vol                       =   1.3398153592088E+18
(PID.TID 0000.0001) %MON vort_r_min                   =  -2.6055658188405E-06
(PID.TID 0000.0001) %MON vort_r_max                   =   2.3936599992216E-06
(PID.TID 0000.0001) %MON vort_a_mean                  =  -2.0549865324846E-05
(PID.TID 0000.0001) %MON vort_a_sd                    =   7.5259655120911E-05
(PID.TID 0000.0001) %MON vort_p_mean                  =  -2.4783225909648E-05
(PID.TID 0000.0001) %MON vort_p_sd                    =   1.2811924195554E-04
(PID.TID 0000.0001) %MON surfExpan_theta_mean         =  -3.7919754374172E-06
(PID.TID 0000.0001) %MON surfExpan_salt_mean          =   8.0939680232400E-07
(PID.TID 0000.0001) // =======================================================
(PID.TID 0000.0001) // End MONITOR dynamic field statistics
(PID.TID 0000.0001) // =======================================================
 cg2d: Sum(rhs),rhsMax =  -8.48298059383571E+01  3.63292910468015E+01
(PID.TID 0000.0001)      cg2d_init_res =   1.62381686768164E-01
(PID.TID 0000.0001)      cg2d_iters(min,last) =      -1      10
(PID.TID 0000.0001)      cg2d_last_res =   3.34177186055059E-08
(PID.TID 0000.0001) // =======================================================
(PID.TID 0000.0001) // Begin MONITOR dynamic field statistics
(PID.TID 0000.0001) // =======================================================
(PID.TID 0000.0001) %MON time_tsnumber                =                 72095
(PID.TID 0000.0001) %MON time_secondsf                =   6.4885500000000E+07
(PID.TID 0000.0001) %MON dynstat_eta_max              =   9.5644172456797E-01
(PID.TID 0000.0001) %MON dynstat_eta_min              =  -1.5645492885793E+00
(PID.TID 0000.0001) %MON dynstat_eta_mean             =   3.5810185405771E-02
(PID.TID 0000.0001) %MON dynstat_eta_sd               =   6.0960657699088E-01
(PID.TID 0000.0001) %MON dynstat_eta_del2             =   1.3049136342560E-03
(PID.TID 0000.0001) %MON dynstat_uvel_max             =   2.9817067348400E-01
(PID.TID 0000.0001) %MON dynstat_uvel_min             =  -6.0858933705834E-01
(PID.TID 0000.0001) %MON dynstat_uvel_mean            =  -5.3143562763467E-04
(PID.TID 0000.0001) %MON dynstat_uvel_sd              =   1.2849933420496E-02
(PID.TID 0000.0001) %MON dynstat_uvel_del2            =   8.5362258977699E-05
(PID.TID 0000.0001) %MON dynstat_vvel_max             =   3.8169485577710E-01
(PID.TID 0000.0001) %MON dynstat_vvel_min             =  -3.4947479174847E-01
(PID.TID 0000.0001) %MON dynstat_vvel_mean            =   1.4290441494276E-04
(PID.TID 0000.0001) %MON dynstat_vvel_sd              =   1.3678072706874E-02
(PID.TID 0000.0001) %MON dynstat_vvel_del2            =   8.4736498654307E-05
(PID.TID 0000.0001) %MON dynstat_wvel_max             =   1.0731414565424E-04
(PID.TID 0000.0001) %MON dynstat_wvel_min             =  -1.9315022565609E-04
(PID.TID 0000.0001) %MON dynstat_wvel_mean            =  -4.4405698093372E-08
(PID.TID 0000.0001) %MON dynstat_wvel_sd              =   7.6185729712481E-06
(PID.TID 0000.0001) %MON dynstat_wvel_del2            =   6.4088117940729E-08
(PID.TID 0000.0001) %MON dynstat_theta_max            =   3.0917618399179E+01
(PID.TID 0000.0001) %MON dynstat_theta_min            =  -3.0218220045425E+00
(PID.TID 0000.0001) %MON dynstat_theta_mean           =   3.9092418684535E+00
(PID.TID 0000.0001) %MON dynstat_theta_sd             =   4.5717995734106E+00
(PID.TID 0000.0001) %MON dynstat_theta_del2           =   2.6373336551165E-03
(PID.TID 0000.0001) %MON dynstat_salt_max             =   4.1346933237666E+01
(PID.TID 0000.0001) %MON dynstat_salt_min             =   1.8519334591209E+01
(PID.TID 0000.0001) %MON dynstat_salt_mean            =   3.4771881709873E+01
(PID.TID 0000.0001) %MON dynstat_salt_sd              =   5.3236721784097E-01
(PID.TID 0000.0001) %MON dynstat_salt_del2            =   1.1535289726075E-03
(PID.TID 0000.0001) %MON dynstat_sst_max              =   3.0917618399179E+01
(PID.TID 0000.0001) %MON dynstat_sst_min              =  -1.8972124038229E+00
(PID.TID 0000.0001) %MON dynstat_sst_mean             =   1.8111038572255E+01
(PID.TID 0000.0001) %MON dynstat_sst_sd               =   9.8158091818324E+00
(PID.TID 0000.0001) %MON dynstat_sst_del2             =   1.4951081977057E-02
(PID.TID 0000.0001) %MON dynstat_sss_max              =   4.1346933237666E+01
(PID.TID 0000.0001) %MON dynstat_sss_min              =   1.8752590927288E+01
(PID.TID 0000.0001) %MON dynstat_sss_mean             =   3.4619094363154E+01
(PID.TID 0000.0001) %MON dynstat_sss_sd               =   1.4929538522452E+00
(PID.TID 0000.0001) %MON dynstat_sss_del2             =   1.3135482693758E-02
(PID.TID 0000.0001) %MON forcing_qnet_max             =   1.4004727783203E+03
(PID.TID 0000.0001) %MON forcing_qnet_min             =  -7.5683997978448E+02
(PID.TID 0000.0001) %MON forcing_qnet_mean            =  -4.8345500659541E+01
(PID.TID 0000.0001) %MON forcing_qnet_sd              =   2.0680184674944E+02
(PID.TID 0000.0001) %MON forcing_qnet_del2            =   3.2938769654074E+00
(PID.TID 0000.0001) %MON forcing_qsw_max              =   0.0000000000000E+00
(PID.TID 0000.0001) %MON forcing_qsw_min              =  -1.0083262015650E+02
(PID.TID 0000.0001) %MON forcing_qsw_mean             =  -2.1599343380607E+01
(PID.TID 0000.0001) %MON forcing_qsw_sd               =   3.0336698963571E+01
(PID.TID 0000.0001) %MON forcing_qsw_del2             =   2.3185162868089E-01
(PID.TID 0000.0001) %MON forcing_empmr_max            =   4.1900309734046E-03
(PID.TID 0000.0001) %MON forcing_empmr_min            =  -6.0249768197536E-02
(PID.TID 0000.0001) %MON forcing_empmr_mean           =  -1.8433205559295E-04
(PID.TID 0000.0001) %MON forcing_empmr_sd             =   2.6582651555393E-03
(PID.TID 0000.0001) %MON forcing_empmr_del2           =   1.0434745082205E-04
(PID.TID 0000.0001) %MON forcing_fu_max               =   2.4077851934765E-01
(PID.TID 0000.0001) %MON forcing_fu_min               =  -3.3437093521000E-01
(PID.TID 0000.0001) %MON forcing_fu_mean              =  -5.4750610402762E-03
(PID.TID 0000.0001) %MON forcing_fu_sd                =   5.4939562145457E-02
(PID.TID 0000.0001) %MON forcing_fu_del2              =   5.5375217003504E-04
(PID.TID 0000.0001) %MON forcing_fv_max               =   2.3473534517400E-01
(PID.TID 0000.0001) %MON forcing_fv_min               =  -2.4948109284052E-01
(PID.TID 0000.0001) %MON forcing_fv_mean              =  -1.4927122591917E-02
(PID.TID 0000.0001) %MON forcing_fv_sd                =   5.8444925147889E-02
(PID.TID 0000.0001) %MON forcing_fv_del2              =   4.9230393762346E-04
(PID.TID 0000.0001) %MON trAdv_CFL_u_max              =   1.7762435949337E-03
(PID.TID 0000.0001) %MON trAdv_CFL_v_max              =   1.3996541621860E-03
(PID.TID 0000.0001) %MON trAdv_CFL_w_max              =   1.2357700728769E-03
(PID.TID 0000.0001) %MON advcfl_uvel_max              =   1.7556828873708E-03
(PID.TID 0000.0001) %MON advcfl_vvel_max              =   1.3515602032678E-03
(PID.TID 0000.0001) %MON advcfl_wvel_max              =   2.0956441112187E-03
(PID.TID 0000.0001) %MON advcfl_W_hf_max              =   1.2357700728769E-03
(PID.TID 0000.0001) %MON pe_b_mean                    =   4.9677029505150E-04
(PID.TID 0000.0001) %MON ke_max                       =   1.8107542222604E-01
(PID.TID 0000.0001) %MON ke_mean                      =   1.6279634453618E-04
(PID.TID 0000.0001) %MON ke_vol                       =   1.3398154178873E+18
(PID.TID 0000.0001) %MON vort_r_min                   =  -2.6457531354274E-06
(PID.TID 0000.0001) %MON vort_r_max                   =   2.3113154432211E-06
(PID.TID 0000.0001) %MON vort_a_mean                  =  -2.0549865324846E-05
(PID.TID 0000.0001) %MON vort_a_sd                    =   7.5259655726654E-05
(PID.TID 0000.0001) %MON vort_p_mean                  =  -2.4783224881147E-05
(PID.TID 0000.0001) %MON vort_p_sd                    =   1.2811924087110E-04
(PID.TID 0000.0001) %MON surfExpan_theta_mean         =  -3.7249557593709E-06
(PID.TID 0000.0001) %MON surfExpan_salt_mean          =   7.9357846840545E-07
(PID.TID 0000.0001) // =======================================================
(PID.TID 0000.0001) // End MONITOR dynamic field statistics
(PID.TID 0000.0001) // =======================================================
 Computing Diagnostic #     81  oceTAUX      Counter:       1   Parms: UU      U1      
           Vector  Mate for  oceTAUX      Diagnostic #     82  oceTAUY  exists 
 Computing Diagnostic #     82  oceTAUY      Counter:       1   Parms: VV      U1      
           Vector  Mate for  oceTAUY      Diagnostic #     81  oceTAUX  exists 
 Computing Diagnostic #     85  oceFWflx     Counter:       1   Parms: SM      U1      
 Computing Diagnostic #     86  oceSflux     Counter:       1   Parms: SM      U1      
 Computing Diagnostic #     87  oceQnet      Counter:       1   Parms: SM      U1      
 Computing Diagnostic #     88  oceQsw       Counter:       1   Parms: SM      U1      
 Computing Diagnostic #     27  SALT         Counter:       1   Parms: SMR     MR      
 Computing Diagnostic #     26  THETA        Counter:       1   Parms: SMR     MR      
 Computing Diagnostic #     45  UVELMASS     Counter:       1   Parms: UUr     MR      
           Vector  Mate for  UVELMASS     Diagnostic #     46  VVELMASS exists 
 Computing Diagnostic #     46  VVELMASS     Counter:       1   Parms: VVr     MR      
           Vector  Mate for  VVELMASS     Diagnostic #     45  UVELMASS exists 
 cg2d: Sum(rhs),rhsMax =  -8.51572681148290E+01  3.63504319955053E+01
(PID.TID 0000.0001)      cg2d_init_res =   1.58211481821111E-01
(PID.TID 0000.0001)      cg2d_iters(min,last) =      -1      10
(PID.TID 0000.0001)      cg2d_last_res =   3.34289753245821E-08
(PID.TID 0000.0001) // =======================================================
(PID.TID 0000.0001) // Begin MONITOR dynamic field statistics
(PID.TID 0000.0001) // =======================================================
(PID.TID 0000.0001) %MON time_tsnumber                =                 72096
(PID.TID 0000.0001) %MON time_secondsf                =   6.4886400000000E+07
(PID.TID 0000.0001) %MON dynstat_eta_max              =   9.5186000449813E-01
(PID.TID 0000.0001) %MON dynstat_eta_min              =  -1.5661359026419E+00
(PID.TID 0000.0001) %MON dynstat_eta_mean             =   3.5969340105636E-02
(PID.TID 0000.0001) %MON dynstat_eta_sd               =   6.0934230487542E-01
(PID.TID 0000.0001) %MON dynstat_eta_del2             =   1.3095337548661E-03
(PID.TID 0000.0001) %MON dynstat_uvel_max             =   2.8432519514032E-01
(PID.TID 0000.0001) %MON dynstat_uvel_min             =  -5.9109326431715E-01
(PID.TID 0000.0001) %MON dynstat_uvel_mean            =  -5.3621233980676E-04
(PID.TID 0000.0001) %MON dynstat_uvel_sd              =   1.2846119484942E-02
(PID.TID 0000.0001) %MON dynstat_uvel_del2            =   8.5231644938973E-05
(PID.TID 0000.0001) %MON dynstat_vvel_max             =   4.0486262260235E-01
(PID.TID 0000.0001) %MON dynstat_vvel_min             =  -3.5106127901841E-01
(PID.TID 0000.0001) %MON dynstat_vvel_mean            =   1.4989427196209E-04
(PID.TID 0000.0001) %MON dynstat_vvel_sd              =   1.3675006878269E-02
(PID.TID 0000.0001) %MON dynstat_vvel_del2            =   8.4788778531242E-05
(PID.TID 0000.0001) %MON dynstat_wvel_max             =   1.0751801691646E-04
(PID.TID 0000.0001) %MON dynstat_wvel_min             =  -1.9325544885176E-04
(PID.TID 0000.0001) %MON dynstat_wvel_mean            =  -4.5393726319190E-08
(PID.TID 0000.0001) %MON dynstat_wvel_sd              =   7.6297501821100E-06
(PID.TID 0000.0001) %MON dynstat_wvel_del2            =   6.3918112068474E-08
(PID.TID 0000.0001) %MON dynstat_theta_max            =   3.0917280021259E+01
(PID.TID 0000.0001) %MON dynstat_theta_min            =  -3.0225435898903E+00
(PID.TID 0000.0001) %MON dynstat_theta_mean           =   3.9092457666643E+00
(PID.TID 0000.0001) %MON dynstat_theta_sd             =   4.5718160809573E+00
(PID.TID 0000.0001) %MON dynstat_theta_del2           =   2.6371939062087E-03
(PID.TID 0000.0001) %MON dynstat_salt_max             =   4.1347037222257E+01
(PID.TID 0000.0001) %MON dynstat_salt_min             =   1.8519344721829E+01
(PID.TID 0000.0001) %MON dynstat_salt_mean            =   3.4771880417240E+01
(PID.TID 0000.0001) %MON dynstat_salt_sd              =   5.3237593102121E-01
(PID.TID 0000.0001) %MON dynstat_salt_del2            =   1.1551978227458E-03
(PID.TID 0000.0001) %MON dynstat_sst_max              =   3.0917280021259E+01
(PID.TID 0000.0001) %MON dynstat_sst_min              =  -1.8971292250631E+00
(PID.TID 0000.0001) %MON dynstat_sst_mean             =   1.8111256362145E+01
(PID.TID 0000.0001) %MON dynstat_sst_sd               =   9.8160144063953E+00
(PID.TID 0000.0001) %MON dynstat_sst_del2             =   1.4948253260385E-02
(PID.TID 0000.0001) %MON dynstat_sss_max              =   4.1347037222257E+01
(PID.TID 0000.0001) %MON dynstat_sss_min              =   1.8752603631241E+01
(PID.TID 0000.0001) %MON dynstat_sss_mean             =   3.4618997640757E+01
(PID.TID 0000.0001) %MON dynstat_sss_sd               =   1.4931673986058E+00
(PID.TID 0000.0001) %MON dynstat_sss_del2             =   1.3158680128602E-02
(PID.TID 0000.0001) %MON forcing_qnet_max             =   1.2942389374958E+03
(PID.TID 0000.0001) %MON forcing_qnet_min             =  -7.4618809422814E+02
(PID.TID 0000.0001) %MON forcing_qnet_mean            =  -4.9471810836758E+01
(PID.TID 0000.0001) %MON forcing_qnet_sd              =   2.0874403533328E+02
(PID.TID 0000.0001) %MON forcing_qnet_del2            =   3.1304735655486E+00
(PID.TID 0000.0001) %MON forcing_qsw_max              =   0.0000000000000E+00
(PID.TID 0000.0001) %MON forcing_qsw_min              =  -1.0198743035344E+02
(PID.TID 0000.0001) %MON forcing_qsw_mean             =  -2.1717408340844E+01
(PID.TID 0000.0001) %MON forcing_qsw_sd               =   3.0355991549873E+01
(PID.TID 0000.0001) %MON forcing_qsw_del2             =   2.3196244551324E-01
(PID.TID 0000.0001) %MON forcing_empmr_max            =   4.1468315757811E-03
(PID.TID 0000.0001) %MON forcing_empmr_min            =  -5.9629678726196E-02
(PID.TID 0000.0001) %MON forcing_empmr_mean           =  -1.8302790484486E-04
(PID.TID 0000.0001) %MON forcing_empmr_sd             =   2.6317463510638E-03
(PID.TID 0000.0001) %MON forcing_empmr_del2           =   1.0325797089138E-04
(PID.TID 0000.0001) %MON forcing_fu_max               =   2.3543808272524E-01
(PID.TID 0000.0001) %MON forcing_fu_min               =  -3.3525220036271E-01
(PID.TID 0000.0001) %MON forcing_fu_mean              =  -5.5571388638304E-03
(PID.TID 0000.0001) %MON forcing_fu_sd                =   5.4820136513793E-02
(PID.TID 0000.0001) %MON forcing_fu_del2              =   5.5254767038043E-04
(PID.TID 0000.0001) %MON forcing_fv_max               =   2.3614633801908E-01
(PID.TID 0000.0001) %MON forcing_fv_min               =  -2.4680161935940E-01
(PID.TID 0000.0001) %MON forcing_fv_mean              =  -1.4931719450363E-02
(PID.TID 0000.0001) %MON forcing_fv_sd                =   5.8282650139930E-02
(PID.TID 0000.0001) %MON forcing_fv_del2              =   4.9168275784174E-04
(PID.TID 0000.0001) %MON trAdv_CFL_u_max              =   1.7137902702101E-03
(PID.TID 0000.0001) %MON trAdv_CFL_v_max              =   1.4847167511699E-03
(PID.TID 0000.0001) %MON trAdv_CFL_w_max              =   1.2201372379642E-03
(PID.TID 0000.0001) %MON advcfl_uvel_max              =   1.6929819137149E-03
(PID.TID 0000.0001) %MON advcfl_vvel_max              =   1.4335959738989E-03
(PID.TID 0000.0001) %MON advcfl_wvel_max              =   2.0740757817807E-03
(PID.TID 0000.0001) %MON advcfl_W_hf_max              =   1.2616940622906E-03
(PID.TID 0000.0001) %MON pe_b_mean                    =   4.9635635411216E-04
(PID.TID 0000.0001) %MON ke_max                       =   1.7557789939136E-01
(PID.TID 0000.0001) %MON ke_mean                      =   1.6271570665082E-04
(PID.TID 0000.0001) %MON ke_vol                       =   1.3398154762143E+18
(PID.TID 0000.0001) %MON vort_r_min                   =  -2.6836002376872E-06
(PID.TID 0000.0001) %MON vort_r_max                   =   2.2232308133419E-06
(PID.TID 0000.0001) %MON vort_a_mean                  =  -2.0549865324846E-05
(PID.TID 0000.0001) %MON vort_a_sd                    =   7.5259656586855E-05
(PID.TID 0000.0001) %MON vort_p_mean                  =  -2.4783223858055E-05
(PID.TID 0000.0001) %MON vort_p_sd                    =   1.2811923834404E-04
(PID.TID 0000.0001) %MON surfExpan_theta_mean         =  -3.6613035826258E-06
(PID.TID 0000.0001) %MON surfExpan_salt_mean          =   7.7866886398161E-07
(PID.TID 0000.0001) // =======================================================
(PID.TID 0000.0001) // End MONITOR dynamic field statistics
(PID.TID 0000.0001) // =======================================================
(PID.TID 0000.0001) %CHECKPOINT     72096 ckptA
