(PID.TID 0000.0001) 
(PID.TID 0000.0001) // ======================================================
(PID.TID 0000.0001) //                      MITgcm UV
(PID.TID 0000.0001) //                      =========
(PID.TID 0000.0001) // ======================================================
(PID.TID 0000.0001) // execution environment starting up...
(PID.TID 0000.0001) 
(PID.TID 0000.0001) // MITgcmUV version:  checkpoint67e
(PID.TID 0000.0001) // Build user:        dmenemen
(PID.TID 0000.0001) // Build host:        r437i4n16
(PID.TID 0000.0001) // Build date:        Tue Oct 30 13:10:23 PDT 2018
(PID.TID 0000.0001) 
(PID.TID 0000.0001) // =======================================================
(PID.TID 0000.0001) // Execution Environment parameter file "eedata"
(PID.TID 0000.0001) // =======================================================
(PID.TID 0000.0001) ># Example "eedata" file
(PID.TID 0000.0001) ># Lines beginning "#" are comments
(PID.TID 0000.0001) ># nTx - No. threads per process in X
(PID.TID 0000.0001) ># nTy - No. threads per process in Y
(PID.TID 0000.0001) > &EEPARMS
(PID.TID 0000.0001) > useCubedSphereExchange=.TRUE.,
(PID.TID 0000.0001) > nTx=1,
(PID.TID 0000.0001) > nTy=1,
(PID.TID 0000.0001) >#debugMode=.TRUE.,
(PID.TID 0000.0001) > &
(PID.TID 0000.0001) ># Note: Some systems use & as the namelist terminator (as shown here).
(PID.TID 0000.0001) >#       Other systems use a / character.
(PID.TID 0000.0001) 
(PID.TID 0000.0001) // =======================================================
(PID.TID 0000.0001) // Computational Grid Specification ( see files "SIZE.h" )
(PID.TID 0000.0001) //                                  ( and "eedata"       )
(PID.TID 0000.0001) // =======================================================
(PID.TID 0000.0001)      nPx =    6 ; /* No. processes in X */
(PID.TID 0000.0001)      nPy =    1 ; /* No. processes in Y */
(PID.TID 0000.0001)      nSx =    1 ; /* No. tiles in X per process */
(PID.TID 0000.0001)      nSy =    1 ; /* No. tiles in Y per process */
(PID.TID 0000.0001)      sNx =   32 ; /* Tile size in X */
(PID.TID 0000.0001)      sNy =   32 ; /* Tile size in Y */
(PID.TID 0000.0001)      OLx =    4 ; /* Tile overlap distance in X */
(PID.TID 0000.0001)      OLy =    4 ; /* Tile overlap distance in Y */
(PID.TID 0000.0001)      nTx =    1 ; /* No. threads in X per process */
(PID.TID 0000.0001)      nTy =    1 ; /* No. threads in Y per process */
(PID.TID 0000.0001)       Nr =   15 ; /* No. levels in the vertical   */
(PID.TID 0000.0001)       Nx =  192 ; /* Total domain size in X ( = nPx*nSx*sNx ) */
(PID.TID 0000.0001)       Ny =   32 ; /* Total domain size in Y ( = nPy*nSy*sNy ) */
(PID.TID 0000.0001)   nTiles =    1 ; /* Total no. tiles per process ( = nSx*nSy ) */
(PID.TID 0000.0001)   nProcs =    6 ; /* Total no. processes ( = nPx*nPy ) */
(PID.TID 0000.0001) nThreads =    1 ; /* Total no. threads per process ( = nTx*nTy ) */
(PID.TID 0000.0001) usingMPI =    T ; /* Flag used to control whether MPI is in use */
(PID.TID 0000.0001)                   /*  note: To execute a program with MPI calls */
(PID.TID 0000.0001)                   /*  it must be launched appropriately e.g     */
(PID.TID 0000.0001)                   /*  "mpirun -np 64 ......"                    */
(PID.TID 0000.0001) useCoupler=    F ;/* Flag used to control communications with   */
(PID.TID 0000.0001)                   /*  other model components, through a coupler */
(PID.TID 0000.0001) debugMode =    F ; /* print debug msg. (sequence of S/R calls)  */
(PID.TID 0000.0001) printMapIncludesZeros=    F ; /* print zeros in Std.Output maps */
(PID.TID 0000.0001) maxLengthPrt1D=   65 /* maxLength of 1D array printed to StdOut */
(PID.TID 0000.0001) 
(PID.TID 0000.0001) ======= Starting MPI parallel Run =========
(PID.TID 0000.0001)  My Processor Name (len:  9 ) = r437i4n16
(PID.TID 0000.0001)  Located at (  0,  0) on processor grid (0:  5,0:  0)
(PID.TID 0000.0001)  Origin at  (     1,     1) on global grid (1:   192,1:    32)
(PID.TID 0000.0001)  North neighbor = processor 0000
(PID.TID 0000.0001)  South neighbor = processor 0000
(PID.TID 0000.0001)   East neighbor = processor 0001
(PID.TID 0000.0001)   West neighbor = processor 0005
(PID.TID 0000.0001) // ======================================================
(PID.TID 0000.0001) // Mapping of tiles to threads
(PID.TID 0000.0001) // ======================================================
(PID.TID 0000.0001) // -o- Thread   1, tiles (   1:   1,   1:   1)
(PID.TID 0000.0001) 
(PID.TID 0000.0001) W2_READPARMS: file data.exch2 not found
(PID.TID 0000.0001) => use W2_EXCH2 default: regular 6-facets Cube
(PID.TID 0000.0001) W2_useE2ioLayOut=    T ;/* T: use Exch2 glob IO map; F: use model default */
(PID.TID 0000.0001) W2_mapIO        =  -1 ; /* select option for Exch2 global-IO map */
(PID.TID 0000.0001) W2_printMsg     =  -1 ; /* select option for printing information */
(PID.TID 0000.0001) ===== Start setting W2 TOPOLOGY:
(PID.TID 0000.0001)  write to log-file: w2_tile_topology.0000.log
(PID.TID 0000.0001) =====       setting W2 TOPOLOGY: Done
(PID.TID 0000.0001) 
(PID.TID 0000.0001)  INI_PARMS: opening model parameter file "data"
(PID.TID 0000.0001)  OPEN_COPY_DATA_FILE: opening file data
(PID.TID 0000.0001) // =======================================================
(PID.TID 0000.0001) // Parameter file "data"
(PID.TID 0000.0001) // =======================================================
(PID.TID 0000.0001) ># ====================
(PID.TID 0000.0001) ># | Model parameters |
(PID.TID 0000.0001) ># ====================
(PID.TID 0000.0001) >#
(PID.TID 0000.0001) ># Continuous equation parameters
(PID.TID 0000.0001) > &PARM01
(PID.TID 0000.0001) > tRef=15*20.,
(PID.TID 0000.0001) > sRef=15*35.,
(PID.TID 0000.0001) > viscAh =3.E5,
(PID.TID 0000.0001) > viscAr =1.E-3,
(PID.TID 0000.0001) > diffKrT=3.E-5,
(PID.TID 0000.0001) > diffKrS=3.E-5,
(PID.TID 0000.0001) > ivdc_kappa=10.,
(PID.TID 0000.0001) > implicitDiffusion=.TRUE.,
(PID.TID 0000.0001) > rhonil=1035.,
(PID.TID 0000.0001) > rhoConstFresh=1000.,
(PID.TID 0000.0001) > eosType='JMD95Z',
(PID.TID 0000.0001) > staggerTimeStep=.TRUE.,
(PID.TID 0000.0001) > vectorInvariantMomentum=.TRUE.,
(PID.TID 0000.0001) > implicitFreeSurface=.TRUE.,
(PID.TID 0000.0001) > exactConserv=.TRUE.,
(PID.TID 0000.0001) > select_rStar=2,
(PID.TID 0000.0001) > nonlinFreeSurf=4,
(PID.TID 0000.0001) > useRealFreshWaterFlux=.TRUE.,
(PID.TID 0000.0001) > allowFreezing=.TRUE.,
(PID.TID 0000.0001) > hFacMin=.1,
(PID.TID 0000.0001) > hFacMinDr=20.,
(PID.TID 0000.0001) > readBinaryPrec=64,
(PID.TID 0000.0001) > useSingleCpuIo=.TRUE.,
(PID.TID 0000.0001) > debugLevel=2,
(PID.TID 0000.0001) > &
(PID.TID 0000.0001) >
(PID.TID 0000.0001) ># Elliptic solver parameters
(PID.TID 0000.0001) > &PARM02
(PID.TID 0000.0001) > &
(PID.TID 0000.0001) >
(PID.TID 0000.0001) ># Time stepping parameters
(PID.TID 0000.0001) > &PARM03
(PID.TID 0000.0001) > nIter0           = 72000,
(PID.TID 0000.0001) >  nTimeSteps       = 96,
(PID.TID 0000.0001) > deltaT           = 900.,
(PID.TID 0000.0001) > monitorFreq      = 1.,
(PID.TID 0000.0001) > abEps            = 0.1,
(PID.TID 0000.0001) > tracForcingOutAB = 1,
(PID.TID 0000.0001) > &
(PID.TID 0000.0001) >
(PID.TID 0000.0001) ># Gridding parameters
(PID.TID 0000.0001) > &PARM04
(PID.TID 0000.0001) > usingCurvilinearGrid=.TRUE.,
(PID.TID 0000.0001) > horizGridFile='grid_cs32',
(PID.TID 0000.0001) > delR= 50., 70., 100., 140., 190.,
(PID.TID 0000.0001) >       240., 290., 340., 390., 440.,
(PID.TID 0000.0001) >       490., 540., 590., 640., 690.,
(PID.TID 0000.0001) > &
(PID.TID 0000.0001) >
(PID.TID 0000.0001) ># Input datasets
(PID.TID 0000.0001) > &PARM05
(PID.TID 0000.0001) > bathyFile      ='bathy_Hmin50.bin',
(PID.TID 0000.0001) > &
(PID.TID 0000.0001) 
(PID.TID 0000.0001)  INI_PARMS ; starts to read PARM01
(PID.TID 0000.0001)  INI_PARMS ; read PARM01 : OK
(PID.TID 0000.0001)  INI_PARMS ; starts to read PARM02
(PID.TID 0000.0001)  INI_PARMS ; read PARM02 : OK
(PID.TID 0000.0001)  INI_PARMS ; starts to read PARM03
(PID.TID 0000.0001)  INI_PARMS ; read PARM03 : OK
(PID.TID 0000.0001)  INI_PARMS ; starts to read PARM04
(PID.TID 0000.0001)  INI_PARMS ; read PARM04 : OK
(PID.TID 0000.0001)  INI_PARMS ; starts to read PARM05
(PID.TID 0000.0001)  INI_PARMS ; read PARM05 : OK
(PID.TID 0000.0001)  INI_PARMS: finished reading file "data"
(PID.TID 0000.0001)  PACKAGES_BOOT: opening data.pkg
(PID.TID 0000.0001)  OPEN_COPY_DATA_FILE: opening file data.pkg
(PID.TID 0000.0001) // =======================================================
(PID.TID 0000.0001) // Parameter file "data.pkg"
(PID.TID 0000.0001) // =======================================================
(PID.TID 0000.0001) ># Packages
(PID.TID 0000.0001) > &PACKAGES
(PID.TID 0000.0001) > useGMRedi=.TRUE.,
(PID.TID 0000.0001) > useDiagnostics=.TRUE.,
(PID.TID 0000.0001) > &
(PID.TID 0000.0001) 
(PID.TID 0000.0001)  PACKAGES_BOOT: finished reading data.pkg
(PID.TID 0000.0001)  PACKAGES_BOOT: On/Off package Summary
 --------  pkgs with a standard "usePKG" On/Off switch in "data.pkg":  --------
 pkg/gmredi               compiled   and   used ( useGMRedi                = T )
 pkg/bulk_force           compiled but not used ( useBulkForce             = F )
 pkg/diagnostics          compiled   and   used ( useDiagnostics           = T )
 -------- pkgs without standard "usePKG" On/Off switch in "data.pkg":  --------
 pkg/generic_advdiff      compiled   and   used ( useGAD                   = T )
 pkg/mom_common           compiled   and   used ( momStepping              = T )
 pkg/mom_vecinv           compiled   and   used ( +vectorInvariantMomentum = T )
 pkg/mom_fluxform         compiled but not used ( & not vectorInvariantMom = F )
 pkg/monitor              compiled   and   used ( monitorFreq > 0.         = T )
 pkg/timeave              compiled but not used ( taveFreq > 0.            = F )
 pkg/debug                compiled but not used ( debugMode                = F )
 pkg/exch2                compiled   and   used
 pkg/rw                   compiled   and   used
 pkg/mdsio                compiled   and   used
(PID.TID 0000.0001)  PACKAGES_BOOT: End of package Summary
(PID.TID 0000.0001) 
(PID.TID 0000.0001)  GM_READPARMS: opening data.gmredi
(PID.TID 0000.0001)  OPEN_COPY_DATA_FILE: opening file data.gmredi
(PID.TID 0000.0001) // =======================================================
(PID.TID 0000.0001) // Parameter file "data.gmredi"
(PID.TID 0000.0001) // =======================================================
(PID.TID 0000.0001) ># GM+Redi package parameters:
(PID.TID 0000.0001) >
(PID.TID 0000.0001) >#-from MOM :
(PID.TID 0000.0001) ># GM_background_K: 	G & Mc.W  diffusion coefficient
(PID.TID 0000.0001) ># GM_maxSlope    :	max slope of isopycnals
(PID.TID 0000.0001) ># GM_Scrit       :	transition for scaling diffusion coefficient
(PID.TID 0000.0001) ># GM_Sd          :	half width scaling for diffusion coefficient
(PID.TID 0000.0001) ># GM_taper_scheme:	slope clipping or one of the tapering schemes
(PID.TID 0000.0001) ># GM_Kmin_horiz  :	horizontal diffusion minimum value
(PID.TID 0000.0001) >
(PID.TID 0000.0001) >#-Option parameters (needs to "define" options in GMREDI_OPTIONS.h")
(PID.TID 0000.0001) ># GM_isopycK     :	isopycnal diffusion coefficient (default=GM_background_K)
(PID.TID 0000.0001) ># GM_AdvForm     :	turn on GM Advective form       (default=Skew flux form)
(PID.TID 0000.0001) >
(PID.TID 0000.0001) > &GM_PARM01
(PID.TID 0000.0001) >  GM_background_K    = 800.,
(PID.TID 0000.0001) >  GM_taper_scheme    = 'gkw91',
(PID.TID 0000.0001) >  GM_maxSlope        = 1.e-2,
(PID.TID 0000.0001) >  GM_Kmin_horiz      = 50.,
(PID.TID 0000.0001) >  GM_Scrit           = 4.e-3,
(PID.TID 0000.0001) >  GM_Sd              = 1.e-3,
(PID.TID 0000.0001) ># GM_Visbeck_alpha   = 0.,
(PID.TID 0000.0001) ># GM_Visbeck_length  = 2.e+5,
(PID.TID 0000.0001) ># GM_Visbeck_depth   = 1.e+3,
(PID.TID 0000.0001) ># GM_Visbeck_maxval_K= 2.5e+3,
(PID.TID 0000.0001) > &
(PID.TID 0000.0001) >
(PID.TID 0000.0001) >
(PID.TID 0000.0001) 
(PID.TID 0000.0001)  GM_READPARMS: finished reading data.gmredi
(PID.TID 0000.0001)  DIAGNOSTICS_READPARMS: opening data.diagnostics
(PID.TID 0000.0001)  OPEN_COPY_DATA_FILE: opening file data.diagnostics
(PID.TID 0000.0001) // =======================================================
(PID.TID 0000.0001) // Parameter file "data.diagnostics"
(PID.TID 0000.0001) // =======================================================
(PID.TID 0000.0001) ># Diagnostic Package Choices
(PID.TID 0000.0001) >#--------------------
(PID.TID 0000.0001) >#  dumpAtLast (logical): always write output at the end of simulation (default=F)
(PID.TID 0000.0001) >#  diag_mnc   (logical): write to NetCDF files (default=useMNC)
(PID.TID 0000.0001) >#--for each output-stream:
(PID.TID 0000.0001) >#  fileName(n) : prefix of the output file name (max 80c long) for outp.stream n
(PID.TID 0000.0001) >#  frequency(n):< 0 : write snap-shot output every |frequency| seconds
(PID.TID 0000.0001) >#               > 0 : write time-average output every frequency seconds
(PID.TID 0000.0001) >#  timePhase(n)     : write at time = timePhase + multiple of |frequency|
(PID.TID 0000.0001) >#    averagingFreq  : frequency (in s) for periodic averaging interval
(PID.TID 0000.0001) >#    averagingPhase : phase     (in s) for periodic averaging interval
(PID.TID 0000.0001) >#    repeatCycle    : number of averaging intervals in 1 cycle
(PID.TID 0000.0001) >#  levels(:,n) : list of levels to write to file (Notes: declared as REAL)
(PID.TID 0000.0001) >#                when this entry is missing, select all common levels of this list
(PID.TID 0000.0001) >#  fields(:,n) : list of selected diagnostics fields (8.c) in outp.stream n
(PID.TID 0000.0001) >#                (see "available_diagnostics.log" file for the full list of diags)
(PID.TID 0000.0001) >#  missing_value(n) : missing value for real-type fields in output file "n"
(PID.TID 0000.0001) >#  fileFlags(n)     : specific code (8c string) for output file "n"
(PID.TID 0000.0001) >#--------------------
(PID.TID 0000.0001) ># oceTAUX  zonal surface wind stress, >0 increases uVel (N/m^2)
(PID.TID 0000.0001) ># oceTAUY  meridional surf. wind stress, >0 increases vVel (N/m^2)
(PID.TID 0000.0001) ># oceFWflx net surface Fresh-Water flux into ocean, >0 decreases salinity (kg/m^2/s)
(PID.TID 0000.0001) ># oceSflux net surface Salt flux into the ocean, >0 increases salinity (g/m^2/s)
(PID.TID 0000.0001) ># oceQnet  net surface heat flux into the ocean, >0 increases theta (W/m^2)
(PID.TID 0000.0001) ># oceQsw   net Short-Wave radiation (+=down), >0 increases theta (W/m^2)
(PID.TID 0000.0001) ># SSS      Sea Surface Salinity (g/kg)
(PID.TID 0000.0001) ># SST      Sea Surface Temperature (degC)
(PID.TID 0000.0001) ># UVEL1    Zonal Surface Velocity (m/s)
(PID.TID 0000.0001) ># VVEL1    Meridional Surface Velocity (m/s)
(PID.TID 0000.0001) >
(PID.TID 0000.0001) > &DIAGNOSTICS_LIST
(PID.TID 0000.0001) >   frequency(1)  = -3600.,
(PID.TID 0000.0001) >    fields(1,1)  = 'oceTAUX ',
(PID.TID 0000.0001) >    filename(1)  = 'oceTAUX',
(PID.TID 0000.0001) >   frequency(2)  = -3600.,
(PID.TID 0000.0001) >    fields(1,2)  = 'oceTAUY ',
(PID.TID 0000.0001) >    filename(2)  = 'oceTAUY',
(PID.TID 0000.0001) >   frequency(3)  = -3600.,
(PID.TID 0000.0001) >    fields(1,3)  = 'oceFWflx',
(PID.TID 0000.0001) >    filename(3)  = 'oceFWflx',
(PID.TID 0000.0001) >   frequency(4)  = -3600.,
(PID.TID 0000.0001) >    fields(1,4)  = 'oceSflux',
(PID.TID 0000.0001) >    filename(4)  = 'oceSflux',
(PID.TID 0000.0001) >   frequency(5)  = -3600.,
(PID.TID 0000.0001) >    fields(1,5)  = 'oceQnet ',
(PID.TID 0000.0001) >    filename(5)  = 'oceQnet',
(PID.TID 0000.0001) >   frequency(6)  = -3600.,
(PID.TID 0000.0001) >    fields(1,6)  = 'oceQsw  ',
(PID.TID 0000.0001) >    filename(6)  = 'oceQsw',
(PID.TID 0000.0001) >   frequency(7)  = -3600.,
(PID.TID 0000.0001) >    fields(1,7)  = 'SALT    ',
(PID.TID 0000.0001) >    levels(1,7)  = 1.,
(PID.TID 0000.0001) >    filename(7)  = 'SSS',
(PID.TID 0000.0001) >   frequency(8)  = -3600.,
(PID.TID 0000.0001) >    fields(1,8)  = 'THETA   ',
(PID.TID 0000.0001) >    levels(1,8)  = 1.,
(PID.TID 0000.0001) >    filename(8)  = 'SST',
(PID.TID 0000.0001) >   frequency(9)  = -3600.,
(PID.TID 0000.0001) >    fields(1,9)  = 'UVELMASS',
(PID.TID 0000.0001) >    levels(1,9)  = 1.,
(PID.TID 0000.0001) >    filename(9)  = 'UVEL1',
(PID.TID 0000.0001) >   frequency(10) = -3600.,
(PID.TID 0000.0001) >    fields(1,10) = 'VVELMASS',
(PID.TID 0000.0001) >    levels(1,10) = 1.,
(PID.TID 0000.0001) >    filename(10) = 'VVEL1',
(PID.TID 0000.0001) >   frequency(11) = -3600.,
(PID.TID 0000.0001) >    fields(1,11) = 'atmPload',
(PID.TID 0000.0001) >    filename(11) = 'atmPload',
(PID.TID 0000.0001) > &
(PID.TID 0000.0001) >
(PID.TID 0000.0001) > &DIAG_STATIS_PARMS
(PID.TID 0000.0001) > &
(PID.TID 0000.0001) 
(PID.TID 0000.0001) S/R DIAGNOSTICS_READPARMS, read namelist "diagnostics_list": start
(PID.TID 0000.0001) S/R DIAGNOSTICS_READPARMS, read namelist "diagnostics_list": OK
(PID.TID 0000.0001) S/R DIAGNOSTICS_READPARMS, read namelist "DIAG_STATIS_PARMS": start
(PID.TID 0000.0001) S/R DIAGNOSTICS_READPARMS, read namelist "DIAG_STATIS_PARMS": OK
(PID.TID 0000.0001)  DIAGNOSTICS_READPARMS: global parameter summary:
(PID.TID 0000.0001)  dumpAtLast = /* always write time-ave diags at the end */
(PID.TID 0000.0001)                   F
(PID.TID 0000.0001)     ;
(PID.TID 0000.0001)  diag_mnc =   /* write NetCDF output files */
(PID.TID 0000.0001)                   F
(PID.TID 0000.0001)     ;
(PID.TID 0000.0001)  useMissingValue = /* put MissingValue where mask = 0 */
(PID.TID 0000.0001)                   F
(PID.TID 0000.0001)     ;
(PID.TID 0000.0001)  diagCG_maxIters = /* max number of iters in diag_cg2d */
(PID.TID 0000.0001)                     150
(PID.TID 0000.0001)     ;
(PID.TID 0000.0001)  diagCG_resTarget = /* residual target for diag_cg2d */
(PID.TID 0000.0001)                 1.000000000000000E-07
(PID.TID 0000.0001)     ;
(PID.TID 0000.0001)  diagCG_pcOffDFac = /* preconditioner off-diagonal factor */
(PID.TID 0000.0001)                 9.611687812379854E-01
(PID.TID 0000.0001)     ;
(PID.TID 0000.0001) -----------------------------------------------------
(PID.TID 0000.0001)  DIAGNOSTICS_READPARMS: active diagnostics summary:
(PID.TID 0000.0001) -----------------------------------------------------
(PID.TID 0000.0001) Creating Output Stream: oceTAUX
(PID.TID 0000.0001) Output Frequency:      -3600.000000 ; Phase:        1800.000000
(PID.TID 0000.0001)  Averaging Freq.:          0.000000 , Phase:           0.000000 , Cycle:   1
(PID.TID 0000.0001)  missing value: -9.990000000000E+02
(PID.TID 0000.0001)  Levels:    will be set later
(PID.TID 0000.0001)  Fields:    oceTAUX
(PID.TID 0000.0001) Creating Output Stream: oceTAUY
(PID.TID 0000.0001) Output Frequency:      -3600.000000 ; Phase:        1800.000000
(PID.TID 0000.0001)  Averaging Freq.:          0.000000 , Phase:           0.000000 , Cycle:   1
(PID.TID 0000.0001)  missing value: -9.990000000000E+02
(PID.TID 0000.0001)  Levels:    will be set later
(PID.TID 0000.0001)  Fields:    oceTAUY
(PID.TID 0000.0001) Creating Output Stream: oceFWflx
(PID.TID 0000.0001) Output Frequency:      -3600.000000 ; Phase:        1800.000000
(PID.TID 0000.0001)  Averaging Freq.:          0.000000 , Phase:           0.000000 , Cycle:   1
(PID.TID 0000.0001)  missing value: -9.990000000000E+02
(PID.TID 0000.0001)  Levels:    will be set later
(PID.TID 0000.0001)  Fields:    oceFWflx
(PID.TID 0000.0001) Creating Output Stream: oceSflux
(PID.TID 0000.0001) Output Frequency:      -3600.000000 ; Phase:        1800.000000
(PID.TID 0000.0001)  Averaging Freq.:          0.000000 , Phase:           0.000000 , Cycle:   1
(PID.TID 0000.0001)  missing value: -9.990000000000E+02
(PID.TID 0000.0001)  Levels:    will be set later
(PID.TID 0000.0001)  Fields:    oceSflux
(PID.TID 0000.0001) Creating Output Stream: oceQnet
(PID.TID 0000.0001) Output Frequency:      -3600.000000 ; Phase:        1800.000000
(PID.TID 0000.0001)  Averaging Freq.:          0.000000 , Phase:           0.000000 , Cycle:   1
(PID.TID 0000.0001)  missing value: -9.990000000000E+02
(PID.TID 0000.0001)  Levels:    will be set later
(PID.TID 0000.0001)  Fields:    oceQnet
(PID.TID 0000.0001) Creating Output Stream: oceQsw
(PID.TID 0000.0001) Output Frequency:      -3600.000000 ; Phase:        1800.000000
(PID.TID 0000.0001)  Averaging Freq.:          0.000000 , Phase:           0.000000 , Cycle:   1
(PID.TID 0000.0001)  missing value: -9.990000000000E+02
(PID.TID 0000.0001)  Levels:    will be set later
(PID.TID 0000.0001)  Fields:    oceQsw
(PID.TID 0000.0001) Creating Output Stream: SSS
(PID.TID 0000.0001) Output Frequency:      -3600.000000 ; Phase:        1800.000000
(PID.TID 0000.0001)  Averaging Freq.:          0.000000 , Phase:           0.000000 , Cycle:   1
(PID.TID 0000.0001)  missing value: -9.990000000000E+02
(PID.TID 0000.0001)  Levels:       1.
(PID.TID 0000.0001)  Fields:    SALT
(PID.TID 0000.0001) Creating Output Stream: SST
(PID.TID 0000.0001) Output Frequency:      -3600.000000 ; Phase:        1800.000000
(PID.TID 0000.0001)  Averaging Freq.:          0.000000 , Phase:           0.000000 , Cycle:   1
(PID.TID 0000.0001)  missing value: -9.990000000000E+02
(PID.TID 0000.0001)  Levels:       1.
(PID.TID 0000.0001)  Fields:    THETA
(PID.TID 0000.0001) Creating Output Stream: UVEL1
(PID.TID 0000.0001) Output Frequency:      -3600.000000 ; Phase:        1800.000000
(PID.TID 0000.0001)  Averaging Freq.:          0.000000 , Phase:           0.000000 , Cycle:   1
(PID.TID 0000.0001)  missing value: -9.990000000000E+02
(PID.TID 0000.0001)  Levels:       1.
(PID.TID 0000.0001)  Fields:    UVELMASS
(PID.TID 0000.0001) Creating Output Stream: VVEL1
(PID.TID 0000.0001) Output Frequency:      -3600.000000 ; Phase:        1800.000000
(PID.TID 0000.0001)  Averaging Freq.:          0.000000 , Phase:           0.000000 , Cycle:   1
(PID.TID 0000.0001)  missing value: -9.990000000000E+02
(PID.TID 0000.0001)  Levels:       1.
(PID.TID 0000.0001)  Fields:    VVELMASS
(PID.TID 0000.0001) Creating Output Stream: atmPload
(PID.TID 0000.0001) Output Frequency:      -3600.000000 ; Phase:        1800.000000
(PID.TID 0000.0001)  Averaging Freq.:          0.000000 , Phase:           0.000000 , Cycle:   1
(PID.TID 0000.0001)  missing value: -9.990000000000E+02
(PID.TID 0000.0001)  Levels:    will be set later
(PID.TID 0000.0001)  Fields:    atmPload
(PID.TID 0000.0001) -----------------------------------------------------
(PID.TID 0000.0001)  DIAGNOSTICS_READPARMS: statistics diags. summary:
(PID.TID 0000.0001) -----------------------------------------------------
(PID.TID 0000.0001) 
(PID.TID 0000.0001) SET_PARMS: done
(PID.TID 0000.0001) Enter INI_VERTICAL_GRID: setInterFDr=    T ; setCenterDr=    F
(PID.TID 0000.0001) tile:   1 ; Read from file grid_cs32.face001.bin
(PID.TID 0000.0001)   => xC yC dxF dyF rA xG yG dxV dyU rAz dxC dyC rAw rAs dxG dyG AngleCS AngleSN
(PID.TID 0000.0001) %MON XC_max                       =   1.7854351589505E+02
(PID.TID 0000.0001) %MON XC_min                       =  -1.7854351589505E+02
(PID.TID 0000.0001) %MON XC_mean                      =  -4.6999441375798E-15
(PID.TID 0000.0001) %MON XC_sd                        =   1.0355545336287E+02
(PID.TID 0000.0001) %MON XG_max                       =   1.8000000000000E+02
(PID.TID 0000.0001) %MON XG_min                       =  -1.7708797161002E+02
(PID.TID 0000.0001) %MON XG_mean                      =   1.8603515625000E+00
(PID.TID 0000.0001) %MON XG_sd                        =   1.0357130300504E+02
(PID.TID 0000.0001) %MON DXC_max                      =   3.2375185836900E+05
(PID.TID 0000.0001) %MON DXC_min                      =   1.1142031410131E+05
(PID.TID 0000.0001) %MON DXC_mean                     =   2.8605689051214E+05
(PID.TID 0000.0001) %MON DXC_sd                       =   3.4042087138252E+04
(PID.TID 0000.0001) %MON DXF_max                      =   3.2369947500827E+05
(PID.TID 0000.0001) %MON DXF_min                      =   1.2020820513318E+05
(PID.TID 0000.0001) %MON DXF_mean                     =   2.8605437324820E+05
(PID.TID 0000.0001) %MON DXF_sd                       =   3.4050524252539E+04
(PID.TID 0000.0001) %MON DXG_max                      =   3.2375195872773E+05
(PID.TID 0000.0001) %MON DXG_min                      =   1.0098378008791E+05
(PID.TID 0000.0001) %MON DXG_mean                     =   2.8603818508931E+05
(PID.TID 0000.0001) %MON DXG_sd                       =   3.4140406908005E+04
(PID.TID 0000.0001) %MON DXV_max                      =   3.2380418162750E+05
(PID.TID 0000.0001) %MON DXV_min                      =   8.0152299824136E+04
(PID.TID 0000.0001) %MON DXV_mean                     =   2.8603970633619E+05
(PID.TID 0000.0001) %MON DXV_sd                       =   3.4145142117723E+04
(PID.TID 0000.0001) %MON YC_max                       =   8.7940663871962E+01
(PID.TID 0000.0001) %MON YC_min                       =  -8.7940663871962E+01
(PID.TID 0000.0001) %MON YC_mean                      =   0.0000000000000E+00
(PID.TID 0000.0001) %MON YC_sd                        =   3.8676242969072E+01
(PID.TID 0000.0001) %MON YG_max                       =   9.0000000000000E+01
(PID.TID 0000.0001) %MON YG_min                       =  -9.0000000000000E+01
(PID.TID 0000.0001) %MON YG_mean                      =  -1.1842378929335E-15
(PID.TID 0000.0001) %MON YG_sd                        =   3.8676895860710E+01
(PID.TID 0000.0001) %MON DYC_max                      =   3.2375185836900E+05
(PID.TID 0000.0001) %MON DYC_min                      =   1.1142031410131E+05
(PID.TID 0000.0001) %MON DYC_mean                     =   2.8605689051214E+05
(PID.TID 0000.0001) %MON DYC_sd                       =   3.4042087138252E+04
(PID.TID 0000.0001) %MON DYF_max                      =   3.2369947500827E+05
(PID.TID 0000.0001) %MON DYF_min                      =   1.2020820513318E+05
(PID.TID 0000.0001) %MON DYF_mean                     =   2.8605437324820E+05
(PID.TID 0000.0001) %MON DYF_sd                       =   3.4050524252539E+04
(PID.TID 0000.0001) %MON DYG_max                      =   3.2375195872773E+05
(PID.TID 0000.0001) %MON DYG_min                      =   1.0098378008791E+05
(PID.TID 0000.0001) %MON DYG_mean                     =   2.8603818508931E+05
(PID.TID 0000.0001) %MON DYG_sd                       =   3.4140406908005E+04
(PID.TID 0000.0001) %MON DYU_max                      =   3.2380418162750E+05
(PID.TID 0000.0001) %MON DYU_min                      =   8.0152299824136E+04
(PID.TID 0000.0001) %MON DYU_mean                     =   2.8603970633619E+05
(PID.TID 0000.0001) %MON DYU_sd                       =   3.4145142117723E+04
(PID.TID 0000.0001) %MON RA_max                       =   1.0479260248419E+11
(PID.TID 0000.0001) %MON RA_min                       =   1.4019007022556E+10
(PID.TID 0000.0001) %MON RA_mean                      =   8.2992246709265E+10
(PID.TID 0000.0001) %MON RA_sd                        =   1.7509089299457E+10
(PID.TID 0000.0001) %MON RAW_max                      =   1.0480965274559E+11
(PID.TID 0000.0001) %MON RAW_min                      =   1.2166903467143E+10
(PID.TID 0000.0001) %MON RAW_mean                     =   8.2992246709235E+10
(PID.TID 0000.0001) %MON RAW_sd                       =   1.7481917919656E+10
(PID.TID 0000.0001) %MON RAS_max                      =   1.0480965274559E+11
(PID.TID 0000.0001) %MON RAS_min                      =   1.2166903467143E+10
(PID.TID 0000.0001) %MON RAS_mean                     =   8.2992246709235E+10
(PID.TID 0000.0001) %MON RAS_sd                       =   1.7481917919656E+10
(PID.TID 0000.0001) %MON RAZ_max                      =   1.0484349334619E+11
(PID.TID 0000.0001) %MON RAZ_min                      =   8.8317900612505E+09
(PID.TID 0000.0001) %MON RAZ_mean                     =   8.2992246709235E+10
(PID.TID 0000.0001) %MON RAZ_sd                       =   1.7482297311044E+10
(PID.TID 0000.0001) %MON AngleCS_max                  =   9.9999994756719E-01
(PID.TID 0000.0001) %MON AngleCS_min                  =  -9.9968286884824E-01
(PID.TID 0000.0001) %MON AngleCS_mean                 =   3.3078922539000E-01
(PID.TID 0000.0001) %MON AngleCS_sd                   =   6.2496278958502E-01
(PID.TID 0000.0001) %MON AngleSN_max                  =   9.9968286884824E-01
(PID.TID 0000.0001) %MON AngleSN_min                  =  -9.9999994756719E-01
(PID.TID 0000.0001) %MON AngleSN_mean                 =  -3.3078922539000E-01
(PID.TID 0000.0001) %MON AngleSN_sd                   =   6.2496278958502E-01
(PID.TID 0000.0001)  MDS_READ_FIELD: opening global file: bathy_Hmin50.bin
(PID.TID 0000.0001) // =======================================================
(PID.TID 0000.0001) // Field Model R_low (ini_masks_etc)
(PID.TID 0000.0001) // CMIN =         -5.200000000000000E+03
(PID.TID 0000.0001) // CMAX =         -5.000000000000000E+01
(PID.TID 0000.0001) // CINT =          1.907407407407407E+02
(PID.TID 0000.0001) // SYMBOLS (CMIN->CMAX): -abcdefghijklmnopqrstuvwxyz+
(PID.TID 0000.0001) //                  0.0: .
(PID.TID 0000.0001) // RANGE I (Lo:Hi:Step):(    -3:    36:     1)
(PID.TID 0000.0001) // RANGE J (Lo:Hi:Step):(    36:    -3:    -1)
(PID.TID 0000.0001) // RANGE K (Lo:Hi:Step):(   1:   1:   1)
(PID.TID 0000.0001) // =======================================================
(PID.TID 0000.0001) K =   1
(PID.TID 0000.0001) //                I=6       I=16      I=26      I=36
(PID.TID 0000.0001) // |--J--|321012345|789012345|789012345|789012345|
(PID.TID 0000.0001) //     36 cbbc-ddcbcdehkhhmn..++..................
(PID.TID 0000.0001) //     35 dcac--cbbeefjkfefw+..........zpu........
(PID.TID 0000.0001) //     34 d--ba-abcehjnldcclz+........spps........
(PID.TID 0000.0001) //     33 --abbbccceiomkfdbbc+.......+s...........
(PID.TID 0000.0001) //     32 --bddefhhkqqlgfaakqz..v.+..+............
(PID.TID 0000.0001) //     31 abbcffijnpnqneaaat..umrr+s.z............
(PID.TID 0000.0001) //     30 --adgillkkkifcadcx.ymmqzqikvnnps........
(PID.TID 0000.0001) //     29 --cfiljigfjd--efdozy...+ximpnnuz........
(PID.TID 0000.0001) //     28 -abgkhfcccea-bdei........t..............
(PID.TID 0000.0001) //     27 -acghfbaaaa-achmy......................+
(PID.TID 0000.0001) //     26 -adhfca-----bfiv.......................+
(PID.TID 0000.0001) //     25 -achfa------ch+..................w......
(PID.TID 0000.0001) //     24 aaeifa--acbcei...................w......
(PID.TID 0000.0001) //     23 abfida-aabchjk...................zz.....
(PID.TID 0000.0001) //     22 -afhfaa---bfgi....................zz..rn
(PID.TID 0000.0001) //     21 babcgca----abe.....................ysstl
(PID.TID 0000.0001) //     20 fbbbcgfcaa-aae+.......................lc
(PID.TID 0000.0001) //     19 zmfeccdghfeegcbt......................aa
(PID.TID 0000.0001) //     18 ..wifedfkhfegbbcivlqfoz..............jaa
(PID.TID 0000.0001) //     17 ..+wfeefikhgcbbccaaacgn.............icaa
(PID.TID 0000.0001) //     16 ....wiheddeccdfhfbabdfl............jdbad
(PID.TID 0000.0001) //     15 ......ylea--acfihebcbbes..........sfcbbn
(PID.TID 0000.0001) //     14 ........c---acgkhdcc--di..........ofddch
(PID.TID 0000.0001) //     13 .......+b----cfkhec---afz.........nhfdff
(PID.TID 0000.0001) //     12 .......ec----chjhec---ag..........skiqdd
(PID.TID 0000.0001) //     11 ......pdca--achlheba--ai..........nkn.fd
(PID.TID 0000.0001) //     10 ......wfdb--achlhea---an.........uos..dc
(PID.TID 0000.0001) //      9 ......vgec---bfikca--cjl+.......+nnv.+cc
(PID.TID 0000.0001) //      8 .....zleca---afjfca--hdfz.......vkky.jce
(PID.TID 0000.0001) //      7 ...+zohec--abcfkhecbchbdx.......qiht.faa
(PID.TID 0000.0001) //      6 ..+yomfddcaabefkifdchaadt......uqdeisc--
(PID.TID 0000.0001) //      5 ..+nhgffkghccfhkhffgdaackz....uoibcimlaa
(PID.TID 0000.0001) //      4 .+ujhgfllfhdffhkfffca-aady...llnabdopfcb
(PID.TID 0000.0001) //      3 +vjggfcceeffffjlkjgaa---bfvheeln-aesphfd
(PID.TID 0000.0001) //      2 qifeecbbccddefilihecbaacbaajfega-aesqhff
(PID.TID 0000.0001) //      1 ebbbbaaaaaccdfhlhfefdcccaabjefbaaafonhgl
(PID.TID 0000.0001) //      0 -aaaaaaa-aacccfikkhecccbbbaaabaadfkllilm
(PID.TID 0000.0001) //     -1 --aaaaa----aacffiljgfffcca--adfikkiikimi
(PID.TID 0000.0001) //     -2 --aaa-------acdefinmlgiieb-chnnnmlmlfklk
(PID.TID 0000.0001) //     -3 a--a---aa---aedeegknmlgiigcdfhpokkimdkmk
(PID.TID 0000.0001) // =======================================================
(PID.TID 0000.0001) // END OF FIELD                                          =
(PID.TID 0000.0001) // =======================================================
(PID.TID 0000.0001) 
(PID.TID 0000.0001) // =======================================================
(PID.TID 0000.0001) // Field Model Ro_surf (ini_masks_etc)
(PID.TID 0000.0001) // CMIN =          1.000000000000000E+32
(PID.TID 0000.0001) // CMAX =         -1.000000000000000E+32
(PID.TID 0000.0001) // CINT =          0.000000000000000E+00
(PID.TID 0000.0001) // SYMBOLS (CMIN->CMAX): -abcdefghijklmnopqrstuvwxyz+
(PID.TID 0000.0001) //                  0.0: .
(PID.TID 0000.0001) // RANGE I (Lo:Hi:Step):(    -3:    36:     1)
(PID.TID 0000.0001) // RANGE J (Lo:Hi:Step):(    36:    -3:    -1)
(PID.TID 0000.0001) // RANGE K (Lo:Hi:Step):(   1:   1:   1)
(PID.TID 0000.0001) // =======================================================
(PID.TID 0000.0001) // =======================================================
(PID.TID 0000.0001) // END OF FIELD                                          =
(PID.TID 0000.0001) // =======================================================
(PID.TID 0000.0001) 
(PID.TID 0000.0001) // =======================================================
(PID.TID 0000.0001) // Field hFacC at iteration          0
(PID.TID 0000.0001) // CMIN =          1.000000000000000E+00
(PID.TID 0000.0001) // CMAX =          1.000000000000000E+00
(PID.TID 0000.0001) // CINT =          0.000000000000000E+00
(PID.TID 0000.0001) // SYMBOLS (CMIN->CMAX): -abcdefghijklmnopqrstuvwxyz+
(PID.TID 0000.0001) //                  0.0: .
(PID.TID 0000.0001) // RANGE I (Lo:Hi:Step):(    -3:    36:     1)
(PID.TID 0000.0001) // RANGE J (Lo:Hi:Step):(    36:    -3:    -1)
(PID.TID 0000.0001) // RANGE K (Lo:Hi:Step):(   1:   1:   1)
(PID.TID 0000.0001) // =======================================================
(PID.TID 0000.0001) // =======================================================
(PID.TID 0000.0001) // END OF FIELD                                          =
(PID.TID 0000.0001) // =======================================================
(PID.TID 0000.0001) 
(PID.TID 0000.0001) // =======================================================
(PID.TID 0000.0001) // Field hFacW at iteration          0
(PID.TID 0000.0001) // CMIN =          1.000000000000000E+00
(PID.TID 0000.0001) // CMAX =          1.000000000000000E+00
(PID.TID 0000.0001) // CINT =          0.000000000000000E+00
(PID.TID 0000.0001) // SYMBOLS (CMIN->CMAX): -abcdefghijklmnopqrstuvwxyz+
(PID.TID 0000.0001) //                  0.0: .
(PID.TID 0000.0001) // RANGE I (Lo:Hi:Step):(    -3:    36:     1)
(PID.TID 0000.0001) // RANGE J (Lo:Hi:Step):(    36:    -3:    -1)
(PID.TID 0000.0001) // RANGE K (Lo:Hi:Step):(   1:   1:   1)
(PID.TID 0000.0001) // =======================================================
(PID.TID 0000.0001) // =======================================================
(PID.TID 0000.0001) // END OF FIELD                                          =
(PID.TID 0000.0001) // =======================================================
(PID.TID 0000.0001) 
(PID.TID 0000.0001) // =======================================================
(PID.TID 0000.0001) // Field hFacS at iteration          0
(PID.TID 0000.0001) // CMIN =          1.000000000000000E+00
(PID.TID 0000.0001) // CMAX =          1.000000000000000E+00
(PID.TID 0000.0001) // CINT =          0.000000000000000E+00
(PID.TID 0000.0001) // SYMBOLS (CMIN->CMAX): -abcdefghijklmnopqrstuvwxyz+
(PID.TID 0000.0001) //                  0.0: .
(PID.TID 0000.0001) // RANGE I (Lo:Hi:Step):(    -3:    36:     1)
(PID.TID 0000.0001) // RANGE J (Lo:Hi:Step):(    36:    -3:    -1)
(PID.TID 0000.0001) // RANGE K (Lo:Hi:Step):(   1:   1:   1)
(PID.TID 0000.0001) // =======================================================
(PID.TID 0000.0001) // =======================================================
(PID.TID 0000.0001) // END OF FIELD                                          =
(PID.TID 0000.0001) // =======================================================
(PID.TID 0000.0001) 
(PID.TID 0000.0001) GAD_INIT_FIXED: GAD_OlMinSize=  1  0  1
(PID.TID 0000.0001) 
(PID.TID 0000.0001) // ===================================
(PID.TID 0000.0001) // GAD parameters :
(PID.TID 0000.0001) // ===================================
(PID.TID 0000.0001) tempAdvScheme =   /* Temp. Horiz.Advection scheme selector */
(PID.TID 0000.0001)                       2
(PID.TID 0000.0001)     ;
(PID.TID 0000.0001) tempVertAdvScheme =   /* Temp. Vert. Advection scheme selector */
(PID.TID 0000.0001)                       2
(PID.TID 0000.0001)     ;
(PID.TID 0000.0001) tempMultiDimAdvec =   /* use Muti-Dim Advec method for Temp */
(PID.TID 0000.0001)                   F
(PID.TID 0000.0001)     ;
(PID.TID 0000.0001) tempSOM_Advection = /* use 2nd Order Moment Advection for Temp */
(PID.TID 0000.0001)                   F
(PID.TID 0000.0001)     ;
(PID.TID 0000.0001) AdamsBashforthGt = /* apply Adams-Bashforth extrapolation on Gt */
(PID.TID 0000.0001)                   T
(PID.TID 0000.0001)     ;
(PID.TID 0000.0001) AdamsBashforth_T = /* apply Adams-Bashforth extrapolation on Temp */
(PID.TID 0000.0001)                   F
(PID.TID 0000.0001)     ;
(PID.TID 0000.0001) saltAdvScheme =   /* Salt. Horiz.advection scheme selector */
(PID.TID 0000.0001)                       2
(PID.TID 0000.0001)     ;
(PID.TID 0000.0001) saltVertAdvScheme =   /* Salt. Vert. Advection scheme selector */
(PID.TID 0000.0001)                       2
(PID.TID 0000.0001)     ;
(PID.TID 0000.0001) saltMultiDimAdvec =   /* use Muti-Dim Advec method for Salt */
(PID.TID 0000.0001)                   F
(PID.TID 0000.0001)     ;
(PID.TID 0000.0001) saltSOM_Advection = /* use 2nd Order Moment Advection for Salt */
(PID.TID 0000.0001)                   F
(PID.TID 0000.0001)     ;
(PID.TID 0000.0001) AdamsBashforthGs = /* apply Adams-Bashforth extrapolation on Gs */
(PID.TID 0000.0001)                   T
(PID.TID 0000.0001)     ;
(PID.TID 0000.0001) AdamsBashforth_S = /* apply Adams-Bashforth extrapolation on Salt */
(PID.TID 0000.0001)                   F
(PID.TID 0000.0001)     ;
(PID.TID 0000.0001) // ===================================
(PID.TID 0000.0001) ------------------------------------------------------------
(PID.TID 0000.0001) DIAGNOSTICS_SET_LEVELS: done
(PID.TID 0000.0001)  Total Nb of available Diagnostics: ndiagt=   215
(PID.TID 0000.0001)  write list of available Diagnostics to file: available_diagnostics.log
(PID.TID 0000.0001) SETDIAG: Allocate  1 x  1 Levels for Diagnostic #    81 oceTAUX
(PID.TID 0000.0001) SETDIAG: Allocate  1 x  1 Levels for Diagnostic #    82 oceTAUY
(PID.TID 0000.0001) SETDIAG: Allocate  1 x  1 Levels for Diagnostic #    85 oceFWflx
(PID.TID 0000.0001) SETDIAG: Allocate  1 x  1 Levels for Diagnostic #    86 oceSflux
(PID.TID 0000.0001) SETDIAG: Allocate  1 x  1 Levels for Diagnostic #    87 oceQnet
(PID.TID 0000.0001) SETDIAG: Allocate  1 x  1 Levels for Diagnostic #    88 oceQsw
(PID.TID 0000.0001) SETDIAG: Allocate 15 x  1 Levels for Diagnostic #    27 SALT
(PID.TID 0000.0001) SETDIAG: Allocate 15 x  1 Levels for Diagnostic #    26 THETA
(PID.TID 0000.0001) SETDIAG: Allocate 15 x  1 Levels for Diagnostic #    45 UVELMASS
(PID.TID 0000.0001) SETDIAG: Allocate 15 x  1 Levels for Diagnostic #    46 VVELMASS
(PID.TID 0000.0001) SETDIAG: Allocate  1 x  1 Levels for Diagnostic #    83 atmPload
(PID.TID 0000.0001)   space allocated for all diagnostics:      67 levels
(PID.TID 0000.0001)   set mate pointer for diag #    81  oceTAUX  , Parms: UU      U1 , mate:    82
(PID.TID 0000.0001)   set mate pointer for diag #    82  oceTAUY  , Parms: VV      U1 , mate:    81
(PID.TID 0000.0001)   set mate pointer for diag #    45  UVELMASS , Parms: UUr     MR , mate:    46
(PID.TID 0000.0001)   set mate pointer for diag #    46  VVELMASS , Parms: VVr     MR , mate:    45
(PID.TID 0000.0001) DIAGNOSTICS_SET_POINTERS: Set levels for Outp.Stream: oceTAUX
(PID.TID 0000.0001)  Levels:       1.
(PID.TID 0000.0001) DIAGNOSTICS_SET_POINTERS: Set levels for Outp.Stream: oceTAUY
(PID.TID 0000.0001)  Levels:       1.
(PID.TID 0000.0001) DIAGNOSTICS_SET_POINTERS: Set levels for Outp.Stream: oceFWflx
(PID.TID 0000.0001)  Levels:       1.
(PID.TID 0000.0001) DIAGNOSTICS_SET_POINTERS: Set levels for Outp.Stream: oceSflux
(PID.TID 0000.0001)  Levels:       1.
(PID.TID 0000.0001) DIAGNOSTICS_SET_POINTERS: Set levels for Outp.Stream: oceQnet
(PID.TID 0000.0001)  Levels:       1.
(PID.TID 0000.0001) DIAGNOSTICS_SET_POINTERS: Set levels for Outp.Stream: oceQsw
(PID.TID 0000.0001)  Levels:       1.
(PID.TID 0000.0001) DIAGNOSTICS_SET_POINTERS: Set levels for Outp.Stream: atmPload
(PID.TID 0000.0001)  Levels:       1.
(PID.TID 0000.0001) DIAGNOSTICS_SET_POINTERS: done
(PID.TID 0000.0001) ------------------------------------------------------------
(PID.TID 0000.0001) DIAGSTATS_SET_REGIONS: define   0 regions:
(PID.TID 0000.0001) ------------------------------------------------------------
(PID.TID 0000.0001)   space allocated for all stats-diags:       0 levels
(PID.TID 0000.0001) DIAGSTATS_SET_POINTERS: done
(PID.TID 0000.0001) ------------------------------------------------------------
(PID.TID 0000.0001) INI_GLOBAL_DOMAIN: Found  19 CS-corner Pts in the domain
(PID.TID 0000.0001) %MON fCori_max                    =   1.4574827780704E-04
(PID.TID 0000.0001) %MON fCori_min                    =  -1.4574827780704E-04
(PID.TID 0000.0001) %MON fCori_mean                   =   0.0000000000000E+00
(PID.TID 0000.0001) %MON fCori_sd                     =   8.4202189509968E-05
(PID.TID 0000.0001) %MON fCoriG_max                   =   1.4584247033981E-04
(PID.TID 0000.0001) %MON fCoriG_min                   =  -1.4584247033981E-04
(PID.TID 0000.0001) %MON fCoriG_mean                  =   2.2587545260115E-21
(PID.TID 0000.0001) %MON fCoriG_sd                    =   8.4202189509968E-05
(PID.TID 0000.0001) %MON fCoriCos_max                 =   1.4580166994612E-04
(PID.TID 0000.0001) %MON fCoriCos_min                 =   5.2407700865903E-06
(PID.TID 0000.0001) %MON fCoriCos_mean                =   1.1514045869113E-04
(PID.TID 0000.0001) %MON fCoriCos_sd                  =   3.0375849106513E-05
(PID.TID 0000.0001) INI_CG2D: CG2D normalisation factor =  1.9156564154949553E-04
(PID.TID 0000.0001) 
(PID.TID 0000.0001) // =======================================================
(PID.TID 0000.0001) // Model configuration
(PID.TID 0000.0001) // =======================================================
(PID.TID 0000.0001) //
(PID.TID 0000.0001) // "Physical" paramters ( PARM01 in namelist )
(PID.TID 0000.0001) //
(PID.TID 0000.0001) buoyancyRelation = /* Type of relation to get Buoyancy */
(PID.TID 0000.0001)               'OCEANIC'
(PID.TID 0000.0001)     ;
(PID.TID 0000.0001) fluidIsAir   =  /* fluid major constituent is Air */
(PID.TID 0000.0001)                   F
(PID.TID 0000.0001)     ;
(PID.TID 0000.0001) fluidIsWater =  /* fluid major constituent is Water */
(PID.TID 0000.0001)                   T
(PID.TID 0000.0001)     ;
(PID.TID 0000.0001) usingPCoords =  /* use p (or p*) vertical coordinate */
(PID.TID 0000.0001)                   F
(PID.TID 0000.0001)     ;
(PID.TID 0000.0001) usingZCoords =  /* use z (or z*) vertical coordinate */
(PID.TID 0000.0001)                   T
(PID.TID 0000.0001)     ;
(PID.TID 0000.0001) tRef =   /* Reference temperature profile ( oC or K ) */
(PID.TID 0000.0001)    15 @  2.000000000000000E+01              /* K =  1: 15 */
(PID.TID 0000.0001)     ;
(PID.TID 0000.0001) sRef =   /* Reference salinity profile ( psu ) */
(PID.TID 0000.0001)    15 @  3.500000000000000E+01              /* K =  1: 15 */
(PID.TID 0000.0001)     ;
(PID.TID 0000.0001) useStrainTensionVisc= /* Use StrainTension Form of Viscous Operator */
(PID.TID 0000.0001)                   F
(PID.TID 0000.0001)     ;
(PID.TID 0000.0001) useVariableVisc = /* Use variable horizontal viscosity */
(PID.TID 0000.0001)                   F
(PID.TID 0000.0001)     ;
(PID.TID 0000.0001) useHarmonicVisc = /* Use harmonic horizontal viscosity */
(PID.TID 0000.0001)                   T
(PID.TID 0000.0001)     ;
(PID.TID 0000.0001) useBiharmonicVisc= /* Use biharmonic horiz.  viscosity */
(PID.TID 0000.0001)                   F
(PID.TID 0000.0001)     ;
(PID.TID 0000.0001) useSmag3D = /* Use isotropic 3-D Smagorinsky viscosity */
(PID.TID 0000.0001)                   F
(PID.TID 0000.0001)     ;
(PID.TID 0000.0001) viscAh  =   /* Lateral harmonic viscosity ( m^2/s ) */
(PID.TID 0000.0001)                 3.000000000000000E+05
(PID.TID 0000.0001)     ;
(PID.TID 0000.0001) viscA4  =   /* Lateral biharmonic viscosity ( m^4/s ) */
(PID.TID 0000.0001)                 0.000000000000000E+00
(PID.TID 0000.0001)     ;
(PID.TID 0000.0001) no_slip_sides =  /* Viscous BCs: No-slip sides */
(PID.TID 0000.0001)                   T
(PID.TID 0000.0001)     ;
(PID.TID 0000.0001) sideDragFactor = /* side-drag scaling factor (non-dim) */
(PID.TID 0000.0001)                 2.000000000000000E+00
(PID.TID 0000.0001)     ;
(PID.TID 0000.0001) viscArNr = /* vertical profile of vertical viscosity ( m^2/s )*/
(PID.TID 0000.0001)    15 @  1.000000000000000E-03              /* K =  1: 15 */
(PID.TID 0000.0001)     ;
(PID.TID 0000.0001) no_slip_bottom =  /* Viscous BCs: No-slip bottom */
(PID.TID 0000.0001)                   T
(PID.TID 0000.0001)     ;
(PID.TID 0000.0001) bottomVisc_pCell = /* Partial-cell in bottom Visc. BC */
(PID.TID 0000.0001)                   F
(PID.TID 0000.0001)     ;
(PID.TID 0000.0001) bottomDragLinear = /* linear bottom-drag coefficient ( m/s ) */
(PID.TID 0000.0001)                 0.000000000000000E+00
(PID.TID 0000.0001)     ;
(PID.TID 0000.0001) bottomDragQuadratic = /* quadratic bottom-drag coefficient (-) */
(PID.TID 0000.0001)                 0.000000000000000E+00
(PID.TID 0000.0001)     ;
(PID.TID 0000.0001) selectBotDragQuadr = /* select quadratic bottom drag options */
(PID.TID 0000.0001)                      -1
(PID.TID 0000.0001)     ;
(PID.TID 0000.0001) diffKhT =   /* Laplacian diffusion of heat laterally ( m^2/s ) */
(PID.TID 0000.0001)                 0.000000000000000E+00
(PID.TID 0000.0001)     ;
(PID.TID 0000.0001) diffK4T =   /* Biharmonic diffusion of heat laterally ( m^4/s ) */
(PID.TID 0000.0001)                 0.000000000000000E+00
(PID.TID 0000.0001)     ;
(PID.TID 0000.0001) diffKhS =   /* Laplacian diffusion of salt laterally ( m^2/s ) */
(PID.TID 0000.0001)                 0.000000000000000E+00
(PID.TID 0000.0001)     ;
(PID.TID 0000.0001) diffK4S =   /* Biharmonic diffusion of salt laterally ( m^4/s ) */
(PID.TID 0000.0001)                 0.000000000000000E+00
(PID.TID 0000.0001)     ;
(PID.TID 0000.0001) diffKrNrT = /* vertical profile of vertical diffusion of Temp ( m^2/s )*/
(PID.TID 0000.0001)    15 @  3.000000000000000E-05              /* K =  1: 15 */
(PID.TID 0000.0001)     ;
(PID.TID 0000.0001) diffKrNrS = /* vertical profile of vertical diffusion of Salt ( m^2/s )*/
(PID.TID 0000.0001)    15 @  3.000000000000000E-05              /* K =  1: 15 */
(PID.TID 0000.0001)     ;
(PID.TID 0000.0001) diffKrBL79surf = /* Surface diffusion for Bryan and Lewis 79 ( m^2/s ) */
(PID.TID 0000.0001)                 0.000000000000000E+00
(PID.TID 0000.0001)     ;
(PID.TID 0000.0001) diffKrBL79deep = /* Deep diffusion for Bryan and Lewis 1979 ( m^2/s ) */
(PID.TID 0000.0001)                 0.000000000000000E+00
(PID.TID 0000.0001)     ;
(PID.TID 0000.0001) diffKrBL79scl = /* Depth scale for Bryan and Lewis 1979 ( m ) */
(PID.TID 0000.0001)                 2.000000000000000E+02
(PID.TID 0000.0001)     ;
(PID.TID 0000.0001) diffKrBL79Ho = /* Turning depth for Bryan and Lewis 1979 ( m ) */
(PID.TID 0000.0001)                -2.000000000000000E+03
(PID.TID 0000.0001)     ;
(PID.TID 0000.0001) ivdc_kappa = /* Implicit Vertical Diffusivity for Convection ( m^2/s) */
(PID.TID 0000.0001)                 1.000000000000000E+01
(PID.TID 0000.0001)     ;
(PID.TID 0000.0001) hMixCriteria=  /* Criteria for mixed-layer diagnostic */
(PID.TID 0000.0001)                -8.000000000000000E-01
(PID.TID 0000.0001)     ;
(PID.TID 0000.0001) dRhoSmall =  /* Parameter for mixed-layer diagnostic */
(PID.TID 0000.0001)                 1.000000000000000E-06
(PID.TID 0000.0001)     ;
(PID.TID 0000.0001) hMixSmooth=  /* Smoothing parameter for mixed-layer diagnostic */
(PID.TID 0000.0001)                 0.000000000000000E+00
(PID.TID 0000.0001)     ;
(PID.TID 0000.0001) eosType =  /* Type of Equation of State */
(PID.TID 0000.0001)               'JMD95Z'
(PID.TID 0000.0001)     ;
(PID.TID 0000.0001) selectP_inEOS_Zc = /* select pressure to use in EOS (0,1,2,3) */
(PID.TID 0000.0001)                       0
(PID.TID 0000.0001)     0= -g*rhoConst*z ; 1= pRef (from tRef,sRef); 2= Hyd P ; 3= Hyd+NH P
(PID.TID 0000.0001)     ;
(PID.TID 0000.0001) HeatCapacity_Cp =  /* Specific heat capacity ( J/kg/K ) */
(PID.TID 0000.0001)                 3.994000000000000E+03
(PID.TID 0000.0001)     ;
(PID.TID 0000.0001) celsius2K = /* 0 degree Celsius converted to Kelvin ( K ) */
(PID.TID 0000.0001)                 2.731500000000000E+02
(PID.TID 0000.0001)     ;
(PID.TID 0000.0001) rhoConst  = /* Reference density (Boussinesq)  ( kg/m^3 ) */
(PID.TID 0000.0001)                 1.035000000000000E+03
(PID.TID 0000.0001)     ;
(PID.TID 0000.0001) rhoFacC = /* normalized Reference density @ cell-Center (-) */
(PID.TID 0000.0001)    15 @  1.000000000000000E+00              /* K =  1: 15 */
(PID.TID 0000.0001)     ;
(PID.TID 0000.0001) rhoFacF = /* normalized Reference density @ W-Interface (-) */
(PID.TID 0000.0001)    16 @  1.000000000000000E+00              /* K =  1: 16 */
(PID.TID 0000.0001)     ;
(PID.TID 0000.0001) rhoConstFresh = /* Fresh-water reference density ( kg/m^3 ) */
(PID.TID 0000.0001)                 1.000000000000000E+03
(PID.TID 0000.0001)     ;
(PID.TID 0000.0001) gravity =   /* Gravitational acceleration ( m/s^2 ) */
(PID.TID 0000.0001)                 9.810000000000000E+00
(PID.TID 0000.0001)     ;
(PID.TID 0000.0001) gBaro =   /* Barotropic gravity ( m/s^2 ) */
(PID.TID 0000.0001)                 9.810000000000000E+00
(PID.TID 0000.0001)     ;
(PID.TID 0000.0001) gravFacC = /* gravity factor (vs surf.) @ cell-Center (-) */
(PID.TID 0000.0001)    15 @  1.000000000000000E+00              /* K =  1: 15 */
(PID.TID 0000.0001)     ;
(PID.TID 0000.0001) gravFacF = /* gravity factor (vs surf.) @ W-Interface (-) */
(PID.TID 0000.0001)    16 @  1.000000000000000E+00              /* K =  1: 16 */
(PID.TID 0000.0001)     ;
(PID.TID 0000.0001) rotationPeriod =   /* Rotation Period ( s ) */
(PID.TID 0000.0001)                 8.616400000000000E+04
(PID.TID 0000.0001)     ;
(PID.TID 0000.0001) omega =   /* Angular velocity ( rad/s ) */
(PID.TID 0000.0001)                 7.292123516990375E-05
(PID.TID 0000.0001)     ;
(PID.TID 0000.0001) f0 =   /* Reference coriolis parameter ( 1/s ) */
(PID.TID 0000.0001)                 1.000000000000000E-04
(PID.TID 0000.0001)     ;
(PID.TID 0000.0001) beta =   /* Beta ( 1/(m.s) ) */
(PID.TID 0000.0001)                 9.999999999999999E-12
(PID.TID 0000.0001)     ;
(PID.TID 0000.0001) fPrime =   /* Second coriolis parameter ( 1/s ) */
(PID.TID 0000.0001)                 0.000000000000000E+00
(PID.TID 0000.0001)     ;
(PID.TID 0000.0001) rigidLid =   /* Rigid lid on/off flag */
(PID.TID 0000.0001)                   F
(PID.TID 0000.0001)     ;
(PID.TID 0000.0001) implicitFreeSurface =   /* Implicit free surface on/off flag */
(PID.TID 0000.0001)                   T
(PID.TID 0000.0001)     ;
(PID.TID 0000.0001) freeSurfFac =   /* Implicit free surface factor */
(PID.TID 0000.0001)                 1.000000000000000E+00
(PID.TID 0000.0001)     ;
(PID.TID 0000.0001) implicSurfPress =  /* Surface Pressure implicit factor (0-1)*/
(PID.TID 0000.0001)                 1.000000000000000E+00
(PID.TID 0000.0001)     ;
(PID.TID 0000.0001) implicDiv2DFlow =  /* Barot. Flow Div. implicit factor (0-1)*/
(PID.TID 0000.0001)                 1.000000000000000E+00
(PID.TID 0000.0001)     ;
(PID.TID 0000.0001) uniformLin_PhiSurf = /* use uniform Bo_surf on/off flag*/
(PID.TID 0000.0001)                   T
(PID.TID 0000.0001)     ;
(PID.TID 0000.0001) uniformFreeSurfLev = /* free-surface level-index is uniform */
(PID.TID 0000.0001)                   T
(PID.TID 0000.0001)     ;
(PID.TID 0000.0001) hFacMin =   /* minimum partial cell factor (hFac) */
(PID.TID 0000.0001)                 1.000000000000000E-01
(PID.TID 0000.0001)     ;
(PID.TID 0000.0001) hFacMinDr = /* minimum partial cell thickness ( m) */
(PID.TID 0000.0001)                 2.000000000000000E+01
(PID.TID 0000.0001)     ;
(PID.TID 0000.0001) exactConserv =  /* Exact Volume Conservation on/off flag*/
(PID.TID 0000.0001)                   T
(PID.TID 0000.0001)     ;
(PID.TID 0000.0001) linFSConserveTr = /* Tracer correction for Lin Free Surface on/off flag*/
(PID.TID 0000.0001)                   F
(PID.TID 0000.0001)     ;
(PID.TID 0000.0001) nonlinFreeSurf = /* Non-linear Free Surf. options (-1,0,1,2,3)*/
(PID.TID 0000.0001)                       4
(PID.TID 0000.0001)      -1,0= Off ; 1,2,3= On, 2=+rescale gU,gV, 3=+update cg2d solv.
(PID.TID 0000.0001)     ;
(PID.TID 0000.0001) hFacInf =   /* lower threshold for hFac (nonlinFreeSurf only)*/
(PID.TID 0000.0001)                 2.000000000000000E-01
(PID.TID 0000.0001)     ;
(PID.TID 0000.0001) hFacSup =   /* upper threshold for hFac (nonlinFreeSurf only)*/
(PID.TID 0000.0001)                 2.000000000000000E+00
(PID.TID 0000.0001)     ;
(PID.TID 0000.0001) select_rStar = /* r* Vertical coord. options (=0 r coord.; >0 uses r*)*/
(PID.TID 0000.0001)                       2
(PID.TID 0000.0001)     ;
(PID.TID 0000.0001) useRealFreshWaterFlux = /* Real Fresh Water Flux on/off flag*/
(PID.TID 0000.0001)                   T
(PID.TID 0000.0001)     ;
(PID.TID 0000.0001) temp_EvPrRn = /* Temp. of Evap/Prec/R (UNSET=use local T)(oC)*/
(PID.TID 0000.0001)                 1.234567000000000E+05
(PID.TID 0000.0001)     ;
(PID.TID 0000.0001) salt_EvPrRn = /* Salin. of Evap/Prec/R (UNSET=use local S)(psu)*/
(PID.TID 0000.0001)                 0.000000000000000E+00
(PID.TID 0000.0001)     ;
(PID.TID 0000.0001) selectAddFluid = /* option for mass source/sink of fluid (=0: off) */
(PID.TID 0000.0001)                       0
(PID.TID 0000.0001)     ;
(PID.TID 0000.0001) temp_addMass = /* Temp. of addMass array (UNSET=use local T)(oC)*/
(PID.TID 0000.0001)                 1.234567000000000E+05
(PID.TID 0000.0001)     ;
(PID.TID 0000.0001) salt_addMass = /* Salin. of addMass array (UNSET=use local S)(psu)*/
(PID.TID 0000.0001)                 0.000000000000000E+00
(PID.TID 0000.0001)     ;
(PID.TID 0000.0001) use3Dsolver = /* use 3-D pressure solver on/off flag */
(PID.TID 0000.0001)                   F
(PID.TID 0000.0001)     ;
(PID.TID 0000.0001) nonHydrostatic =  /* Non-Hydrostatic on/off flag */
(PID.TID 0000.0001)                   F
(PID.TID 0000.0001)     ;
(PID.TID 0000.0001) nh_Am2 = /* Non-Hydrostatic terms scaling factor */
(PID.TID 0000.0001)                 1.000000000000000E+00
(PID.TID 0000.0001)     ;
(PID.TID 0000.0001) implicitNHPress = /* Non-Hyd Pressure implicit factor (0-1)*/
(PID.TID 0000.0001)                 1.000000000000000E+00
(PID.TID 0000.0001)     ;
(PID.TID 0000.0001) selectNHfreeSurf = /* Non-Hyd (free-)Surface option */
(PID.TID 0000.0001)                       0
(PID.TID 0000.0001)     ;
(PID.TID 0000.0001) quasiHydrostatic = /* Quasi-Hydrostatic on/off flag */
(PID.TID 0000.0001)                   F
(PID.TID 0000.0001)     ;
(PID.TID 0000.0001) calc_wVelocity = /* vertical velocity calculation on/off flag */
(PID.TID 0000.0001)                   T
(PID.TID 0000.0001)     ;
(PID.TID 0000.0001) momStepping =  /* Momentum equation on/off flag */
(PID.TID 0000.0001)                   T
(PID.TID 0000.0001)     ;
(PID.TID 0000.0001) vectorInvariantMomentum= /* Vector-Invariant Momentum on/off */
(PID.TID 0000.0001)                   T
(PID.TID 0000.0001)     ;
(PID.TID 0000.0001) momAdvection =  /* Momentum advection on/off flag */
(PID.TID 0000.0001)                   T
(PID.TID 0000.0001)     ;
(PID.TID 0000.0001) momViscosity =  /* Momentum viscosity on/off flag */
(PID.TID 0000.0001)                   T
(PID.TID 0000.0001)     ;
(PID.TID 0000.0001) momImplVertAdv= /* Momentum implicit vert. advection on/off*/
(PID.TID 0000.0001)                   F
(PID.TID 0000.0001)     ;
(PID.TID 0000.0001) implicitViscosity = /* Implicit viscosity on/off flag */
(PID.TID 0000.0001)                   F
(PID.TID 0000.0001)     ;
(PID.TID 0000.0001) selectImplicitDrag= /* Implicit bot Drag options (0,1,2)*/
(PID.TID 0000.0001)                       0
(PID.TID 0000.0001)     0= Expl. ; 1= Impl. on provis. Vel ; 2= Fully Impl (with surf.P)
(PID.TID 0000.0001)     ;
(PID.TID 0000.0001) metricTerms =  /* metric-Terms on/off flag */
(PID.TID 0000.0001)                   F
(PID.TID 0000.0001)     ;
(PID.TID 0000.0001) useNHMTerms = /* Non-Hydrostatic Metric-Terms on/off */
(PID.TID 0000.0001)                   F
(PID.TID 0000.0001)     ;
(PID.TID 0000.0001) selectCoriMap = /* Coriolis Map options (0,1,2,3)*/
(PID.TID 0000.0001)                       2
(PID.TID 0000.0001)     0= f-Plane ; 1= Beta-Plane ; 2= Spherical ; 3= read from file
(PID.TID 0000.0001)     ;
(PID.TID 0000.0001) use3dCoriolis = /* 3-D Coriolis on/off flag */
(PID.TID 0000.0001)                   F
(PID.TID 0000.0001)     ;
(PID.TID 0000.0001) useCoriolis =  /* Coriolis on/off flag */
(PID.TID 0000.0001)                   T
(PID.TID 0000.0001)     ;
(PID.TID 0000.0001) useCDscheme =  /* CD scheme on/off flag */
(PID.TID 0000.0001)                   F
(PID.TID 0000.0001)     ;
(PID.TID 0000.0001) useEnergyConservingCoriolis= /* Flx-Form Coriolis scheme flag */
(PID.TID 0000.0001)                   F
(PID.TID 0000.0001)     ;
(PID.TID 0000.0001) useJamartWetPoints= /* Coriolis WetPoints method flag */
(PID.TID 0000.0001)                   F
(PID.TID 0000.0001)     ;
(PID.TID 0000.0001) useJamartMomAdv= /* V.I Non-linear terms Jamart flag */
(PID.TID 0000.0001)                   F
(PID.TID 0000.0001)     ;
(PID.TID 0000.0001) useAbsVorticity= /* V.I Works with f+zeta in Coriolis */
(PID.TID 0000.0001)                   F
(PID.TID 0000.0001)     ;
(PID.TID 0000.0001) selectVortScheme= /* V.I Scheme selector for Vorticity-Term */
(PID.TID 0000.0001)                       1
(PID.TID 0000.0001)    = 0 : enstrophy (Shallow-Water Eq.) conserving scheme by Sadourny, JAS 75
(PID.TID 0000.0001)    = 1 : same as 0 with modified hFac
(PID.TID 0000.0001)    = 2 : energy conserving scheme (used by Sadourny in JAS 75 paper)
(PID.TID 0000.0001)    = 3 : energy (general) and enstrophy (2D, nonDiv.) conserving scheme
(PID.TID 0000.0001)          from Sadourny (Burridge & Haseler, ECMWF Rep.4, 1977)
(PID.TID 0000.0001)     ;
(PID.TID 0000.0001) upwindVorticity= /* V.I Upwind bias vorticity flag */
(PID.TID 0000.0001)                   F
(PID.TID 0000.0001)     ;
(PID.TID 0000.0001) highOrderVorticity= /* V.I High order vort. advect. flag */
(PID.TID 0000.0001)                   F
(PID.TID 0000.0001)     ;
(PID.TID 0000.0001) upwindShear= /* V.I Upwind vertical Shear advection flag */
(PID.TID 0000.0001)                   F
(PID.TID 0000.0001)     ;
(PID.TID 0000.0001) selectKEscheme= /* V.I Kinetic Energy scheme selector */
(PID.TID 0000.0001)                       0
(PID.TID 0000.0001)     ;
(PID.TID 0000.0001) momForcing =  /* Momentum forcing on/off flag */
(PID.TID 0000.0001)                   T
(PID.TID 0000.0001)     ;
(PID.TID 0000.0001) momTidalForcing = /* Momentum Tidal forcing on/off flag */
(PID.TID 0000.0001)                   T
(PID.TID 0000.0001)     ;
(PID.TID 0000.0001) momPressureForcing =  /* Momentum pressure term on/off flag */
(PID.TID 0000.0001)                   T
(PID.TID 0000.0001)     ;
(PID.TID 0000.0001) implicitIntGravWave= /* Implicit Internal Gravity Wave flag */
(PID.TID 0000.0001)                   F
(PID.TID 0000.0001)     ;
(PID.TID 0000.0001) staggerTimeStep =    /* Stagger time stepping on/off flag */
(PID.TID 0000.0001)                   T
(PID.TID 0000.0001)     ;
(PID.TID 0000.0001) doResetHFactors = /* reset thickness factors @ each time-step */
(PID.TID 0000.0001)                   F
(PID.TID 0000.0001)     ;
(PID.TID 0000.0001) multiDimAdvection =  /* enable/disable Multi-Dim Advection */
(PID.TID 0000.0001)                   T
(PID.TID 0000.0001)     ;
(PID.TID 0000.0001) useMultiDimAdvec =   /* Multi-Dim Advection is/is-not used */
(PID.TID 0000.0001)                   F
(PID.TID 0000.0001)     ;
(PID.TID 0000.0001) implicitDiffusion = /* Implicit Diffusion on/off flag */
(PID.TID 0000.0001)                   T
(PID.TID 0000.0001)     ;
(PID.TID 0000.0001) tempStepping =  /* Temperature equation on/off flag */
(PID.TID 0000.0001)                   T
(PID.TID 0000.0001)     ;
(PID.TID 0000.0001) tempAdvection = /* Temperature advection on/off flag */
(PID.TID 0000.0001)                   T
(PID.TID 0000.0001)     ;
(PID.TID 0000.0001) tempImplVertAdv = /* Temp. implicit vert. advection on/off */
(PID.TID 0000.0001)                   F
(PID.TID 0000.0001)     ;
(PID.TID 0000.0001) tempForcing  =  /* Temperature forcing on/off flag */
(PID.TID 0000.0001)                   T
(PID.TID 0000.0001)     ;
(PID.TID 0000.0001) balanceQnet  =  /* balance net heat-flux on/off flag */
(PID.TID 0000.0001)                   F
(PID.TID 0000.0001)     ;
(PID.TID 0000.0001) doThetaClimRelax = /* apply SST relaxation on/off flag */
(PID.TID 0000.0001)                   F
(PID.TID 0000.0001)     ;
(PID.TID 0000.0001) balanceThetaClimRelax= /* balance SST relaxation on/off flag */
(PID.TID 0000.0001)                   F
(PID.TID 0000.0001)     ;
(PID.TID 0000.0001) tempIsActiveTr = /* Temp. is a dynamically Active Tracer */
(PID.TID 0000.0001)                   T
(PID.TID 0000.0001)     ;
(PID.TID 0000.0001) saltStepping =  /* Salinity equation on/off flag */
(PID.TID 0000.0001)                   T
(PID.TID 0000.0001)     ;
(PID.TID 0000.0001) saltAdvection = /* Salinity advection on/off flag */
(PID.TID 0000.0001)                   T
(PID.TID 0000.0001)     ;
(PID.TID 0000.0001) saltImplVertAdv = /* Sali. implicit vert. advection on/off */
(PID.TID 0000.0001)                   F
(PID.TID 0000.0001)     ;
(PID.TID 0000.0001) saltForcing  =  /* Salinity forcing on/off flag */
(PID.TID 0000.0001)                   T
(PID.TID 0000.0001)     ;
(PID.TID 0000.0001) balanceEmPmR =  /* balance net fresh-water flux on/off flag */
(PID.TID 0000.0001)                   F
(PID.TID 0000.0001)     ;
(PID.TID 0000.0001) doSaltClimRelax = /* apply SSS relaxation on/off flag */
(PID.TID 0000.0001)                   F
(PID.TID 0000.0001)     ;
(PID.TID 0000.0001) balanceSaltClimRelax= /* balance SSS relaxation on/off flag */
(PID.TID 0000.0001)                   F
(PID.TID 0000.0001)     ;
(PID.TID 0000.0001) saltIsActiveTr = /* Salt  is a dynamically Active Tracer */
(PID.TID 0000.0001)                   T
(PID.TID 0000.0001)     ;
(PID.TID 0000.0001)  readBinaryPrec = /* Precision used for reading binary files */
(PID.TID 0000.0001)                      64
(PID.TID 0000.0001)     ;
(PID.TID 0000.0001) writeBinaryPrec = /* Precision used for writing binary files */
(PID.TID 0000.0001)                      32
(PID.TID 0000.0001)     ;
(PID.TID 0000.0001)  rwSuffixType =   /* select format of mds file suffix */
(PID.TID 0000.0001)                       0
(PID.TID 0000.0001)    = 0 : myIter (I10.10) ;   = 1 : 100*myTime (100th sec) ;
(PID.TID 0000.0001)    = 2 : myTime (seconds);   = 3 : myTime/360 (10th of hr);
(PID.TID 0000.0001)    = 4 : myTime/3600 (hours)
(PID.TID 0000.0001)     ;
(PID.TID 0000.0001)  globalFiles = /* write "global" (=not per tile) files */
(PID.TID 0000.0001)                   F
(PID.TID 0000.0001)     ;
(PID.TID 0000.0001)  useSingleCpuIO = /* only master MPI process does I/O */
(PID.TID 0000.0001)                   T
(PID.TID 0000.0001)     ;
(PID.TID 0000.0001)  useSingleCpuInput = /* only master process reads input */
(PID.TID 0000.0001)                   T
(PID.TID 0000.0001)     ;
(PID.TID 0000.0001) /* debLev[*]  : level of debug & auxiliary message printing */
(PID.TID 0000.0001) debLevZero =  0 ; /* level of disabled aux. msg printing */
(PID.TID 0000.0001)    debLevA =  1 ; /* level of minimum  aux. msg printing */
(PID.TID 0000.0001)    debLevB =  2 ; /* level of low aux. print (report read-file opening)*/
(PID.TID 0000.0001)    debLevC =  3 ; /* level of moderate debug prt (most pkgs debug msg) */
(PID.TID 0000.0001)    debLevD =  4 ; /* level of enhanced debug prt (add DEBUG_STATS prt) */
(PID.TID 0000.0001)    debLevE =  5 ; /* level of extensive debug printing */
(PID.TID 0000.0001) debugLevel =  /* select debug printing level */
(PID.TID 0000.0001)                       2
(PID.TID 0000.0001)     ;
(PID.TID 0000.0001)  plotLevel =  /* select PLOT_FIELD printing level */
(PID.TID 0000.0001)                       2
(PID.TID 0000.0001)     ;
(PID.TID 0000.0001) //
(PID.TID 0000.0001) // Elliptic solver(s) paramters ( PARM02 in namelist )
(PID.TID 0000.0001) //
(PID.TID 0000.0001) cg2dMaxIters =   /* Upper limit on 2d con. grad iterations  */
(PID.TID 0000.0001)                     150
(PID.TID 0000.0001)     ;
(PID.TID 0000.0001) cg2dChkResFreq =   /* 2d con. grad convergence test frequency */
(PID.TID 0000.0001)                       1
(PID.TID 0000.0001)     ;
(PID.TID 0000.0001) cg2dUseMinResSol= /* use cg2d last-iter(=0) / min-resid.(=1) solution */
(PID.TID 0000.0001)                       0
(PID.TID 0000.0001)     ;
(PID.TID 0000.0001) cg2dTargetResidual =   /* 2d con. grad target residual  */
(PID.TID 0000.0001)                 1.000000000000000E-07
(PID.TID 0000.0001)     ;
(PID.TID 0000.0001) cg2dTargetResWunit =   /* CG2d target residual [W units] */
(PID.TID 0000.0001)                -1.000000000000000E+00
(PID.TID 0000.0001)     ;
(PID.TID 0000.0001) cg2dPreCondFreq =   /* Freq. for updating cg2d preconditioner */
(PID.TID 0000.0001)                       1
(PID.TID 0000.0001)     ;
(PID.TID 0000.0001) useSRCGSolver =  /* use single reduction CG solver(s) */
(PID.TID 0000.0001)                   F
(PID.TID 0000.0001)     ;
(PID.TID 0000.0001) printResidualFreq = /* Freq. for printing CG residual */
(PID.TID 0000.0001)                       0
(PID.TID 0000.0001)     ;
(PID.TID 0000.0001) //
(PID.TID 0000.0001) // Time stepping paramters ( PARM03 in namelist )
(PID.TID 0000.0001) //
(PID.TID 0000.0001) deltaTMom =   /* Momentum equation timestep ( s ) */
(PID.TID 0000.0001)                 9.000000000000000E+02
(PID.TID 0000.0001)     ;
(PID.TID 0000.0001) deltaTFreeSurf = /* FreeSurface equation timestep ( s ) */
(PID.TID 0000.0001)                 9.000000000000000E+02
(PID.TID 0000.0001)     ;
(PID.TID 0000.0001) dTtracerLev =  /* Tracer equation timestep ( s ) */
(PID.TID 0000.0001)    15 @  9.000000000000000E+02              /* K =  1: 15 */
(PID.TID 0000.0001)     ;
(PID.TID 0000.0001) deltaTClock  =   /* Model clock timestep ( s ) */
(PID.TID 0000.0001)                 9.000000000000000E+02
(PID.TID 0000.0001)     ;
(PID.TID 0000.0001) cAdjFreq =   /* Convective adjustment interval ( s ) */
(PID.TID 0000.0001)                 0.000000000000000E+00
(PID.TID 0000.0001)     ;
(PID.TID 0000.0001) momForcingOutAB = /* =1: take Momentum Forcing out of Adams-Bash. stepping */
(PID.TID 0000.0001)                       0
(PID.TID 0000.0001)     ;
(PID.TID 0000.0001) tracForcingOutAB = /* =1: take T,S,pTr Forcing out of Adams-Bash. stepping */
(PID.TID 0000.0001)                       1
(PID.TID 0000.0001)     ;
(PID.TID 0000.0001) momDissip_In_AB = /* put Dissipation Tendency in Adams-Bash. stepping */
(PID.TID 0000.0001)                   T
(PID.TID 0000.0001)     ;
(PID.TID 0000.0001) doAB_onGtGs = /* apply AB on Tendencies (rather than on T,S)*/
(PID.TID 0000.0001)                   T
(PID.TID 0000.0001)     ;
(PID.TID 0000.0001) abEps =   /* Adams-Bashforth-2 stabilizing weight */
(PID.TID 0000.0001)                 1.000000000000000E-01
(PID.TID 0000.0001)     ;
(PID.TID 0000.0001) applyExchUV_early = /* Apply EXCH to U,V earlier in time-step */
(PID.TID 0000.0001)                   F
(PID.TID 0000.0001)     ;
(PID.TID 0000.0001) pickupStrictlyMatch= /* stop if pickup do not strictly match */
(PID.TID 0000.0001)                   T
(PID.TID 0000.0001)     ;
(PID.TID 0000.0001) nIter0   =   /* Run starting timestep number */
(PID.TID 0000.0001)                   72000
(PID.TID 0000.0001)     ;
(PID.TID 0000.0001) nTimeSteps = /* Number of timesteps */
(PID.TID 0000.0001)                      96
(PID.TID 0000.0001)     ;
(PID.TID 0000.0001) nEndIter =   /* Run ending timestep number */
(PID.TID 0000.0001)                   72096
(PID.TID 0000.0001)     ;
(PID.TID 0000.0001) baseTime =   /* Model base time ( s ) */
(PID.TID 0000.0001)                 0.000000000000000E+00
(PID.TID 0000.0001)     ;
(PID.TID 0000.0001) startTime =  /* Run start time ( s ) */
(PID.TID 0000.0001)                 6.480000000000000E+07
(PID.TID 0000.0001)     ;
(PID.TID 0000.0001) endTime  =   /* Integration ending time ( s ) */
(PID.TID 0000.0001)                 6.488640000000000E+07
(PID.TID 0000.0001)     ;
(PID.TID 0000.0001) pChkPtFreq = /* Permanent restart/pickup file interval ( s ) */
(PID.TID 0000.0001)                 0.000000000000000E+00
(PID.TID 0000.0001)     ;
(PID.TID 0000.0001) chkPtFreq  = /* Rolling restart/pickup file interval ( s ) */
(PID.TID 0000.0001)                 0.000000000000000E+00
(PID.TID 0000.0001)     ;
(PID.TID 0000.0001) pickup_write_mdsio =   /* Model IO flag. */
(PID.TID 0000.0001)                   T
(PID.TID 0000.0001)     ;
(PID.TID 0000.0001) pickup_read_mdsio =   /* Model IO flag. */
(PID.TID 0000.0001)                   T
(PID.TID 0000.0001)     ;
(PID.TID 0000.0001) writePickupAtEnd =   /* Model IO flag. */
(PID.TID 0000.0001)                   T
(PID.TID 0000.0001)     ;
(PID.TID 0000.0001) dumpFreq =   /* Model state write out interval ( s ). */
(PID.TID 0000.0001)                 0.000000000000000E+00
(PID.TID 0000.0001)     ;
(PID.TID 0000.0001) dumpInitAndLast= /* write out Initial & Last iter. model state */
(PID.TID 0000.0001)                   T
(PID.TID 0000.0001)     ;
(PID.TID 0000.0001) snapshot_mdsio =   /* Model IO flag. */
(PID.TID 0000.0001)                   T
(PID.TID 0000.0001)     ;
(PID.TID 0000.0001) monitorFreq =   /* Monitor output interval ( s ). */
(PID.TID 0000.0001)                 1.000000000000000E+00
(PID.TID 0000.0001)     ;
(PID.TID 0000.0001) monitorSelect = /* select group of variables to monitor */
(PID.TID 0000.0001)                       3
(PID.TID 0000.0001)     ;
(PID.TID 0000.0001) monitor_stdio =   /* Model IO flag. */
(PID.TID 0000.0001)                   T
(PID.TID 0000.0001)     ;
(PID.TID 0000.0001) externForcingPeriod =   /* forcing period (s) */
(PID.TID 0000.0001)                 0.000000000000000E+00
(PID.TID 0000.0001)     ;
(PID.TID 0000.0001) externForcingCycle =   /* period of the cyle (s). */
(PID.TID 0000.0001)                 0.000000000000000E+00
(PID.TID 0000.0001)     ;
(PID.TID 0000.0001) tauThetaClimRelax =   /* relaxation time scale (s) */
(PID.TID 0000.0001)                 0.000000000000000E+00
(PID.TID 0000.0001)     ;
(PID.TID 0000.0001) tauSaltClimRelax =   /* relaxation time scale (s) */
(PID.TID 0000.0001)                 0.000000000000000E+00
(PID.TID 0000.0001)     ;
(PID.TID 0000.0001) latBandClimRelax =   /* max. Lat. where relaxation */
(PID.TID 0000.0001)                 1.800000000000000E+02
(PID.TID 0000.0001)     ;
(PID.TID 0000.0001) //
(PID.TID 0000.0001) // Gridding paramters ( PARM04 in namelist )
(PID.TID 0000.0001) //
(PID.TID 0000.0001) usingCartesianGrid = /* Cartesian coordinates flag ( True/False ) */
(PID.TID 0000.0001)                   F
(PID.TID 0000.0001)     ;
(PID.TID 0000.0001) usingCylindricalGrid = /* Cylindrical coordinates flag ( True/False ) */
(PID.TID 0000.0001)                   F
(PID.TID 0000.0001)     ;
(PID.TID 0000.0001) usingSphericalPolarGrid = /* Spherical coordinates flag ( True/False ) */
(PID.TID 0000.0001)                   F
(PID.TID 0000.0001)     ;
(PID.TID 0000.0001) usingCurvilinearGrid = /* Curvilinear coordinates flag ( True/False ) */
(PID.TID 0000.0001)                   T
(PID.TID 0000.0001)     ;
(PID.TID 0000.0001) useMin4hFacEdges = /* set hFacW,S as minimum of adjacent hFacC factor */
(PID.TID 0000.0001)                   F
(PID.TID 0000.0001)     ;
(PID.TID 0000.0001) interViscAr_pCell = /* account for partial-cell in interior vert. viscosity */
(PID.TID 0000.0001)                   F
(PID.TID 0000.0001)     ;
(PID.TID 0000.0001) interDiffKr_pCell = /* account for partial-cell in interior vert. diffusion */
(PID.TID 0000.0001)                   F
(PID.TID 0000.0001)     ;
(PID.TID 0000.0001) pCellMix_select = /* option to enhance mixing near surface & bottom */
(PID.TID 0000.0001)                       0
(PID.TID 0000.0001)     ;
(PID.TID 0000.0001) selectSigmaCoord = /* Hybrid-Sigma Vert. Coordinate option */
(PID.TID 0000.0001)                       0
(PID.TID 0000.0001)     ;
(PID.TID 0000.0001) rSigmaBnd = /* r/sigma transition ( units of r ==  m ) */
(PID.TID 0000.0001)                 1.234567000000000E+05
(PID.TID 0000.0001)     ;
(PID.TID 0000.0001) rkSign =   /* index orientation relative to vertical coordinate */
(PID.TID 0000.0001)                -1.000000000000000E+00
(PID.TID 0000.0001)     ;
(PID.TID 0000.0001) gravitySign = /* gravity orientation relative to vertical coordinate */
(PID.TID 0000.0001)                -1.000000000000000E+00
(PID.TID 0000.0001)     ;
(PID.TID 0000.0001) seaLev_Z =  /* reference height of sea-level [m] */
(PID.TID 0000.0001)                 0.000000000000000E+00
(PID.TID 0000.0001)     ;
(PID.TID 0000.0001) top_Pres =  /* reference pressure at the top [Pa] */
(PID.TID 0000.0001)                 0.000000000000000E+00
(PID.TID 0000.0001)     ;
(PID.TID 0000.0001) mass2rUnit = /* convert mass per unit area [kg/m2] to r-units [m] */
(PID.TID 0000.0001)                 9.661835748792270E-04
(PID.TID 0000.0001)     ;
(PID.TID 0000.0001) rUnit2mass = /* convert r-units [m] to mass per unit area [kg/m2] */
(PID.TID 0000.0001)                 1.035000000000000E+03
(PID.TID 0000.0001)     ;
(PID.TID 0000.0001) drC =   /* C spacing ( units of r ) */
(PID.TID 0000.0001)                 2.500000000000000E+01,      /* K =  1 */
(PID.TID 0000.0001)                 6.000000000000000E+01,      /* K =  2 */
(PID.TID 0000.0001)                 8.500000000000000E+01,      /* K =  3 */
(PID.TID 0000.0001)                 1.200000000000000E+02,      /* K =  4 */
(PID.TID 0000.0001)                 1.650000000000000E+02,      /* K =  5 */
(PID.TID 0000.0001)                 2.150000000000000E+02,      /* K =  6 */
(PID.TID 0000.0001)                 2.650000000000000E+02,      /* K =  7 */
(PID.TID 0000.0001)                 3.150000000000000E+02,      /* K =  8 */
(PID.TID 0000.0001)                 3.650000000000000E+02,      /* K =  9 */
(PID.TID 0000.0001)                 4.150000000000000E+02,      /* K = 10 */
(PID.TID 0000.0001)                 4.650000000000000E+02,      /* K = 11 */
(PID.TID 0000.0001)                 5.150000000000000E+02,      /* K = 12 */
(PID.TID 0000.0001)                 5.650000000000000E+02,      /* K = 13 */
(PID.TID 0000.0001)                 6.150000000000000E+02,      /* K = 14 */
(PID.TID 0000.0001)                 6.650000000000000E+02,      /* K = 15 */
(PID.TID 0000.0001)                 3.450000000000000E+02       /* K = 16 */
(PID.TID 0000.0001)     ;
(PID.TID 0000.0001) drF =   /* W spacing ( units of r ) */
(PID.TID 0000.0001)                 5.000000000000000E+01,      /* K =  1 */
(PID.TID 0000.0001)                 7.000000000000000E+01,      /* K =  2 */
(PID.TID 0000.0001)                 1.000000000000000E+02,      /* K =  3 */
(PID.TID 0000.0001)                 1.400000000000000E+02,      /* K =  4 */
(PID.TID 0000.0001)                 1.900000000000000E+02,      /* K =  5 */
(PID.TID 0000.0001)                 2.400000000000000E+02,      /* K =  6 */
(PID.TID 0000.0001)                 2.900000000000000E+02,      /* K =  7 */
(PID.TID 0000.0001)                 3.400000000000000E+02,      /* K =  8 */
(PID.TID 0000.0001)                 3.900000000000000E+02,      /* K =  9 */
(PID.TID 0000.0001)                 4.400000000000000E+02,      /* K = 10 */
(PID.TID 0000.0001)                 4.900000000000000E+02,      /* K = 11 */
(PID.TID 0000.0001)                 5.400000000000000E+02,      /* K = 12 */
(PID.TID 0000.0001)                 5.900000000000000E+02,      /* K = 13 */
(PID.TID 0000.0001)                 6.400000000000000E+02,      /* K = 14 */
(PID.TID 0000.0001)                 6.900000000000000E+02       /* K = 15 */
(PID.TID 0000.0001)     ;
(PID.TID 0000.0001) radius_fromHorizGrid = /* sphere Radius of input horiz. grid */
(PID.TID 0000.0001)                 6.370000000000000E+06
(PID.TID 0000.0001)     ;
(PID.TID 0000.0001) rSphere =  /* Radius ( ignored - cartesian, m - spherical ) */
(PID.TID 0000.0001)                 6.370000000000000E+06
(PID.TID 0000.0001)     ;
(PID.TID 0000.0001) deepAtmosphere = /* Deep/Shallow Atmosphere flag (True/False) */
(PID.TID 0000.0001)                   F
(PID.TID 0000.0001)     ;
(PID.TID 0000.0001) xC =  /* xC(:,1,:,1) : P-point X coord ( deg. or m if cartesian) */
(PID.TID 0000.0001)                -4.439521994760536E+01,      /* I =  1 */
(PID.TID 0000.0001)                -4.295641272275883E+01,      /* I =  2 */
(PID.TID 0000.0001)                -4.122055553388957E+01,      /* I =  3 */
(PID.TID 0000.0001)                -3.923446288487304E+01,      /* I =  4 */
(PID.TID 0000.0001)                -3.702585158682200E+01,      /* I =  5 */
(PID.TID 0000.0001)                -3.461179367094151E+01,      /* I =  6 */
(PID.TID 0000.0001)                -3.200434569041793E+01,      /* I =  7 */
(PID.TID 0000.0001)                -2.921355965632675E+01,      /* I =  8 */
(PID.TID 0000.0001)                -2.624932223028290E+01,      /* I =  9 */
(PID.TID 0000.0001)                -2.312261250426344E+01,      /* I = 10 */
(PID.TID 0000.0001)                -1.984640717127058E+01,      /* I = 11 */
(PID.TID 0000.0001)                -1.643630800555134E+01,      /* I = 12 */
(PID.TID 0000.0001)                -1.291089806302069E+01,      /* I = 13 */
(PID.TID 0000.0001)                -9.291807802719402E+00,      /* I = 14 */
(PID.TID 0000.0001)                -5.603475335822332E+00,      /* I = 15 */
(PID.TID 0000.0001)                -1.872608513033445E+00,      /* I = 16 */
(PID.TID 0000.0001)                 1.872608513033445E+00,      /* I = 17 */
(PID.TID 0000.0001)                 5.603475335822332E+00,      /* I = 18 */
(PID.TID 0000.0001)                 9.291807802719402E+00,      /* I = 19 */
(PID.TID 0000.0001)                 1.291089806302069E+01,      /* I = 20 */
(PID.TID 0000.0001)                 1.643630800555134E+01,      /* I = 21 */
(PID.TID 0000.0001)                 1.984640717127058E+01,      /* I = 22 */
(PID.TID 0000.0001)                 2.312261250426344E+01,      /* I = 23 */
(PID.TID 0000.0001)                 2.624932223028290E+01,      /* I = 24 */
(PID.TID 0000.0001)                 2.921355965632675E+01,      /* I = 25 */
(PID.TID 0000.0001)                 3.200434569041793E+01,      /* I = 26 */
(PID.TID 0000.0001)                 3.461179367094151E+01,      /* I = 27 */
(PID.TID 0000.0001)                 3.702585158682200E+01,      /* I = 28 */
(PID.TID 0000.0001)                 3.923446288487304E+01,      /* I = 29 */
(PID.TID 0000.0001)                 4.122055553388957E+01,      /* I = 30 */
(PID.TID 0000.0001)                 4.295641272275883E+01,      /* I = 31 */
(PID.TID 0000.0001)                 4.439521994760536E+01       /* I = 32 */
(PID.TID 0000.0001)     ;
(PID.TID 0000.0001) yC =  /* yC(1,:,1,:) : P-point Y coord ( deg. or m if cartesian) */
(PID.TID 0000.0001)                -3.497677942598243E+01,      /* J =  1 */
(PID.TID 0000.0001)                -3.374005967394886E+01,      /* J =  2 */
(PID.TID 0000.0001)                -3.220655175667454E+01,      /* J =  3 */
(PID.TID 0000.0001)                -3.045756348838641E+01,      /* J =  4 */
(PID.TID 0000.0001)                -2.853728129852918E+01,      /* J =  5 */
(PID.TID 0000.0001)                -2.647426640173173E+01,      /* J =  6 */
(PID.TID 0000.0001)                -2.428936657094636E+01,      /* J =  7 */
(PID.TID 0000.0001)                -2.199915808312262E+01,      /* J =  8 */
(PID.TID 0000.0001)                -1.961768597440146E+01,      /* J =  9 */
(PID.TID 0000.0001)                -1.715743888281371E+01,      /* J = 10 */
(PID.TID 0000.0001)                -1.462993396899330E+01,      /* J = 11 */
(PID.TID 0000.0001)                -1.204608340464756E+01,      /* J = 12 */
(PID.TID 0000.0001)                -9.416429130284818E+00,      /* J = 13 */
(PID.TID 0000.0001)                -6.751293662992216E+00,      /* J = 14 */
(PID.TID 0000.0001)                -4.060875511835959E+00,      /* J = 15 */
(PID.TID 0000.0001)                -1.355307764409121E+00,      /* J = 16 */
(PID.TID 0000.0001)                 1.355307764409121E+00,      /* J = 17 */
(PID.TID 0000.0001)                 4.060875511835959E+00,      /* J = 18 */
(PID.TID 0000.0001)                 6.751293662992216E+00,      /* J = 19 */
(PID.TID 0000.0001)                 9.416429130284818E+00,      /* J = 20 */
(PID.TID 0000.0001)                 1.204608340464756E+01,      /* J = 21 */
(PID.TID 0000.0001)                 1.462993396899330E+01,      /* J = 22 */
(PID.TID 0000.0001)                 1.715743888281371E+01,      /* J = 23 */
(PID.TID 0000.0001)                 1.961768597440146E+01,      /* J = 24 */
(PID.TID 0000.0001)                 2.199915808312262E+01,      /* J = 25 */
(PID.TID 0000.0001)                 2.428936657094636E+01,      /* J = 26 */
(PID.TID 0000.0001)                 2.647426640173173E+01,      /* J = 27 */
(PID.TID 0000.0001)                 2.853728129852918E+01,      /* J = 28 */
(PID.TID 0000.0001)                 3.045756348838641E+01,      /* J = 29 */
(PID.TID 0000.0001)                 3.220655175667454E+01,      /* J = 30 */
(PID.TID 0000.0001)                 3.374005967394886E+01,      /* J = 31 */
(PID.TID 0000.0001)                 3.497677942598243E+01       /* J = 32 */
(PID.TID 0000.0001)     ;
(PID.TID 0000.0001) rcoord = /* P-point R coordinate (  units of r ) */
(PID.TID 0000.0001)                -2.500000000000000E+01,      /* K =  1 */
(PID.TID 0000.0001)                -8.500000000000000E+01,      /* K =  2 */
(PID.TID 0000.0001)                -1.700000000000000E+02,      /* K =  3 */
(PID.TID 0000.0001)                -2.900000000000000E+02,      /* K =  4 */
(PID.TID 0000.0001)                -4.550000000000000E+02,      /* K =  5 */
(PID.TID 0000.0001)                -6.700000000000000E+02,      /* K =  6 */
(PID.TID 0000.0001)                -9.350000000000000E+02,      /* K =  7 */
(PID.TID 0000.0001)                -1.250000000000000E+03,      /* K =  8 */
(PID.TID 0000.0001)                -1.615000000000000E+03,      /* K =  9 */
(PID.TID 0000.0001)                -2.030000000000000E+03,      /* K = 10 */
(PID.TID 0000.0001)                -2.495000000000000E+03,      /* K = 11 */
(PID.TID 0000.0001)                -3.010000000000000E+03,      /* K = 12 */
(PID.TID 0000.0001)                -3.575000000000000E+03,      /* K = 13 */
(PID.TID 0000.0001)                -4.190000000000000E+03,      /* K = 14 */
(PID.TID 0000.0001)                -4.855000000000000E+03       /* K = 15 */
(PID.TID 0000.0001)     ;
(PID.TID 0000.0001) rF =   /* W-Interf. R coordinate (  units of r ) */
(PID.TID 0000.0001)                 0.000000000000000E+00,      /* K =  1 */
(PID.TID 0000.0001)                -5.000000000000000E+01,      /* K =  2 */
(PID.TID 0000.0001)                -1.200000000000000E+02,      /* K =  3 */
(PID.TID 0000.0001)                -2.200000000000000E+02,      /* K =  4 */
(PID.TID 0000.0001)                -3.600000000000000E+02,      /* K =  5 */
(PID.TID 0000.0001)                -5.500000000000000E+02,      /* K =  6 */
(PID.TID 0000.0001)                -7.900000000000000E+02,      /* K =  7 */
(PID.TID 0000.0001)                -1.080000000000000E+03,      /* K =  8 */
(PID.TID 0000.0001)                -1.420000000000000E+03,      /* K =  9 */
(PID.TID 0000.0001)                -1.810000000000000E+03,      /* K = 10 */
(PID.TID 0000.0001)                -2.250000000000000E+03,      /* K = 11 */
(PID.TID 0000.0001)                -2.740000000000000E+03,      /* K = 12 */
(PID.TID 0000.0001)                -3.280000000000000E+03,      /* K = 13 */
(PID.TID 0000.0001)                -3.870000000000000E+03,      /* K = 14 */
(PID.TID 0000.0001)                -4.510000000000000E+03,      /* K = 15 */
(PID.TID 0000.0001)                -5.200000000000000E+03       /* K = 16 */
(PID.TID 0000.0001)     ;
(PID.TID 0000.0001) deepFacC = /* deep-model grid factor @ cell-Center (-) */
(PID.TID 0000.0001)    15 @  1.000000000000000E+00              /* K =  1: 15 */
(PID.TID 0000.0001)     ;
(PID.TID 0000.0001) deepFacF = /* deep-model grid factor @ W-Interface (-) */
(PID.TID 0000.0001)    16 @  1.000000000000000E+00              /* K =  1: 16 */
(PID.TID 0000.0001)     ;
(PID.TID 0000.0001) rVel2wUnit = /* convert units: rVel -> wSpeed (=1 if z-coord)*/
(PID.TID 0000.0001)    16 @  1.000000000000000E+00              /* K =  1: 16 */
(PID.TID 0000.0001)     ;
(PID.TID 0000.0001) wUnit2rVel = /* convert units: wSpeed -> rVel (=1 if z-coord)*/
(PID.TID 0000.0001)    16 @  1.000000000000000E+00              /* K =  1: 16 */
(PID.TID 0000.0001)     ;
(PID.TID 0000.0001) dBdrRef = /* Vertical grad. of reference buoyancy [(m/s/r)^2] */
(PID.TID 0000.0001)    15 @  0.000000000000000E+00              /* K =  1: 15 */
(PID.TID 0000.0001)     ;
(PID.TID 0000.0001) rotateGrid = /* use rotated grid ( True/False ) */
(PID.TID 0000.0001)                   F
(PID.TID 0000.0001)     ;
(PID.TID 0000.0001) phiEuler = /* Euler angle, rotation about original z-coordinate [rad] */
(PID.TID 0000.0001)                 0.000000000000000E+00
(PID.TID 0000.0001)     ;
(PID.TID 0000.0001) thetaEuler = /* Euler angle, rotation about new x-coordinate [rad] */
(PID.TID 0000.0001)                 0.000000000000000E+00
(PID.TID 0000.0001)     ;
(PID.TID 0000.0001) psiEuler = /* Euler angle, rotation about new z-coordinate [rad] */
(PID.TID 0000.0001)                 0.000000000000000E+00
(PID.TID 0000.0001)     ;
(PID.TID 0000.0001) dxF =  /* dxF(:,1,:,1) ( units: m ) */
(PID.TID 0000.0001)                 1.202082051331828E+05,      /* I =  1 */
(PID.TID 0000.0001)                 1.563594089971120E+05,      /* I =  2 */
(PID.TID 0000.0001)                 1.835530058121492E+05,      /* I =  3 */
(PID.TID 0000.0001)                 2.045883481718707E+05,      /* I =  4 */
(PID.TID 0000.0001)                 2.218350349844185E+05,      /* I =  5 */
(PID.TID 0000.0001)                 2.364352994647058E+05,      /* I =  6 */
(PID.TID 0000.0001)                 2.490022710862746E+05,      /* I =  7 */
(PID.TID 0000.0001)                 2.598919724358304E+05,      /* I =  8 */
(PID.TID 0000.0001)                 2.693210245495156E+05,      /* I =  9 */
(PID.TID 0000.0001)                 2.774243179696503E+05,      /* I = 10 */
(PID.TID 0000.0001)                 2.842862532064524E+05,      /* I = 11 */
(PID.TID 0000.0001)                 2.899590699694043E+05,      /* I = 12 */
(PID.TID 0000.0001)                 2.944742915095688E+05,      /* I = 13 */
(PID.TID 0000.0001)                 2.978501920522794E+05,      /* I = 14 */
(PID.TID 0000.0001)                 3.000967749619962E+05,      /* I = 15 */
(PID.TID 0000.0001)     2 @  3.012190981969055E+05,             /* I = 16: 17 */
(PID.TID 0000.0001)                 3.000967749619962E+05,      /* I = 18 */
(PID.TID 0000.0001)                 2.978501920522794E+05,      /* I = 19 */
(PID.TID 0000.0001)                 2.944742915095688E+05,      /* I = 20 */
(PID.TID 0000.0001)                 2.899590699694043E+05,      /* I = 21 */
(PID.TID 0000.0001)                 2.842862532064524E+05,      /* I = 22 */
(PID.TID 0000.0001)                 2.774243179696503E+05,      /* I = 23 */
(PID.TID 0000.0001)                 2.693210245495156E+05,      /* I = 24 */
(PID.TID 0000.0001)                 2.598919724358304E+05,      /* I = 25 */
(PID.TID 0000.0001)                 2.490022710862746E+05,      /* I = 26 */
(PID.TID 0000.0001)                 2.364352994647058E+05,      /* I = 27 */
(PID.TID 0000.0001)                 2.218350349844185E+05,      /* I = 28 */
(PID.TID 0000.0001)                 2.045883481718707E+05,      /* I = 29 */
(PID.TID 0000.0001)                 1.835530058121492E+05,      /* I = 30 */
(PID.TID 0000.0001)                 1.563594089971120E+05,      /* I = 31 */
(PID.TID 0000.0001)                 1.202082051331828E+05       /* I = 32 */
(PID.TID 0000.0001)     ;
(PID.TID 0000.0001) dxF =  /* dxF(1,:,1,:) ( units: m ) */
(PID.TID 0000.0001)                 1.202082051331828E+05,      /* J =  1 */
(PID.TID 0000.0001)                 1.572908084538706E+05,      /* J =  2 */
(PID.TID 0000.0001)                 1.840412227747703E+05,      /* J =  3 */
(PID.TID 0000.0001)                 2.048868197919576E+05,      /* J =  4 */
(PID.TID 0000.0001)                 2.220405216043041E+05,      /* J =  5 */
(PID.TID 0000.0001)                 2.365892017348392E+05,      /* J =  6 */
(PID.TID 0000.0001)                 2.491250781852558E+05,      /* J =  7 */
(PID.TID 0000.0001)                 2.599949918261881E+05,      /* J =  8 */
(PID.TID 0000.0001)                 2.694110134598581E+05,      /* J =  9 */
(PID.TID 0000.0001)                 2.775055554645015E+05,      /* J = 10 */
(PID.TID 0000.0001)                 2.843615645344775E+05,      /* J = 11 */
(PID.TID 0000.0001)                 2.900303768613599E+05,      /* J = 12 */
(PID.TID 0000.0001)                 2.945429307892709E+05,      /* J = 13 */
(PID.TID 0000.0001)                 2.979171143158405E+05,      /* J = 14 */
(PID.TID 0000.0001)                 3.001626787528886E+05,      /* J = 15 */
(PID.TID 0000.0001)     2 @  3.012844832048790E+05,             /* J = 16: 17 */
(PID.TID 0000.0001)                 3.001626787528886E+05,      /* J = 18 */
(PID.TID 0000.0001)                 2.979171143158405E+05,      /* J = 19 */
(PID.TID 0000.0001)                 2.945429307892709E+05,      /* J = 20 */
(PID.TID 0000.0001)                 2.900303768613599E+05,      /* J = 21 */
(PID.TID 0000.0001)                 2.843615645344775E+05,      /* J = 22 */
(PID.TID 0000.0001)                 2.775055554645015E+05,      /* J = 23 */
(PID.TID 0000.0001)                 2.694110134598581E+05,      /* J = 24 */
(PID.TID 0000.0001)                 2.599949918261881E+05,      /* J = 25 */
(PID.TID 0000.0001)                 2.491250781852558E+05,      /* J = 26 */
(PID.TID 0000.0001)                 2.365892017348392E+05,      /* J = 27 */
(PID.TID 0000.0001)                 2.220405216043041E+05,      /* J = 28 */
(PID.TID 0000.0001)                 2.048868197919576E+05,      /* J = 29 */
(PID.TID 0000.0001)                 1.840412227747703E+05,      /* J = 30 */
(PID.TID 0000.0001)                 1.572908084538706E+05,      /* J = 31 */
(PID.TID 0000.0001)                 1.202082051331828E+05       /* J = 32 */
(PID.TID 0000.0001)     ;
(PID.TID 0000.0001) dyF =  /* dyF(:,1,:,1) ( units: m ) */
(PID.TID 0000.0001)                 1.202082051331828E+05,      /* I =  1 */
(PID.TID 0000.0001)                 1.572908084538706E+05,      /* I =  2 */
(PID.TID 0000.0001)                 1.840412227747703E+05,      /* I =  3 */
(PID.TID 0000.0001)                 2.048868197919576E+05,      /* I =  4 */
(PID.TID 0000.0001)                 2.220405216043041E+05,      /* I =  5 */
(PID.TID 0000.0001)                 2.365892017348392E+05,      /* I =  6 */
(PID.TID 0000.0001)                 2.491250781852558E+05,      /* I =  7 */
(PID.TID 0000.0001)                 2.599949918261881E+05,      /* I =  8 */
(PID.TID 0000.0001)                 2.694110134598581E+05,      /* I =  9 */
(PID.TID 0000.0001)                 2.775055554645015E+05,      /* I = 10 */
(PID.TID 0000.0001)                 2.843615645344775E+05,      /* I = 11 */
(PID.TID 0000.0001)                 2.900303768613599E+05,      /* I = 12 */
(PID.TID 0000.0001)                 2.945429307892709E+05,      /* I = 13 */
(PID.TID 0000.0001)                 2.979171143158405E+05,      /* I = 14 */
(PID.TID 0000.0001)                 3.001626787528886E+05,      /* I = 15 */
(PID.TID 0000.0001)     2 @  3.012844832048790E+05,             /* I = 16: 17 */
(PID.TID 0000.0001)                 3.001626787528886E+05,      /* I = 18 */
(PID.TID 0000.0001)                 2.979171143158405E+05,      /* I = 19 */
(PID.TID 0000.0001)                 2.945429307892709E+05,      /* I = 20 */
(PID.TID 0000.0001)                 2.900303768613599E+05,      /* I = 21 */
(PID.TID 0000.0001)                 2.843615645344775E+05,      /* I = 22 */
(PID.TID 0000.0001)                 2.775055554645015E+05,      /* I = 23 */
(PID.TID 0000.0001)                 2.694110134598581E+05,      /* I = 24 */
(PID.TID 0000.0001)                 2.599949918261881E+05,      /* I = 25 */
(PID.TID 0000.0001)                 2.491250781852558E+05,      /* I = 26 */
(PID.TID 0000.0001)                 2.365892017348392E+05,      /* I = 27 */
(PID.TID 0000.0001)                 2.220405216043041E+05,      /* I = 28 */
(PID.TID 0000.0001)                 2.048868197919576E+05,      /* I = 29 */
(PID.TID 0000.0001)                 1.840412227747703E+05,      /* I = 30 */
(PID.TID 0000.0001)                 1.572908084538706E+05,      /* I = 31 */
(PID.TID 0000.0001)                 1.202082051331828E+05       /* I = 32 */
(PID.TID 0000.0001)     ;
(PID.TID 0000.0001) dyF =  /* dyF(1,:,1,:) ( units: m ) */
(PID.TID 0000.0001)                 1.202082051331828E+05,      /* J =  1 */
(PID.TID 0000.0001)                 1.563594089971120E+05,      /* J =  2 */
(PID.TID 0000.0001)                 1.835530058121492E+05,      /* J =  3 */
(PID.TID 0000.0001)                 2.045883481718707E+05,      /* J =  4 */
(PID.TID 0000.0001)                 2.218350349844185E+05,      /* J =  5 */
(PID.TID 0000.0001)                 2.364352994647058E+05,      /* J =  6 */
(PID.TID 0000.0001)                 2.490022710862746E+05,      /* J =  7 */
(PID.TID 0000.0001)                 2.598919724358304E+05,      /* J =  8 */
(PID.TID 0000.0001)                 2.693210245495156E+05,      /* J =  9 */
(PID.TID 0000.0001)                 2.774243179696503E+05,      /* J = 10 */
(PID.TID 0000.0001)                 2.842862532064524E+05,      /* J = 11 */
(PID.TID 0000.0001)                 2.899590699694043E+05,      /* J = 12 */
(PID.TID 0000.0001)                 2.944742915095688E+05,      /* J = 13 */
(PID.TID 0000.0001)                 2.978501920522794E+05,      /* J = 14 */
(PID.TID 0000.0001)                 3.000967749619962E+05,      /* J = 15 */
(PID.TID 0000.0001)     2 @  3.012190981969055E+05,             /* J = 16: 17 */
(PID.TID 0000.0001)                 3.000967749619962E+05,      /* J = 18 */
(PID.TID 0000.0001)                 2.978501920522794E+05,      /* J = 19 */
(PID.TID 0000.0001)                 2.944742915095688E+05,      /* J = 20 */
(PID.TID 0000.0001)                 2.899590699694043E+05,      /* J = 21 */
(PID.TID 0000.0001)                 2.842862532064524E+05,      /* J = 22 */
(PID.TID 0000.0001)                 2.774243179696503E+05,      /* J = 23 */
(PID.TID 0000.0001)                 2.693210245495156E+05,      /* J = 24 */
(PID.TID 0000.0001)                 2.598919724358304E+05,      /* J = 25 */
(PID.TID 0000.0001)                 2.490022710862746E+05,      /* J = 26 */
(PID.TID 0000.0001)                 2.364352994647058E+05,      /* J = 27 */
(PID.TID 0000.0001)                 2.218350349844185E+05,      /* J = 28 */
(PID.TID 0000.0001)                 2.045883481718707E+05,      /* J = 29 */
(PID.TID 0000.0001)                 1.835530058121492E+05,      /* J = 30 */
(PID.TID 0000.0001)                 1.563594089971120E+05,      /* J = 31 */
(PID.TID 0000.0001)                 1.202082051331828E+05       /* J = 32 */
(PID.TID 0000.0001)     ;
(PID.TID 0000.0001) dxG =  /* dxG(:,1,:,1) ( units: m ) */
(PID.TID 0000.0001)                 1.009837800879055E+05,      /* I =  1 */
(PID.TID 0000.0001)                 1.534505834330338E+05,      /* I =  2 */
(PID.TID 0000.0001)                 1.823321598773926E+05,      /* I =  3 */
(PID.TID 0000.0001)                 2.038999045536999E+05,      /* I =  4 */
(PID.TID 0000.0001)                 2.213884732245467E+05,      /* I =  5 */
(PID.TID 0000.0001)                 2.361211699596122E+05,      /* I =  6 */
(PID.TID 0000.0001)                 2.487693460283865E+05,      /* I =  7 */
(PID.TID 0000.0001)                 2.597126963772147E+05,      /* I =  8 */
(PID.TID 0000.0001)                 2.691790288994575E+05,      /* I =  9 */
(PID.TID 0000.0001)                 2.773091043277394E+05,      /* I = 10 */
(PID.TID 0000.0001)                 2.841906470085516E+05,      /* I = 11 */
(PID.TID 0000.0001)                 2.898778860929753E+05,      /* I = 12 */
(PID.TID 0000.0001)                 2.944035815526416E+05,      /* I = 13 */
(PID.TID 0000.0001)                 2.977867909042096E+05,      /* I = 14 */
(PID.TID 0000.0001)                 3.000380090330854E+05,      /* I = 15 */
(PID.TID 0000.0001)     2 @  3.011625828699101E+05,             /* I = 16: 17 */
(PID.TID 0000.0001)                 3.000380090330854E+05,      /* I = 18 */
(PID.TID 0000.0001)                 2.977867909042096E+05,      /* I = 19 */
(PID.TID 0000.0001)                 2.944035815526416E+05,      /* I = 20 */
(PID.TID 0000.0001)                 2.898778860929753E+05,      /* I = 21 */
(PID.TID 0000.0001)                 2.841906470085516E+05,      /* I = 22 */
(PID.TID 0000.0001)                 2.773091043277394E+05,      /* I = 23 */
(PID.TID 0000.0001)                 2.691790288994575E+05,      /* I = 24 */
(PID.TID 0000.0001)                 2.597126963772147E+05,      /* I = 25 */
(PID.TID 0000.0001)                 2.487693460283865E+05,      /* I = 26 */
(PID.TID 0000.0001)                 2.361211699596122E+05,      /* I = 27 */
(PID.TID 0000.0001)                 2.213884732245467E+05,      /* I = 28 */
(PID.TID 0000.0001)                 2.038999045536999E+05,      /* I = 29 */
(PID.TID 0000.0001)                 1.823321598773926E+05,      /* I = 30 */
(PID.TID 0000.0001)                 1.534505834330338E+05,      /* I = 31 */
(PID.TID 0000.0001)                 1.009837800879055E+05       /* I = 32 */
(PID.TID 0000.0001)     ;
(PID.TID 0000.0001) dxG =  /* dxG(1,:,1,:) ( units: m ) */
(PID.TID 0000.0001)                 1.009837800879055E+05,      /* J =  1 */
(PID.TID 0000.0001)                 1.403701524205398E+05,      /* J =  2 */
(PID.TID 0000.0001)                 1.716197227386011E+05,      /* J =  3 */
(PID.TID 0000.0001)                 1.950254041626018E+05,      /* J =  4 */
(PID.TID 0000.0001)                 2.138410773065497E+05,      /* J =  5 */
(PID.TID 0000.0001)                 2.295958105911512E+05,      /* J =  6 */
(PID.TID 0000.0001)                 2.430829951739083E+05,      /* J =  7 */
(PID.TID 0000.0001)                 2.547526806712889E+05,      /* J =  8 */
(PID.TID 0000.0001)                 2.648750305193301E+05,      /* J =  9 */
(PID.TID 0000.0001)                 2.736173771018112E+05,      /* J = 10 */
(PID.TID 0000.0001)                 2.810845823202647E+05,      /* J = 11 */
(PID.TID 0000.0001)                 2.873420591008078E+05,      /* J = 12 */
(PID.TID 0000.0001)                 2.924298293668651E+05,      /* J = 13 */
(PID.TID 0000.0001)                 2.963715635865306E+05,      /* J = 14 */
(PID.TID 0000.0001)                 2.991805843171258E+05,      /* J = 15 */
(PID.TID 0000.0001)                 3.008638765647886E+05,      /* J = 16 */
(PID.TID 0000.0001)                 3.014246674484008E+05,      /* J = 17 */
(PID.TID 0000.0001)                 3.008638765647886E+05,      /* J = 18 */
(PID.TID 0000.0001)                 2.991805843171258E+05,      /* J = 19 */
(PID.TID 0000.0001)                 2.963715635865306E+05,      /* J = 20 */
(PID.TID 0000.0001)                 2.924298293668651E+05,      /* J = 21 */
(PID.TID 0000.0001)                 2.873420591008078E+05,      /* J = 22 */
(PID.TID 0000.0001)                 2.810845823202647E+05,      /* J = 23 */
(PID.TID 0000.0001)                 2.736173771018112E+05,      /* J = 24 */
(PID.TID 0000.0001)                 2.648750305193301E+05,      /* J = 25 */
(PID.TID 0000.0001)                 2.547526806712889E+05,      /* J = 26 */
(PID.TID 0000.0001)                 2.430829951739083E+05,      /* J = 27 */
(PID.TID 0000.0001)                 2.295958105911512E+05,      /* J = 28 */
(PID.TID 0000.0001)                 2.138410773065497E+05,      /* J = 29 */
(PID.TID 0000.0001)                 1.950254041626018E+05,      /* J = 30 */
(PID.TID 0000.0001)                 1.716197227386011E+05,      /* J = 31 */
(PID.TID 0000.0001)                 1.403701524205398E+05       /* J = 32 */
(PID.TID 0000.0001)     ;
(PID.TID 0000.0001) dyG =  /* dyG(:,1,:,1) ( units: m ) */
(PID.TID 0000.0001)                 1.009837800879055E+05,      /* I =  1 */
(PID.TID 0000.0001)                 1.403701524205398E+05,      /* I =  2 */
(PID.TID 0000.0001)                 1.716197227386011E+05,      /* I =  3 */
(PID.TID 0000.0001)                 1.950254041626018E+05,      /* I =  4 */
(PID.TID 0000.0001)                 2.138410773065497E+05,      /* I =  5 */
(PID.TID 0000.0001)                 2.295958105911512E+05,      /* I =  6 */
(PID.TID 0000.0001)                 2.430829951739083E+05,      /* I =  7 */
(PID.TID 0000.0001)                 2.547526806712889E+05,      /* I =  8 */
(PID.TID 0000.0001)                 2.648750305193301E+05,      /* I =  9 */
(PID.TID 0000.0001)                 2.736173771018112E+05,      /* I = 10 */
(PID.TID 0000.0001)                 2.810845823202647E+05,      /* I = 11 */
(PID.TID 0000.0001)                 2.873420591008078E+05,      /* I = 12 */
(PID.TID 0000.0001)                 2.924298293668651E+05,      /* I = 13 */
(PID.TID 0000.0001)                 2.963715635865306E+05,      /* I = 14 */
(PID.TID 0000.0001)                 2.991805843171258E+05,      /* I = 15 */
(PID.TID 0000.0001)                 3.008638765647886E+05,      /* I = 16 */
(PID.TID 0000.0001)                 3.014246674484008E+05,      /* I = 17 */
(PID.TID 0000.0001)                 3.008638765647886E+05,      /* I = 18 */
(PID.TID 0000.0001)                 2.991805843171258E+05,      /* I = 19 */
(PID.TID 0000.0001)                 2.963715635865306E+05,      /* I = 20 */
(PID.TID 0000.0001)                 2.924298293668651E+05,      /* I = 21 */
(PID.TID 0000.0001)                 2.873420591008078E+05,      /* I = 22 */
(PID.TID 0000.0001)                 2.810845823202647E+05,      /* I = 23 */
(PID.TID 0000.0001)                 2.736173771018112E+05,      /* I = 24 */
(PID.TID 0000.0001)                 2.648750305193301E+05,      /* I = 25 */
(PID.TID 0000.0001)                 2.547526806712889E+05,      /* I = 26 */
(PID.TID 0000.0001)                 2.430829951739083E+05,      /* I = 27 */
(PID.TID 0000.0001)                 2.295958105911512E+05,      /* I = 28 */
(PID.TID 0000.0001)                 2.138410773065497E+05,      /* I = 29 */
(PID.TID 0000.0001)                 1.950254041626018E+05,      /* I = 30 */
(PID.TID 0000.0001)                 1.716197227386011E+05,      /* I = 31 */
(PID.TID 0000.0001)                 1.403701524205398E+05       /* I = 32 */
(PID.TID 0000.0001)     ;
(PID.TID 0000.0001) dyG =  /* dyG(1,:,1,:) ( units: m ) */
(PID.TID 0000.0001)                 1.009837800879055E+05,      /* J =  1 */
(PID.TID 0000.0001)                 1.534505834330338E+05,      /* J =  2 */
(PID.TID 0000.0001)                 1.823321598773926E+05,      /* J =  3 */
(PID.TID 0000.0001)                 2.038999045536999E+05,      /* J =  4 */
(PID.TID 0000.0001)                 2.213884732245467E+05,      /* J =  5 */
(PID.TID 0000.0001)                 2.361211699596122E+05,      /* J =  6 */
(PID.TID 0000.0001)                 2.487693460283865E+05,      /* J =  7 */
(PID.TID 0000.0001)                 2.597126963772147E+05,      /* J =  8 */
(PID.TID 0000.0001)                 2.691790288994575E+05,      /* J =  9 */
(PID.TID 0000.0001)                 2.773091043277394E+05,      /* J = 10 */
(PID.TID 0000.0001)                 2.841906470085516E+05,      /* J = 11 */
(PID.TID 0000.0001)                 2.898778860929753E+05,      /* J = 12 */
(PID.TID 0000.0001)                 2.944035815526416E+05,      /* J = 13 */
(PID.TID 0000.0001)                 2.977867909042096E+05,      /* J = 14 */
(PID.TID 0000.0001)                 3.000380090330854E+05,      /* J = 15 */
(PID.TID 0000.0001)     2 @  3.011625828699101E+05,             /* J = 16: 17 */
(PID.TID 0000.0001)                 3.000380090330854E+05,      /* J = 18 */
(PID.TID 0000.0001)                 2.977867909042096E+05,      /* J = 19 */
(PID.TID 0000.0001)                 2.944035815526416E+05,      /* J = 20 */
(PID.TID 0000.0001)                 2.898778860929753E+05,      /* J = 21 */
(PID.TID 0000.0001)                 2.841906470085516E+05,      /* J = 22 */
(PID.TID 0000.0001)                 2.773091043277394E+05,      /* J = 23 */
(PID.TID 0000.0001)                 2.691790288994575E+05,      /* J = 24 */
(PID.TID 0000.0001)                 2.597126963772147E+05,      /* J = 25 */
(PID.TID 0000.0001)                 2.487693460283865E+05,      /* J = 26 */
(PID.TID 0000.0001)                 2.361211699596122E+05,      /* J = 27 */
(PID.TID 0000.0001)                 2.213884732245467E+05,      /* J = 28 */
(PID.TID 0000.0001)                 2.038999045536999E+05,      /* J = 29 */
(PID.TID 0000.0001)                 1.823321598773926E+05,      /* J = 30 */
(PID.TID 0000.0001)                 1.534505834330338E+05,      /* J = 31 */
(PID.TID 0000.0001)                 1.009837800879055E+05       /* J = 32 */
(PID.TID 0000.0001)     ;
(PID.TID 0000.0001) dxC =  /* dxC(:,1,:,1) ( units: m ) */
(PID.TID 0000.0001)                 1.114203141013064E+05,      /* I =  1 */
(PID.TID 0000.0001)                 1.391343389937106E+05,      /* I =  2 */
(PID.TID 0000.0001)                 1.709574999026266E+05,      /* I =  3 */
(PID.TID 0000.0001)                 1.946503699269892E+05,      /* I =  4 */
(PID.TID 0000.0001)                 2.135964483342134E+05,      /* I =  5 */
(PID.TID 0000.0001)                 2.294195678257306E+05,      /* I =  6 */
(PID.TID 0000.0001)                 2.429464709770498E+05,      /* I =  7 */
(PID.TID 0000.0001)                 2.546408290696998E+05,      /* I =  8 */
(PID.TID 0000.0001)                 2.647791839299727E+05,      /* I =  9 */
(PID.TID 0000.0001)                 2.735321911346108E+05,      /* I = 10 */
(PID.TID 0000.0001)                 2.810065951609633E+05,      /* I = 11 */
(PID.TID 0000.0001)                 2.872689479506990E+05,      /* I = 12 */
(PID.TID 0000.0001)                 2.923599955312932E+05,      /* I = 13 */
(PID.TID 0000.0001)                 2.963038832565530E+05,      /* I = 14 */
(PID.TID 0000.0001)                 2.991142470004740E+05,      /* I = 15 */
(PID.TID 0000.0001)                 3.007982711627968E+05,      /* I = 16 */
(PID.TID 0000.0001)                 3.013593857228136E+05,      /* I = 17 */
(PID.TID 0000.0001)                 3.007982711627968E+05,      /* I = 18 */
(PID.TID 0000.0001)                 2.991142470004740E+05,      /* I = 19 */
(PID.TID 0000.0001)                 2.963038832565530E+05,      /* I = 20 */
(PID.TID 0000.0001)                 2.923599955312932E+05,      /* I = 21 */
(PID.TID 0000.0001)                 2.872689479506990E+05,      /* I = 22 */
(PID.TID 0000.0001)                 2.810065951609633E+05,      /* I = 23 */
(PID.TID 0000.0001)                 2.735321911346108E+05,      /* I = 24 */
(PID.TID 0000.0001)                 2.647791839299727E+05,      /* I = 25 */
(PID.TID 0000.0001)                 2.546408290696998E+05,      /* I = 26 */
(PID.TID 0000.0001)                 2.429464709770498E+05,      /* I = 27 */
(PID.TID 0000.0001)                 2.294195678257306E+05,      /* I = 28 */
(PID.TID 0000.0001)                 2.135964483342134E+05,      /* I = 29 */
(PID.TID 0000.0001)                 1.946503699269892E+05,      /* I = 30 */
(PID.TID 0000.0001)                 1.709574999026266E+05,      /* I = 31 */
(PID.TID 0000.0001)                 1.391343389937106E+05       /* I = 32 */
(PID.TID 0000.0001)     ;
(PID.TID 0000.0001) dxC =  /* dxC(1,:,1,:) ( units: m ) */
(PID.TID 0000.0001)                 1.114203141013064E+05,      /* J =  1 */
(PID.TID 0000.0001)                 1.549545757850771E+05,      /* J =  2 */
(PID.TID 0000.0001)                 1.829777599966776E+05,      /* J =  3 */
(PID.TID 0000.0001)                 2.042717761866506E+05,      /* J =  4 */
(PID.TID 0000.0001)                 2.216367828252819E+05,      /* J =  5 */
(PID.TID 0000.0001)                 2.363029564123586E+05,      /* J =  6 */
(PID.TID 0000.0001)                 2.489113743322025E+05,      /* J =  7 */
(PID.TID 0000.0001)                 2.598293319150326E+05,      /* J =  8 */
(PID.TID 0000.0001)                 2.692787333338535E+05,      /* J =  9 */
(PID.TID 0000.0001)                 2.773972106720365E+05,      /* J = 10 */
(PID.TID 0000.0001)                 2.842706922224557E+05,      /* J = 11 */
(PID.TID 0000.0001)                 2.899523122489403E+05,      /* J = 12 */
(PID.TID 0000.0001)                 2.944741346384699E+05,      /* J = 13 */
(PID.TID 0000.0001)                 2.978547649292580E+05,      /* J = 14 */
(PID.TID 0000.0001)                 3.001044073506459E+05,      /* J = 15 */
(PID.TID 0000.0001)     2 @  3.012281885409289E+05,             /* J = 16: 17 */
(PID.TID 0000.0001)                 3.001044073506459E+05,      /* J = 18 */
(PID.TID 0000.0001)                 2.978547649292580E+05,      /* J = 19 */
(PID.TID 0000.0001)                 2.944741346384699E+05,      /* J = 20 */
(PID.TID 0000.0001)                 2.899523122489403E+05,      /* J = 21 */
(PID.TID 0000.0001)                 2.842706922224557E+05,      /* J = 22 */
(PID.TID 0000.0001)                 2.773972106720365E+05,      /* J = 23 */
(PID.TID 0000.0001)                 2.692787333338535E+05,      /* J = 24 */
(PID.TID 0000.0001)                 2.598293319150326E+05,      /* J = 25 */
(PID.TID 0000.0001)                 2.489113743322025E+05,      /* J = 26 */
(PID.TID 0000.0001)                 2.363029564123586E+05,      /* J = 27 */
(PID.TID 0000.0001)                 2.216367828252819E+05,      /* J = 28 */
(PID.TID 0000.0001)                 2.042717761866506E+05,      /* J = 29 */
(PID.TID 0000.0001)                 1.829777599966776E+05,      /* J = 30 */
(PID.TID 0000.0001)                 1.549545757850771E+05,      /* J = 31 */
(PID.TID 0000.0001)                 1.114203141013064E+05       /* J = 32 */
(PID.TID 0000.0001)     ;
(PID.TID 0000.0001) dyC =  /* dyC(:,1,:,1) ( units: m ) */
(PID.TID 0000.0001)                 1.114203141013064E+05,      /* I =  1 */
(PID.TID 0000.0001)                 1.549545757850771E+05,      /* I =  2 */
(PID.TID 0000.0001)                 1.829777599966776E+05,      /* I =  3 */
(PID.TID 0000.0001)                 2.042717761866506E+05,      /* I =  4 */
(PID.TID 0000.0001)                 2.216367828252819E+05,      /* I =  5 */
(PID.TID 0000.0001)                 2.363029564123586E+05,      /* I =  6 */
(PID.TID 0000.0001)                 2.489113743322025E+05,      /* I =  7 */
(PID.TID 0000.0001)                 2.598293319150326E+05,      /* I =  8 */
(PID.TID 0000.0001)                 2.692787333338535E+05,      /* I =  9 */
(PID.TID 0000.0001)                 2.773972106720365E+05,      /* I = 10 */
(PID.TID 0000.0001)                 2.842706922224557E+05,      /* I = 11 */
(PID.TID 0000.0001)                 2.899523122489403E+05,      /* I = 12 */
(PID.TID 0000.0001)                 2.944741346384699E+05,      /* I = 13 */
(PID.TID 0000.0001)                 2.978547649292580E+05,      /* I = 14 */
(PID.TID 0000.0001)                 3.001044073506459E+05,      /* I = 15 */
(PID.TID 0000.0001)     2 @  3.012281885409289E+05,             /* I = 16: 17 */
(PID.TID 0000.0001)                 3.001044073506459E+05,      /* I = 18 */
(PID.TID 0000.0001)                 2.978547649292580E+05,      /* I = 19 */
(PID.TID 0000.0001)                 2.944741346384699E+05,      /* I = 20 */
(PID.TID 0000.0001)                 2.899523122489403E+05,      /* I = 21 */
(PID.TID 0000.0001)                 2.842706922224557E+05,      /* I = 22 */
(PID.TID 0000.0001)                 2.773972106720365E+05,      /* I = 23 */
(PID.TID 0000.0001)                 2.692787333338535E+05,      /* I = 24 */
(PID.TID 0000.0001)                 2.598293319150326E+05,      /* I = 25 */
(PID.TID 0000.0001)                 2.489113743322025E+05,      /* I = 26 */
(PID.TID 0000.0001)                 2.363029564123586E+05,      /* I = 27 */
(PID.TID 0000.0001)                 2.216367828252819E+05,      /* I = 28 */
(PID.TID 0000.0001)                 2.042717761866506E+05,      /* I = 29 */
(PID.TID 0000.0001)                 1.829777599966776E+05,      /* I = 30 */
(PID.TID 0000.0001)                 1.549545757850771E+05,      /* I = 31 */
(PID.TID 0000.0001)                 1.114203141013064E+05       /* I = 32 */
(PID.TID 0000.0001)     ;
(PID.TID 0000.0001) dyC =  /* dyC(1,:,1,:) ( units: m ) */
(PID.TID 0000.0001)                 1.114203141013064E+05,      /* J =  1 */
(PID.TID 0000.0001)                 1.391343389937106E+05,      /* J =  2 */
(PID.TID 0000.0001)                 1.709574999026266E+05,      /* J =  3 */
(PID.TID 0000.0001)                 1.946503699269892E+05,      /* J =  4 */
(PID.TID 0000.0001)                 2.135964483342134E+05,      /* J =  5 */
(PID.TID 0000.0001)                 2.294195678257306E+05,      /* J =  6 */
(PID.TID 0000.0001)                 2.429464709770498E+05,      /* J =  7 */
(PID.TID 0000.0001)                 2.546408290696998E+05,      /* J =  8 */
(PID.TID 0000.0001)                 2.647791839299727E+05,      /* J =  9 */
(PID.TID 0000.0001)                 2.735321911346108E+05,      /* J = 10 */
(PID.TID 0000.0001)                 2.810065951609633E+05,      /* J = 11 */
(PID.TID 0000.0001)                 2.872689479506990E+05,      /* J = 12 */
(PID.TID 0000.0001)                 2.923599955312932E+05,      /* J = 13 */
(PID.TID 0000.0001)                 2.963038832565530E+05,      /* J = 14 */
(PID.TID 0000.0001)                 2.991142470004740E+05,      /* J = 15 */
(PID.TID 0000.0001)                 3.007982711627968E+05,      /* J = 16 */
(PID.TID 0000.0001)                 3.013593857228136E+05,      /* J = 17 */
(PID.TID 0000.0001)                 3.007982711627968E+05,      /* J = 18 */
(PID.TID 0000.0001)                 2.991142470004740E+05,      /* J = 19 */
(PID.TID 0000.0001)                 2.963038832565530E+05,      /* J = 20 */
(PID.TID 0000.0001)                 2.923599955312932E+05,      /* J = 21 */
(PID.TID 0000.0001)                 2.872689479506990E+05,      /* J = 22 */
(PID.TID 0000.0001)                 2.810065951609633E+05,      /* J = 23 */
(PID.TID 0000.0001)                 2.735321911346108E+05,      /* J = 24 */
(PID.TID 0000.0001)                 2.647791839299727E+05,      /* J = 25 */
(PID.TID 0000.0001)                 2.546408290696998E+05,      /* J = 26 */
(PID.TID 0000.0001)                 2.429464709770498E+05,      /* J = 27 */
(PID.TID 0000.0001)                 2.294195678257306E+05,      /* J = 28 */
(PID.TID 0000.0001)                 2.135964483342134E+05,      /* J = 29 */
(PID.TID 0000.0001)                 1.946503699269892E+05,      /* J = 30 */
(PID.TID 0000.0001)                 1.709574999026266E+05,      /* J = 31 */
(PID.TID 0000.0001)                 1.391343389937106E+05       /* J = 32 */
(PID.TID 0000.0001)     ;
(PID.TID 0000.0001) dxV =  /* dxV(:,1,:,1) ( units: m ) */
(PID.TID 0000.0001)                 8.015229982413632E+04,      /* I =  1 */
(PID.TID 0000.0001)                 1.333130744933864E+05,      /* I =  2 */
(PID.TID 0000.0001)                 1.691744868129062E+05,      /* I =  3 */
(PID.TID 0000.0001)                 1.937548202849060E+05,      /* I =  4 */
(PID.TID 0000.0001)                 2.130490056267208E+05,      /* I =  5 */
(PID.TID 0000.0001)                 2.290479919481738E+05,      /* I =  6 */
(PID.TID 0000.0001)                 2.426774358027003E+05,      /* I =  7 */
(PID.TID 0000.0001)                 2.544372984215561E+05,      /* I =  8 */
(PID.TID 0000.0001)                 2.646201463834826E+05,      /* I =  9 */
(PID.TID 0000.0001)                 2.734046499619031E+05,      /* I = 10 */
(PID.TID 0000.0001)                 2.809019351693761E+05,      /* I = 11 */
(PID.TID 0000.0001)                 2.871811105274442E+05,      /* I = 12 */
(PID.TID 0000.0001)                 2.922844849381675E+05,      /* I = 13 */
(PID.TID 0000.0001)                 2.962371870847826E+05,      /* I = 14 */
(PID.TID 0000.0001)                 2.990534755671296E+05,      /* I = 15 */
(PID.TID 0000.0001)                 3.007409169495504E+05,      /* I = 16 */
(PID.TID 0000.0001)                 3.013031486919771E+05,      /* I = 17 */
(PID.TID 0000.0001)                 3.007409169495504E+05,      /* I = 18 */
(PID.TID 0000.0001)                 2.990534755671296E+05,      /* I = 19 */
(PID.TID 0000.0001)                 2.962371870847826E+05,      /* I = 20 */
(PID.TID 0000.0001)                 2.922844849381675E+05,      /* I = 21 */
(PID.TID 0000.0001)                 2.871811105274442E+05,      /* I = 22 */
(PID.TID 0000.0001)                 2.809019351693761E+05,      /* I = 23 */
(PID.TID 0000.0001)                 2.734046499619031E+05,      /* I = 24 */
(PID.TID 0000.0001)                 2.646201463834826E+05,      /* I = 25 */
(PID.TID 0000.0001)                 2.544372984215561E+05,      /* I = 26 */
(PID.TID 0000.0001)                 2.426774358027003E+05,      /* I = 27 */
(PID.TID 0000.0001)                 2.290479919481738E+05,      /* I = 28 */
(PID.TID 0000.0001)                 2.130490056267208E+05,      /* I = 29 */
(PID.TID 0000.0001)                 1.937548202849060E+05,      /* I = 30 */
(PID.TID 0000.0001)                 1.691744868129062E+05,      /* I = 31 */
(PID.TID 0000.0001)                 1.333130744933864E+05       /* I = 32 */
(PID.TID 0000.0001)     ;
(PID.TID 0000.0001) dxV =  /* dxV(1,:,1,:) ( units: m ) */
(PID.TID 0000.0001)                 8.015229982413632E+04,      /* J =  1 */
(PID.TID 0000.0001)                 1.362652340208229E+05,      /* J =  2 */
(PID.TID 0000.0001)                 1.701080315742101E+05,      /* J =  3 */
(PID.TID 0000.0001)                 1.942331448101592E+05,      /* J =  4 */
(PID.TID 0000.0001)                 2.133486626971531E+05,      /* J =  5 */
(PID.TID 0000.0001)                 2.292584591272880E+05,      /* J =  6 */
(PID.TID 0000.0001)                 2.428369969078989E+05,      /* J =  7 */
(PID.TID 0000.0001)                 2.545652950875683E+05,      /* J =  8 */
(PID.TID 0000.0001)                 2.647274964828301E+05,      /* J =  9 */
(PID.TID 0000.0001)                 2.734980225206389E+05,      /* J = 10 */
(PID.TID 0000.0001)                 2.809856491525217E+05,      /* J = 11 */
(PID.TID 0000.0001)                 2.872580915202295E+05,      /* J = 12 */
(PID.TID 0000.0001)                 2.923567890694162E+05,      /* J = 13 */
(PID.TID 0000.0001)                 2.963063101754721E+05,      /* J = 14 */
(PID.TID 0000.0001)                 2.991205495886625E+05,      /* J = 15 */
(PID.TID 0000.0001)                 3.008068453676764E+05,      /* J = 16 */
(PID.TID 0000.0001)                 3.013686170436881E+05,      /* J = 17 */
(PID.TID 0000.0001)                 3.008068453676764E+05,      /* J = 18 */
(PID.TID 0000.0001)                 2.991205495886625E+05,      /* J = 19 */
(PID.TID 0000.0001)                 2.963063101754721E+05,      /* J = 20 */
(PID.TID 0000.0001)                 2.923567890694162E+05,      /* J = 21 */
(PID.TID 0000.0001)                 2.872580915202295E+05,      /* J = 22 */
(PID.TID 0000.0001)                 2.809856491525217E+05,      /* J = 23 */
(PID.TID 0000.0001)                 2.734980225206389E+05,      /* J = 24 */
(PID.TID 0000.0001)                 2.647274964828301E+05,      /* J = 25 */
(PID.TID 0000.0001)                 2.545652950875683E+05,      /* J = 26 */
(PID.TID 0000.0001)                 2.428369969078989E+05,      /* J = 27 */
(PID.TID 0000.0001)                 2.292584591272880E+05,      /* J = 28 */
(PID.TID 0000.0001)                 2.133486626971531E+05,      /* J = 29 */
(PID.TID 0000.0001)                 1.942331448101592E+05,      /* J = 30 */
(PID.TID 0000.0001)                 1.701080315742101E+05,      /* J = 31 */
(PID.TID 0000.0001)                 1.362652340208229E+05       /* J = 32 */
(PID.TID 0000.0001)     ;
(PID.TID 0000.0001) dyU =  /* dyU(:,1,:,1) ( units: m ) */
(PID.TID 0000.0001)                 8.015229982413632E+04,      /* I =  1 */
(PID.TID 0000.0001)                 1.362652340208229E+05,      /* I =  2 */
(PID.TID 0000.0001)                 1.701080315742101E+05,      /* I =  3 */
(PID.TID 0000.0001)                 1.942331448101592E+05,      /* I =  4 */
(PID.TID 0000.0001)                 2.133486626971531E+05,      /* I =  5 */
(PID.TID 0000.0001)                 2.292584591272880E+05,      /* I =  6 */
(PID.TID 0000.0001)                 2.428369969078989E+05,      /* I =  7 */
(PID.TID 0000.0001)                 2.545652950875683E+05,      /* I =  8 */
(PID.TID 0000.0001)                 2.647274964828301E+05,      /* I =  9 */
(PID.TID 0000.0001)                 2.734980225206389E+05,      /* I = 10 */
(PID.TID 0000.0001)                 2.809856491525217E+05,      /* I = 11 */
(PID.TID 0000.0001)                 2.872580915202295E+05,      /* I = 12 */
(PID.TID 0000.0001)                 2.923567890694162E+05,      /* I = 13 */
(PID.TID 0000.0001)                 2.963063101754721E+05,      /* I = 14 */
(PID.TID 0000.0001)                 2.991205495886625E+05,      /* I = 15 */
(PID.TID 0000.0001)                 3.008068453676764E+05,      /* I = 16 */
(PID.TID 0000.0001)                 3.013686170436881E+05,      /* I = 17 */
(PID.TID 0000.0001)                 3.008068453676764E+05,      /* I = 18 */
(PID.TID 0000.0001)                 2.991205495886625E+05,      /* I = 19 */
(PID.TID 0000.0001)                 2.963063101754721E+05,      /* I = 20 */
(PID.TID 0000.0001)                 2.923567890694162E+05,      /* I = 21 */
(PID.TID 0000.0001)                 2.872580915202295E+05,      /* I = 22 */
(PID.TID 0000.0001)                 2.809856491525217E+05,      /* I = 23 */
(PID.TID 0000.0001)                 2.734980225206389E+05,      /* I = 24 */
(PID.TID 0000.0001)                 2.647274964828301E+05,      /* I = 25 */
(PID.TID 0000.0001)                 2.545652950875683E+05,      /* I = 26 */
(PID.TID 0000.0001)                 2.428369969078989E+05,      /* I = 27 */
(PID.TID 0000.0001)                 2.292584591272880E+05,      /* I = 28 */
(PID.TID 0000.0001)                 2.133486626971531E+05,      /* I = 29 */
(PID.TID 0000.0001)                 1.942331448101592E+05,      /* I = 30 */
(PID.TID 0000.0001)                 1.701080315742101E+05,      /* I = 31 */
(PID.TID 0000.0001)                 1.362652340208229E+05       /* I = 32 */
(PID.TID 0000.0001)     ;
(PID.TID 0000.0001) dyU =  /* dyU(1,:,1,:) ( units: m ) */
(PID.TID 0000.0001)                 8.015229982413632E+04,      /* J =  1 */
(PID.TID 0000.0001)                 1.333130744933864E+05,      /* J =  2 */
(PID.TID 0000.0001)                 1.691744868129062E+05,      /* J =  3 */
(PID.TID 0000.0001)                 1.937548202849060E+05,      /* J =  4 */
(PID.TID 0000.0001)                 2.130490056267208E+05,      /* J =  5 */
(PID.TID 0000.0001)                 2.290479919481738E+05,      /* J =  6 */
(PID.TID 0000.0001)                 2.426774358027003E+05,      /* J =  7 */
(PID.TID 0000.0001)                 2.544372984215561E+05,      /* J =  8 */
(PID.TID 0000.0001)                 2.646201463834826E+05,      /* J =  9 */
(PID.TID 0000.0001)                 2.734046499619031E+05,      /* J = 10 */
(PID.TID 0000.0001)                 2.809019351693761E+05,      /* J = 11 */
(PID.TID 0000.0001)                 2.871811105274442E+05,      /* J = 12 */
(PID.TID 0000.0001)                 2.922844849381675E+05,      /* J = 13 */
(PID.TID 0000.0001)                 2.962371870847826E+05,      /* J = 14 */
(PID.TID 0000.0001)                 2.990534755671296E+05,      /* J = 15 */
(PID.TID 0000.0001)                 3.007409169495504E+05,      /* J = 16 */
(PID.TID 0000.0001)                 3.013031486919771E+05,      /* J = 17 */
(PID.TID 0000.0001)                 3.007409169495504E+05,      /* J = 18 */
(PID.TID 0000.0001)                 2.990534755671296E+05,      /* J = 19 */
(PID.TID 0000.0001)                 2.962371870847826E+05,      /* J = 20 */
(PID.TID 0000.0001)                 2.922844849381675E+05,      /* J = 21 */
(PID.TID 0000.0001)                 2.871811105274442E+05,      /* J = 22 */
(PID.TID 0000.0001)                 2.809019351693761E+05,      /* J = 23 */
(PID.TID 0000.0001)                 2.734046499619031E+05,      /* J = 24 */
(PID.TID 0000.0001)                 2.646201463834826E+05,      /* J = 25 */
(PID.TID 0000.0001)                 2.544372984215561E+05,      /* J = 26 */
(PID.TID 0000.0001)                 2.426774358027003E+05,      /* J = 27 */
(PID.TID 0000.0001)                 2.290479919481738E+05,      /* J = 28 */
(PID.TID 0000.0001)                 2.130490056267208E+05,      /* J = 29 */
(PID.TID 0000.0001)                 1.937548202849060E+05,      /* J = 30 */
(PID.TID 0000.0001)                 1.691744868129062E+05,      /* J = 31 */
(PID.TID 0000.0001)                 1.333130744933864E+05       /* J = 32 */
(PID.TID 0000.0001)     ;
(PID.TID 0000.0001) rA  =  /* rA (:,1,:,1) ( units: m^2 ) */
(PID.TID 0000.0001)                 1.401900702255611E+10,      /* I =  1 */
(PID.TID 0000.0001)                 2.459906945574446E+10,      /* I =  2 */
(PID.TID 0000.0001)                 3.378518544307869E+10,      /* I =  3 */
(PID.TID 0000.0001)                 4.192037169898667E+10,      /* I =  4 */
(PID.TID 0000.0001)                 4.925938996118163E+10,      /* I =  5 */
(PID.TID 0000.0001)                 5.594154126607553E+10,      /* I =  6 */
(PID.TID 0000.0001)                 6.203683527772523E+10,      /* I =  7 */
(PID.TID 0000.0001)                 6.757541173817516E+10,      /* I =  8 */
(PID.TID 0000.0001)                 7.256353271748119E+10,      /* I =  9 */
(PID.TID 0000.0001)                 7.699293007098555E+10,      /* I = 10 */
(PID.TID 0000.0001)                 8.084683449728902E+10,      /* I = 11 */
(PID.TID 0000.0001)                 8.410423102796223E+10,      /* I = 12 */
(PID.TID 0000.0001)                 8.674306976737517E+10,      /* I = 13 */
(PID.TID 0000.0001)                 8.874277443041928E+10,      /* I = 14 */
(PID.TID 0000.0001)                 9.008620045350865E+10,      /* I = 15 */
(PID.TID 0000.0001)                 9.076111290418457E+10,      /* I = 16 */
(PID.TID 0000.0001)                 9.076111290422060E+10,      /* I = 17 */
(PID.TID 0000.0001)                 9.008620045354469E+10,      /* I = 18 */
(PID.TID 0000.0001)                 8.874277443041928E+10,      /* I = 19 */
(PID.TID 0000.0001)                 8.674306976741121E+10,      /* I = 20 */
(PID.TID 0000.0001)                 8.410423102799828E+10,      /* I = 21 */
(PID.TID 0000.0001)                 8.084683449728902E+10,      /* I = 22 */
(PID.TID 0000.0001)                 7.699293007098555E+10,      /* I = 23 */
(PID.TID 0000.0001)                 7.256353271748119E+10,      /* I = 24 */
(PID.TID 0000.0001)                 6.757541173817516E+10,      /* I = 25 */
(PID.TID 0000.0001)                 6.203683527772523E+10,      /* I = 26 */
(PID.TID 0000.0001)                 5.594154126611156E+10,      /* I = 27 */
(PID.TID 0000.0001)                 4.925938996118163E+10,      /* I = 28 */
(PID.TID 0000.0001)                 4.192037169898667E+10,      /* I = 29 */
(PID.TID 0000.0001)                 3.378518544304265E+10,      /* I = 30 */
(PID.TID 0000.0001)                 2.459906945574446E+10,      /* I = 31 */
(PID.TID 0000.0001)                 1.401900702259215E+10       /* I = 32 */
(PID.TID 0000.0001)     ;
(PID.TID 0000.0001) rA  =  /* rA (1,:,1,:) ( units: m^2 ) */
(PID.TID 0000.0001)                 1.401900702255611E+10,      /* J =  1 */
(PID.TID 0000.0001)                 2.459906945574446E+10,      /* J =  2 */
(PID.TID 0000.0001)                 3.378518544307869E+10,      /* J =  3 */
(PID.TID 0000.0001)                 4.192037169898667E+10,      /* J =  4 */
(PID.TID 0000.0001)                 4.925938996118163E+10,      /* J =  5 */
(PID.TID 0000.0001)                 5.594154126607553E+10,      /* J =  6 */
(PID.TID 0000.0001)                 6.203683527776127E+10,      /* J =  7 */
(PID.TID 0000.0001)                 6.757541173817516E+10,      /* J =  8 */
(PID.TID 0000.0001)                 7.256353271748119E+10,      /* J =  9 */
(PID.TID 0000.0001)                 7.699293007098555E+10,      /* J = 10 */
(PID.TID 0000.0001)                 8.084683449728902E+10,      /* J = 11 */
(PID.TID 0000.0001)                 8.410423102799828E+10,      /* J = 12 */
(PID.TID 0000.0001)                 8.674306976737517E+10,      /* J = 13 */
(PID.TID 0000.0001)                 8.874277443041928E+10,      /* J = 14 */
(PID.TID 0000.0001)                 9.008620045350865E+10,      /* J = 15 */
(PID.TID 0000.0001)                 9.076111290418457E+10,      /* J = 16 */
(PID.TID 0000.0001)                 9.076111290422060E+10,      /* J = 17 */
(PID.TID 0000.0001)                 9.008620045354469E+10,      /* J = 18 */
(PID.TID 0000.0001)                 8.874277443041928E+10,      /* J = 19 */
(PID.TID 0000.0001)                 8.674306976737517E+10,      /* J = 20 */
(PID.TID 0000.0001)                 8.410423102799828E+10,      /* J = 21 */
(PID.TID 0000.0001)                 8.084683449728902E+10,      /* J = 22 */
(PID.TID 0000.0001)                 7.699293007098555E+10,      /* J = 23 */
(PID.TID 0000.0001)                 7.256353271748119E+10,      /* J = 24 */
(PID.TID 0000.0001)                 6.757541173817516E+10,      /* J = 25 */
(PID.TID 0000.0001)                 6.203683527772523E+10,      /* J = 26 */
(PID.TID 0000.0001)                 5.594154126607553E+10,      /* J = 27 */
(PID.TID 0000.0001)                 4.925938996118163E+10,      /* J = 28 */
(PID.TID 0000.0001)                 4.192037169898667E+10,      /* J = 29 */
(PID.TID 0000.0001)                 3.378518544307869E+10,      /* J = 30 */
(PID.TID 0000.0001)                 2.459906945574446E+10,      /* J = 31 */
(PID.TID 0000.0001)                 1.401900702259215E+10       /* J = 32 */
(PID.TID 0000.0001)     ;
(PID.TID 0000.0001) rAw =  /* rAw(:,1,:,1) ( units: m^2 ) */
(PID.TID 0000.0001)                 1.216690346714270E+10,      /* I =  1 */
(PID.TID 0000.0001)                 1.974052138506315E+10,      /* I =  2 */
(PID.TID 0000.0001)                 2.943712825252015E+10,      /* I =  3 */
(PID.TID 0000.0001)                 3.801790263324359E+10,      /* I =  4 */
(PID.TID 0000.0001)                 4.571243814189866E+10,      /* I =  5 */
(PID.TID 0000.0001)                 5.269930713599979E+10,      /* I =  6 */
(PID.TID 0000.0001)                 5.907428494299063E+10,      /* I =  7 */
(PID.TID 0000.0001)                 6.488320895111514E+10,      /* I =  8 */
(PID.TID 0000.0001)                 7.014205907741882E+10,      /* I =  9 */
(PID.TID 0000.0001)                 7.484854821847499E+10,      /* I = 10 */
(PID.TID 0000.0001)                 7.898934631431560E+10,      /* I = 11 */
(PID.TID 0000.0001)                 8.254500894894537E+10,      /* I = 12 */
(PID.TID 0000.0001)                 8.549360686473492E+10,      /* I = 13 */
(PID.TID 0000.0001)                 8.781353403175085E+10,      /* I = 14 */
(PID.TID 0000.0001)                 8.948571540392021E+10,      /* I = 15 */
(PID.TID 0000.0001)                 9.049530583086168E+10,      /* I = 16 */
(PID.TID 0000.0001)                 9.083293515008307E+10,      /* I = 17 */
(PID.TID 0000.0001)                 9.049530583087070E+10,      /* I = 18 */
(PID.TID 0000.0001)                 8.948571540391121E+10,      /* I = 19 */
(PID.TID 0000.0001)                 8.781353403174185E+10,      /* I = 20 */
(PID.TID 0000.0001)                 8.549360686467184E+10,      /* I = 21 */
(PID.TID 0000.0001)                 8.254500894890933E+10,      /* I = 22 */
(PID.TID 0000.0001)                 7.898934631434262E+10,      /* I = 23 */
(PID.TID 0000.0001)                 7.484854821844795E+10,      /* I = 24 */
(PID.TID 0000.0001)                 7.014205907742783E+10,      /* I = 25 */
(PID.TID 0000.0001)                 6.488320895111514E+10,      /* I = 26 */
(PID.TID 0000.0001)                 5.907428494299063E+10,      /* I = 27 */
(PID.TID 0000.0001)                 5.269930713599078E+10,      /* I = 28 */
(PID.TID 0000.0001)                 4.571243814190767E+10,      /* I = 29 */
(PID.TID 0000.0001)                 3.801790263325260E+10,      /* I = 30 */
(PID.TID 0000.0001)                 2.943712825251114E+10,      /* I = 31 */
(PID.TID 0000.0001)                 1.974052138509018E+10       /* I = 32 */
(PID.TID 0000.0001)     ;
(PID.TID 0000.0001) rAw =  /* rAw(1,:,1,:) ( units: m^2 ) */
(PID.TID 0000.0001)                 1.216690346714270E+10,      /* J =  1 */
(PID.TID 0000.0001)                 2.390126200743558E+10,      /* J =  2 */
(PID.TID 0000.0001)                 3.341968103208270E+10,      /* J =  3 */
(PID.TID 0000.0001)                 4.168532893152940E+10,      /* J =  4 */
(PID.TID 0000.0001)                 4.909074590409593E+10,      /* J =  5 */
(PID.TID 0000.0001)                 5.581203765722643E+10,      /* J =  6 */
(PID.TID 0000.0001)                 6.193257577506788E+10,      /* J =  7 */
(PID.TID 0000.0001)                 6.748840226738273E+10,      /* J =  8 */
(PID.TID 0000.0001)                 7.248875782324815E+10,      /* J =  9 */
(PID.TID 0000.0001)                 7.692702995909871E+10,      /* J = 10 */
(PID.TID 0000.0001)                 8.078743937057304E+10,      /* J = 11 */
(PID.TID 0000.0001)                 8.404959656062837E+10,      /* J = 12 */
(PID.TID 0000.0001)                 8.669186205742538E+10,      /* J = 13 */
(PID.TID 0000.0001)                 8.869393350723613E+10,      /* J = 14 */
(PID.TID 0000.0001)                 9.003884657168852E+10,      /* J = 15 */
(PID.TID 0000.0001)     2 @  9.071447638299399E+10,             /* J = 16: 17 */
(PID.TID 0000.0001)                 9.003884657168852E+10,      /* J = 18 */
(PID.TID 0000.0001)                 8.869393350723613E+10,      /* J = 19 */
(PID.TID 0000.0001)                 8.669186205742538E+10,      /* J = 20 */
(PID.TID 0000.0001)                 8.404959656062837E+10,      /* J = 21 */
(PID.TID 0000.0001)                 8.078743937057304E+10,      /* J = 22 */
(PID.TID 0000.0001)                 7.692702995909871E+10,      /* J = 23 */
(PID.TID 0000.0001)                 7.248875782324815E+10,      /* J = 24 */
(PID.TID 0000.0001)                 6.748840226738273E+10,      /* J = 25 */
(PID.TID 0000.0001)                 6.193257577506788E+10,      /* J = 26 */
(PID.TID 0000.0001)                 5.581203765722643E+10,      /* J = 27 */
(PID.TID 0000.0001)                 4.909074590409593E+10,      /* J = 28 */
(PID.TID 0000.0001)                 4.168532893152940E+10,      /* J = 29 */
(PID.TID 0000.0001)                 3.341968103208270E+10,      /* J = 30 */
(PID.TID 0000.0001)                 2.390126200743558E+10,      /* J = 31 */
(PID.TID 0000.0001)                 1.216690346714270E+10       /* J = 32 */
(PID.TID 0000.0001)     ;
(PID.TID 0000.0001) rAs =  /* rAs(:,1,:,1) ( units: m^2 ) */
(PID.TID 0000.0001)                 1.216690346714270E+10,      /* I =  1 */
(PID.TID 0000.0001)                 2.390126200743558E+10,      /* I =  2 */
(PID.TID 0000.0001)                 3.341968103208270E+10,      /* I =  3 */
(PID.TID 0000.0001)                 4.168532893152940E+10,      /* I =  4 */
(PID.TID 0000.0001)                 4.909074590409593E+10,      /* I =  5 */
(PID.TID 0000.0001)                 5.581203765722643E+10,      /* I =  6 */
(PID.TID 0000.0001)                 6.193257577506788E+10,      /* I =  7 */
(PID.TID 0000.0001)                 6.748840226738273E+10,      /* I =  8 */
(PID.TID 0000.0001)                 7.248875782324815E+10,      /* I =  9 */
(PID.TID 0000.0001)                 7.692702995909871E+10,      /* I = 10 */
(PID.TID 0000.0001)                 8.078743937057304E+10,      /* I = 11 */
(PID.TID 0000.0001)                 8.404959656062837E+10,      /* I = 12 */
(PID.TID 0000.0001)                 8.669186205742538E+10,      /* I = 13 */
(PID.TID 0000.0001)                 8.869393350723613E+10,      /* I = 14 */
(PID.TID 0000.0001)                 9.003884657168852E+10,      /* I = 15 */
(PID.TID 0000.0001)     2 @  9.071447638299399E+10,             /* I = 16: 17 */
(PID.TID 0000.0001)                 9.003884657168852E+10,      /* I = 18 */
(PID.TID 0000.0001)                 8.869393350723613E+10,      /* I = 19 */
(PID.TID 0000.0001)                 8.669186205742538E+10,      /* I = 20 */
(PID.TID 0000.0001)                 8.404959656062837E+10,      /* I = 21 */
(PID.TID 0000.0001)                 8.078743937057304E+10,      /* I = 22 */
(PID.TID 0000.0001)                 7.692702995909871E+10,      /* I = 23 */
(PID.TID 0000.0001)                 7.248875782324815E+10,      /* I = 24 */
(PID.TID 0000.0001)                 6.748840226738273E+10,      /* I = 25 */
(PID.TID 0000.0001)                 6.193257577506788E+10,      /* I = 26 */
(PID.TID 0000.0001)                 5.581203765722643E+10,      /* I = 27 */
(PID.TID 0000.0001)                 4.909074590409593E+10,      /* I = 28 */
(PID.TID 0000.0001)                 4.168532893152940E+10,      /* I = 29 */
(PID.TID 0000.0001)                 3.341968103208270E+10,      /* I = 30 */
(PID.TID 0000.0001)                 2.390126200743558E+10,      /* I = 31 */
(PID.TID 0000.0001)                 1.216690346714270E+10       /* I = 32 */
(PID.TID 0000.0001)     ;
(PID.TID 0000.0001) rAs =  /* rAs(1,:,1,:) ( units: m^2 ) */
(PID.TID 0000.0001)                 1.216690346714270E+10,      /* J =  1 */
(PID.TID 0000.0001)                 1.974052138506315E+10,      /* J =  2 */
(PID.TID 0000.0001)                 2.943712825252015E+10,      /* J =  3 */
(PID.TID 0000.0001)                 3.801790263324359E+10,      /* J =  4 */
(PID.TID 0000.0001)                 4.571243814189866E+10,      /* J =  5 */
(PID.TID 0000.0001)                 5.269930713599979E+10,      /* J =  6 */
(PID.TID 0000.0001)                 5.907428494299063E+10,      /* J =  7 */
(PID.TID 0000.0001)                 6.488320895111514E+10,      /* J =  8 */
(PID.TID 0000.0001)                 7.014205907741882E+10,      /* J =  9 */
(PID.TID 0000.0001)                 7.484854821847499E+10,      /* J = 10 */
(PID.TID 0000.0001)                 7.898934631431560E+10,      /* J = 11 */
(PID.TID 0000.0001)                 8.254500894894537E+10,      /* J = 12 */
(PID.TID 0000.0001)                 8.549360686473492E+10,      /* J = 13 */
(PID.TID 0000.0001)                 8.781353403175085E+10,      /* J = 14 */
(PID.TID 0000.0001)                 8.948571540392021E+10,      /* J = 15 */
(PID.TID 0000.0001)                 9.049530583086168E+10,      /* J = 16 */
(PID.TID 0000.0001)                 9.083293515008307E+10,      /* J = 17 */
(PID.TID 0000.0001)                 9.049530583087070E+10,      /* J = 18 */
(PID.TID 0000.0001)                 8.948571540391121E+10,      /* J = 19 */
(PID.TID 0000.0001)                 8.781353403174185E+10,      /* J = 20 */
(PID.TID 0000.0001)                 8.549360686467184E+10,      /* J = 21 */
(PID.TID 0000.0001)                 8.254500894890933E+10,      /* J = 22 */
(PID.TID 0000.0001)                 7.898934631434262E+10,      /* J = 23 */
(PID.TID 0000.0001)                 7.484854821844795E+10,      /* J = 24 */
(PID.TID 0000.0001)                 7.014205907742783E+10,      /* J = 25 */
(PID.TID 0000.0001)                 6.488320895111514E+10,      /* J = 26 */
(PID.TID 0000.0001)                 5.907428494299063E+10,      /* J = 27 */
(PID.TID 0000.0001)                 5.269930713599078E+10,      /* J = 28 */
(PID.TID 0000.0001)                 4.571243814190767E+10,      /* J = 29 */
(PID.TID 0000.0001)                 3.801790263325260E+10,      /* J = 30 */
(PID.TID 0000.0001)                 2.943712825251114E+10,      /* J = 31 */
(PID.TID 0000.0001)                 1.974052138509018E+10       /* J = 32 */
(PID.TID 0000.0001)     ;
(PID.TID 0000.0001) globalArea = /* Integrated horizontal Area (m^2) */
(PID.TID 0000.0001)                 3.638867375081598E+14
(PID.TID 0000.0001)     ;
(PID.TID 0000.0001) hasWetCSCorners = /* Domain contains CS corners (True/False) */
(PID.TID 0000.0001)                   T
(PID.TID 0000.0001)     ;
(PID.TID 0000.0001) // =======================================================
(PID.TID 0000.0001) // End of Model config. summary
(PID.TID 0000.0001) // =======================================================
(PID.TID 0000.0001) 
(PID.TID 0000.0001) == Packages configuration : Check & print summary ==
(PID.TID 0000.0001) 
(PID.TID 0000.0001) GMREDI_CHECK: #define GMREDI
(PID.TID 0000.0001) GM_AdvForm =     /* if FALSE => use SkewFlux Form */
(PID.TID 0000.0001)                   F
(PID.TID 0000.0001)     ;
(PID.TID 0000.0001) GM_InMomAsStress = /* if TRUE => apply as Eddy Stress */
(PID.TID 0000.0001)                   F
(PID.TID 0000.0001)     ;
(PID.TID 0000.0001) GM_AdvSeparate = /* Calc Bolus & Euler Adv. separately */
(PID.TID 0000.0001)                   F
(PID.TID 0000.0001)     ;
(PID.TID 0000.0001) GM_ExtraDiag =   /* Tensor Extra Diag (line 1&2) non 0 */
(PID.TID 0000.0001)                   F
(PID.TID 0000.0001)     ;
(PID.TID 0000.0001) GM_isopycK =    /* Background Isopyc. Diffusivity [m^2/s] */
(PID.TID 0000.0001)                 8.000000000000000E+02
(PID.TID 0000.0001)     ;
(PID.TID 0000.0001) GM_skewflx*K =  /* Background GM_SkewFlx Diffusivity [m^2/s] */
(PID.TID 0000.0001)                 8.000000000000000E+02
(PID.TID 0000.0001)     ;
(PID.TID 0000.0001) GM_advec*K =    /* Backg. GM-Advec(=Bolus) Diffusivity [m^2/s]*/
(PID.TID 0000.0001)                 0.000000000000000E+00
(PID.TID 0000.0001)     ;
(PID.TID 0000.0001) GM_Kmin_horiz = /* Minimum Horizontal Diffusivity [m^2/s] */
(PID.TID 0000.0001)                 5.000000000000000E+01
(PID.TID 0000.0001)     ;
(PID.TID 0000.0001) GM_Visbeck_alpha = /* Visbeck alpha coeff. [-] */
(PID.TID 0000.0001)                 0.000000000000000E+00
(PID.TID 0000.0001)     ;
(PID.TID 0000.0001) GM_Small_Number =  /* epsilon used in slope calc */
(PID.TID 0000.0001)                 9.999999999999999E-21
(PID.TID 0000.0001)     ;
(PID.TID 0000.0001) GM_slopeSqCutoff = /* Slope^2 cut-off value */
(PID.TID 0000.0001)                 1.000000000000000E+48
(PID.TID 0000.0001)     ;
(PID.TID 0000.0001) GM_taper_scheme =  /* Type of Tapering/Clipping scheme */
(PID.TID 0000.0001)               'gkw91                                   '
(PID.TID 0000.0001)     ;
(PID.TID 0000.0001) GM_maxSlope =  /* Maximum Slope (Tapering/Clipping) */
(PID.TID 0000.0001)                 1.000000000000000E-02
(PID.TID 0000.0001)     ;
(PID.TID 0000.0001) GM_facTrL2dz = /* Minimum Trans.Layer Thick. (factor of dz) */
(PID.TID 0000.0001)                 1.000000000000000E+00
(PID.TID 0000.0001)     ;
(PID.TID 0000.0001) GM_facTrL2ML = /* Max.Trans.Layer Thick. (factor of MxL Depth)*/
(PID.TID 0000.0001)                 5.000000000000000E+00
(PID.TID 0000.0001)     ;
(PID.TID 0000.0001) GM_maxTransLay = /* Maximum Transition Layer Thickness [m] */
(PID.TID 0000.0001)                 5.000000000000000E+02
(PID.TID 0000.0001)     ;
(PID.TID 0000.0001) GM_UseBVP = /* if TRUE => use bvp a la Ferrari et al. (2010) */
(PID.TID 0000.0001)                   F
(PID.TID 0000.0001)     ;
(PID.TID 0000.0001) GM_BVP_ModeNumber = /* Vertical mode number for BVP wave speed */
(PID.TID 0000.0001)                       1
(PID.TID 0000.0001)     ;
(PID.TID 0000.0001) GM_BVP_cMin = /* Minimum wave speed for BVP [m/s] */
(PID.TID 0000.0001)                 1.000000000000000E-01
(PID.TID 0000.0001)     ;
(PID.TID 0000.0001) GM_useSubMeso = /* if TRUE => use Sub-Meso param. (B.Fox-Kemper) */
(PID.TID 0000.0001)                   F
(PID.TID 0000.0001)     ;
(PID.TID 0000.0001) subMeso_Ceff = /* efficiency coeff. of Mixed-Layer Eddies [-] */
(PID.TID 0000.0001)                 7.000000000000001E-02
(PID.TID 0000.0001)     ;
(PID.TID 0000.0001) subMeso_invTau = /* inverse of Sub-Meso mixing time-scale [/s] */
(PID.TID 0000.0001)                 2.000000000000000E-06
(PID.TID 0000.0001)     ;
(PID.TID 0000.0001) subMeso_LfMin = /* minimum length-scale "Lf" [m] */
(PID.TID 0000.0001)                 1.000000000000000E+03
(PID.TID 0000.0001)     ;
(PID.TID 0000.0001) subMeso_Lmax = /* maximum grid-scale length [m] */
(PID.TID 0000.0001)                 1.100000000000000E+05
(PID.TID 0000.0001)     ;
(PID.TID 0000.0001) GAD_CHECK: #define ALLOW_GENERIC_ADVDIFF
(PID.TID 0000.0001) // =======================================================
(PID.TID 0000.0001) // Check Model config. (CONFIG_CHECK):
(PID.TID 0000.0001) // CONFIG_CHECK : Normal End
(PID.TID 0000.0001) // =======================================================
(PID.TID 0000.0001) 
(PID.TID 0000.0001)  MDS_READ_META: opening file: pickup.0000072000.meta
(PID.TID 0000.0001)  nRecords = 123 ; filePrec =  64 ; fileIter =     72000
(PID.TID 0000.0001)     nDims =   2 , dims:
(PID.TID 0000.0001)    1: 192   1 192
(PID.TID 0000.0001)    2:  32   1  32
(PID.TID 0000.0001)     nFlds =  11 , nFl3D =   8 , fields:
(PID.TID 0000.0001)  >Uvel    < >GuNm1   < >Vvel    < >GvNm1   < >Theta   < >GtNm1   < >Salt    < >GsNm1   < >EtaN    < >dEtaHdt < >EtaH    <
(PID.TID 0000.0001) missingVal=  1.00000000000000E+00 ; nTimRec =   0 , timeList:
(PID.TID 0000.0001) READ_MFLDS_3D_RL: read field: "Uvel    ", #   1 in fldList, rec=   1
(PID.TID 0000.0001)  MDS_READ_FIELD: opening global file: pickup.0000072000
(PID.TID 0000.0001) READ_MFLDS_3D_RL: read field: "Vvel    ", #   3 in fldList, rec=   3
(PID.TID 0000.0001)  MDS_READ_FIELD: opening global file: pickup.0000072000
(PID.TID 0000.0001) READ_MFLDS_3D_RL: read field: "Theta   ", #   5 in fldList, rec=   5
(PID.TID 0000.0001)  MDS_READ_FIELD: opening global file: pickup.0000072000
(PID.TID 0000.0001) READ_MFLDS_3D_RL: read field: "Salt    ", #   7 in fldList, rec=   7
(PID.TID 0000.0001)  MDS_READ_FIELD: opening global file: pickup.0000072000
(PID.TID 0000.0001) READ_MFLDS_3D_RL: read field: "GuNm1   ", #   2 in fldList, rec=   2
(PID.TID 0000.0001)  MDS_READ_FIELD: opening global file: pickup.0000072000
(PID.TID 0000.0001) READ_MFLDS_3D_RL: read field: "GvNm1   ", #   4 in fldList, rec=   4
(PID.TID 0000.0001)  MDS_READ_FIELD: opening global file: pickup.0000072000
(PID.TID 0000.0001) READ_MFLDS_3D_RL: read field: "GtNm1   ", #   6 in fldList, rec=   6
(PID.TID 0000.0001)  MDS_READ_FIELD: opening global file: pickup.0000072000
(PID.TID 0000.0001) READ_MFLDS_3D_RL: read field: "GsNm1   ", #   8 in fldList, rec=   8
(PID.TID 0000.0001)  MDS_READ_FIELD: opening global file: pickup.0000072000
(PID.TID 0000.0001) READ_MFLDS_3D_RL: read field: "EtaN    ", #   9 in fldList, rec= 121
(PID.TID 0000.0001)  MDS_READ_FIELD: opening global file: pickup.0000072000
(PID.TID 0000.0001) READ_MFLDS_3D_RL: read field: "dEtaHdt ", #  10 in fldList, rec= 122
(PID.TID 0000.0001)  MDS_READ_FIELD: opening global file: pickup.0000072000
(PID.TID 0000.0001) READ_MFLDS_3D_RL: read field: "EtaH    ", #  11 in fldList, rec= 123
(PID.TID 0000.0001)  MDS_READ_FIELD: opening global file: pickup.0000072000
(PID.TID 0000.0001) READ_MFLDS_CHECK: - normal end ; reset MFLDS file-name: pickup.0000072000
(PID.TID 0000.0001)  write diagnostics summary to file ioUnit:     36
Iter.Nb:     72000 ; Time(s):  6.4800000000000E+07
------------------------------------------------------------------------
2D/3D diagnostics: Number of lists:    11
------------------------------------------------------------------------
listId=    1 ; file name: oceTAUX
 nFlds, nActive,       freq     &     phase        , nLev               
    1  |    1  |     -3600.000000      1800.000000 |   1
 levels:   1
 diag# | name   |   ipt  |  iMate | kLev|   count |   mate.C|           
    81 |oceTAUX |      1 |      2 |   1 |       0 |       0 |
------------------------------------------------------------------------
listId=    2 ; file name: oceTAUY
 nFlds, nActive,       freq     &     phase        , nLev               
    1  |    1  |     -3600.000000      1800.000000 |   1
 levels:   1
 diag# | name   |   ipt  |  iMate | kLev|   count |   mate.C|           
    82 |oceTAUY |      2 |      1 |   1 |       0 |       0 |
------------------------------------------------------------------------
listId=    3 ; file name: oceFWflx
 nFlds, nActive,       freq     &     phase        , nLev               
    1  |    1  |     -3600.000000      1800.000000 |   1
 levels:   1
 diag# | name   |   ipt  |  iMate | kLev|   count |   mate.C|           
    85 |oceFWflx|      3 |      0 |   1 |       0 |
------------------------------------------------------------------------
listId=    4 ; file name: oceSflux
 nFlds, nActive,       freq     &     phase        , nLev               
    1  |    1  |     -3600.000000      1800.000000 |   1
 levels:   1
 diag# | name   |   ipt  |  iMate | kLev|   count |   mate.C|           
    86 |oceSflux|      4 |      0 |   1 |       0 |
------------------------------------------------------------------------
listId=    5 ; file name: oceQnet
 nFlds, nActive,       freq     &     phase        , nLev               
    1  |    1  |     -3600.000000      1800.000000 |   1
 levels:   1
 diag# | name   |   ipt  |  iMate | kLev|   count |   mate.C|           
    87 |oceQnet |      5 |      0 |   1 |       0 |
------------------------------------------------------------------------
listId=    6 ; file name: oceQsw
 nFlds, nActive,       freq     &     phase        , nLev               
    1  |    1  |     -3600.000000      1800.000000 |   1
 levels:   1
 diag# | name   |   ipt  |  iMate | kLev|   count |   mate.C|           
    88 |oceQsw  |      6 |      0 |   1 |       0 |
------------------------------------------------------------------------
listId=    7 ; file name: SSS
 nFlds, nActive,       freq     &     phase        , nLev               
    1  |    1  |     -3600.000000      1800.000000 |   1
 levels:   1
 diag# | name   |   ipt  |  iMate | kLev|   count |   mate.C|           
    27 |SALT    |      7 |      0 |  15 |       0 |
------------------------------------------------------------------------
listId=    8 ; file name: SST
 nFlds, nActive,       freq     &     phase        , nLev               
    1  |    1  |     -3600.000000      1800.000000 |   1
 levels:   1
 diag# | name   |   ipt  |  iMate | kLev|   count |   mate.C|           
    26 |THETA   |     22 |      0 |  15 |       0 |
------------------------------------------------------------------------
listId=    9 ; file name: UVEL1
 nFlds, nActive,       freq     &     phase        , nLev               
    1  |    1  |     -3600.000000      1800.000000 |   1
 levels:   1
 diag# | name   |   ipt  |  iMate | kLev|   count |   mate.C|           
    45 |UVELMASS|     37 |     52 |  15 |       0 |       0 |
------------------------------------------------------------------------
listId=   10 ; file name: VVEL1
 nFlds, nActive,       freq     &     phase        , nLev               
    1  |    1  |     -3600.000000      1800.000000 |   1
 levels:   1
 diag# | name   |   ipt  |  iMate | kLev|   count |   mate.C|           
    46 |VVELMASS|     52 |     37 |  15 |       0 |       0 |
------------------------------------------------------------------------
listId=   11 ; file name: atmPload
 nFlds, nActive,       freq     &     phase        , nLev               
    1  |    1  |     -3600.000000      1800.000000 |   1
 levels:   1
 diag# | name   |   ipt  |  iMate | kLev|   count |   mate.C|           
    83 |atmPload|     67 |      0 |   1 |       0 |
------------------------------------------------------------------------
Global & Regional Statistics diagnostics: Number of lists:     0
------------------------------------------------------------------------
(PID.TID 0000.0001) // =======================================================
(PID.TID 0000.0001) // Model current state
(PID.TID 0000.0001) // =======================================================
(PID.TID 0000.0001) 
(PID.TID 0000.0001) // =======================================================
(PID.TID 0000.0001) // Begin MONITOR dynamic field statistics
(PID.TID 0000.0001) // =======================================================
(PID.TID 0000.0001) %MON time_tsnumber                =                 72000
(PID.TID 0000.0001) %MON time_secondsf                =   6.4800000000000E+07
(PID.TID 0000.0001) %MON dynstat_eta_max              =   9.2249308874653E-01
(PID.TID 0000.0001) %MON dynstat_eta_min              =  -1.6181619580030E+00
(PID.TID 0000.0001) %MON dynstat_eta_mean             =   1.4427566214562E-14
(PID.TID 0000.0001) %MON dynstat_eta_sd               =   5.9907976973986E-01
(PID.TID 0000.0001) %MON dynstat_eta_del2             =   7.8581345364806E-04
(PID.TID 0000.0001) %MON dynstat_uvel_max             =   1.8639442347386E-01
(PID.TID 0000.0001) %MON dynstat_uvel_min             =  -2.8803502100767E-01
(PID.TID 0000.0001) %MON dynstat_uvel_mean            =  -4.8914430325890E-04
(PID.TID 0000.0001) %MON dynstat_uvel_sd              =   1.2021379389426E-02
(PID.TID 0000.0001) %MON dynstat_uvel_del2            =   5.1214215649781E-05
(PID.TID 0000.0001) %MON dynstat_vvel_max             =   1.7346247050018E-01
(PID.TID 0000.0001) %MON dynstat_vvel_min             =  -2.2519444280963E-01
(PID.TID 0000.0001) %MON dynstat_vvel_mean            =  -4.0398186384005E-04
(PID.TID 0000.0001) %MON dynstat_vvel_sd              =   1.2638380334010E-02
(PID.TID 0000.0001) %MON dynstat_vvel_del2            =   5.0639130168720E-05
(PID.TID 0000.0001) %MON dynstat_wvel_max             =   1.0315548206230E-04
(PID.TID 0000.0001) %MON dynstat_wvel_min             =  -2.0412092606640E-04
(PID.TID 0000.0001) %MON dynstat_wvel_mean            =   1.3594270097552E-10
(PID.TID 0000.0001) %MON dynstat_wvel_sd              =   3.8382293649569E-06
(PID.TID 0000.0001) %MON dynstat_wvel_del2            =   2.6457320450043E-08
(PID.TID 0000.0001) %MON dynstat_theta_max            =   3.0925958904704E+01
(PID.TID 0000.0001) %MON dynstat_theta_min            =  -3.0175293673864E+00
(PID.TID 0000.0001) %MON dynstat_theta_mean           =   3.9091304559860E+00
(PID.TID 0000.0001) %MON dynstat_theta_sd             =   4.5711443147581E+00
(PID.TID 0000.0001) %MON dynstat_theta_del2           =   2.6590891135791E-03
(PID.TID 0000.0001) %MON dynstat_salt_max             =   4.1386265990462E+01
(PID.TID 0000.0001) %MON dynstat_salt_min             =   1.8383410676806E+01
(PID.TID 0000.0001) %MON dynstat_salt_mean            =   3.4772068623474E+01
(PID.TID 0000.0001) %MON dynstat_salt_sd              =   5.3145226117181E-01
(PID.TID 0000.0001) %MON dynstat_salt_del2            =   8.0693627005698E-04
(PID.TID 0000.0001) %MON dynstat_sst_max              =   3.0925958904704E+01
(PID.TID 0000.0001) %MON dynstat_sst_min              =  -1.9648692042086E+00
(PID.TID 0000.0001) %MON dynstat_sst_mean             =   1.8113137824165E+01
(PID.TID 0000.0001) %MON dynstat_sst_sd               =   9.7982972159706E+00
(PID.TID 0000.0001) %MON dynstat_sst_del2             =   1.5454157826167E-02
(PID.TID 0000.0001) %MON dynstat_sss_max              =   4.1386265990462E+01
(PID.TID 0000.0001) %MON dynstat_sss_min              =   1.8383410676806E+01
(PID.TID 0000.0001) %MON dynstat_sss_mean             =   3.4632078412677E+01
(PID.TID 0000.0001) %MON dynstat_sss_sd               =   1.4684189495322E+00
(PID.TID 0000.0001) %MON dynstat_sss_del2             =   8.0812048509615E-03
(PID.TID 0000.0001) %MON forcing_qnet_max             =   0.0000000000000E+00
(PID.TID 0000.0001) %MON forcing_qnet_min             =   0.0000000000000E+00
(PID.TID 0000.0001) %MON forcing_qnet_mean            =   0.0000000000000E+00
(PID.TID 0000.0001) %MON forcing_qnet_sd              =   0.0000000000000E+00
(PID.TID 0000.0001) %MON forcing_qnet_del2            =   0.0000000000000E+00
(PID.TID 0000.0001) %MON forcing_qsw_max              =   0.0000000000000E+00
(PID.TID 0000.0001) %MON forcing_qsw_min              =   0.0000000000000E+00
(PID.TID 0000.0001) %MON forcing_qsw_mean             =   0.0000000000000E+00
(PID.TID 0000.0001) %MON forcing_qsw_sd               =   0.0000000000000E+00
(PID.TID 0000.0001) %MON forcing_qsw_del2             =   0.0000000000000E+00
(PID.TID 0000.0001) %MON forcing_empmr_max            =   0.0000000000000E+00
(PID.TID 0000.0001) %MON forcing_empmr_min            =   0.0000000000000E+00
(PID.TID 0000.0001) %MON forcing_empmr_mean           =   0.0000000000000E+00
(PID.TID 0000.0001) %MON forcing_empmr_sd             =   0.0000000000000E+00
(PID.TID 0000.0001) %MON forcing_empmr_del2           =   0.0000000000000E+00
(PID.TID 0000.0001) %MON forcing_fu_max               =   0.0000000000000E+00
(PID.TID 0000.0001) %MON forcing_fu_min               =   0.0000000000000E+00
(PID.TID 0000.0001) %MON forcing_fu_mean              =   0.0000000000000E+00
(PID.TID 0000.0001) %MON forcing_fu_sd                =   0.0000000000000E+00
(PID.TID 0000.0001) %MON forcing_fu_del2              =   0.0000000000000E+00
(PID.TID 0000.0001) %MON forcing_fv_max               =   0.0000000000000E+00
(PID.TID 0000.0001) %MON forcing_fv_min               =   0.0000000000000E+00
(PID.TID 0000.0001) %MON forcing_fv_mean              =   0.0000000000000E+00
(PID.TID 0000.0001) %MON forcing_fv_sd                =   0.0000000000000E+00
(PID.TID 0000.0001) %MON forcing_fv_del2              =   0.0000000000000E+00
(PID.TID 0000.0001) %MON trAdv_CFL_u_max              =   0.0000000000000E+00
(PID.TID 0000.0001) %MON trAdv_CFL_v_max              =   0.0000000000000E+00
(PID.TID 0000.0001) %MON trAdv_CFL_w_max              =   0.0000000000000E+00
(PID.TID 0000.0001) %MON advcfl_uvel_max              =   8.5096037087284E-04
(PID.TID 0000.0001) %MON advcfl_vvel_max              =   7.8760257411030E-04
(PID.TID 0000.0001) %MON advcfl_wvel_max              =   6.9324088098023E-04
(PID.TID 0000.0001) %MON advcfl_W_hf_max              =   7.6573916672744E-04
(PID.TID 0000.0001) %MON pe_b_mean                    =   4.7811655460464E-04
(PID.TID 0000.0001) %MON ke_max                       =   4.0700637549387E-02
(PID.TID 0000.0001) %MON ke_mean                      =   1.4067882101803E-04
(PID.TID 0000.0001) %MON ke_vol                       =   1.3398024453628E+18
(PID.TID 0000.0001) %MON vort_r_min                   =  -1.1843904755479E-06
(PID.TID 0000.0001) %MON vort_r_max                   =   1.2148454936551E-06
(PID.TID 0000.0001) %MON vort_a_mean                  =  -2.0549865324846E-05
(PID.TID 0000.0001) %MON vort_a_sd                    =   7.5259517155846E-05
(PID.TID 0000.0001) %MON vort_p_mean                  =  -2.4783469227166E-05
(PID.TID 0000.0001) %MON vort_p_sd                    =   1.2812074522595E-04
(PID.TID 0000.0001) %MON surfExpan_theta_mean         =  -3.8378290301302E-07
(PID.TID 0000.0001) %MON surfExpan_salt_mean          =  -1.6258537219558E-07
(PID.TID 0000.0001) // =======================================================
(PID.TID 0000.0001) // End MONITOR dynamic field statistics
(PID.TID 0000.0001) // =======================================================
(PID.TID 0000.0001) SOLVE_FOR_PRESSURE: putPmEinXvector =    F
(PID.TID 0000.0001) SOLVE_FOR_PRESSURE: zeroPsNH=    F , zeroMeanPnh=    F
(PID.TID 0000.0001) SOLVE_FOR_PRESSURE: oldFreeSurfTerm =    F
 cg2d: Sum(rhs),rhsMax =  -4.15567544873981E+00  1.71157446052840E+02
(PID.TID 0000.0001)      cg2d_init_res =   1.82627668787710E+00
(PID.TID 0000.0001)      cg2d_iters(min,last) =      -1       9
(PID.TID 0000.0001)      cg2d_last_res =   5.41719205169383E-08
(PID.TID 0000.0001) // =======================================================
(PID.TID 0000.0001) // Begin MONITOR dynamic field statistics
(PID.TID 0000.0001) // =======================================================
(PID.TID 0000.0001) %MON time_tsnumber                =                 72001
(PID.TID 0000.0001) %MON time_secondsf                =   6.4800900000000E+07
(PID.TID 0000.0001) %MON dynstat_eta_max              =   8.2753248603518E+00
(PID.TID 0000.0001) %MON dynstat_eta_min              =  -1.7013067136340E+00
(PID.TID 0000.0001) %MON dynstat_eta_mean             =   8.2649188403434E-03
(PID.TID 0000.0001) %MON dynstat_eta_sd               =   6.4411379469327E-01
(PID.TID 0000.0001) %MON dynstat_eta_del2             =   7.8581043819514E-03
(PID.TID 0000.0001) %MON dynstat_uvel_max             =   3.2763427683884E-01
(PID.TID 0000.0001) %MON dynstat_uvel_min             =  -2.8705054792850E-01
(PID.TID 0000.0001) %MON dynstat_uvel_mean            =  -4.7496989933213E-04
(PID.TID 0000.0001) %MON dynstat_uvel_sd              =   1.2102424821947E-02
(PID.TID 0000.0001) %MON dynstat_uvel_del2            =   5.7501461110449E-05
(PID.TID 0000.0001) %MON dynstat_vvel_max             =   2.5891757135081E-01
(PID.TID 0000.0001) %MON dynstat_vvel_min             =  -2.6145139611610E-01
(PID.TID 0000.0001) %MON dynstat_vvel_mean            =  -3.9526002650641E-04
(PID.TID 0000.0001) %MON dynstat_vvel_sd              =   1.2717138299234E-02
(PID.TID 0000.0001) %MON dynstat_vvel_del2            =   6.3785355634387E-05
(PID.TID 0000.0001) %MON dynstat_wvel_max             =   1.2092710117211E-03
(PID.TID 0000.0001) %MON dynstat_wvel_min             =  -9.5244762402226E-03
(PID.TID 0000.0001) %MON dynstat_wvel_mean            =  -2.0243135807828E-07
(PID.TID 0000.0001) %MON dynstat_wvel_sd              =   3.1998779708795E-05
(PID.TID 0000.0001) %MON dynstat_wvel_del2            =   7.8903358346513E-07
(PID.TID 0000.0001) %MON dynstat_theta_max            =   3.0925747390142E+01
(PID.TID 0000.0001) %MON dynstat_theta_min            =  -3.0174068477820E+00
(PID.TID 0000.0001) %MON dynstat_theta_mean           =   3.9089289293851E+00
(PID.TID 0000.0001) %MON dynstat_theta_sd             =   4.5705894933111E+00
(PID.TID 0000.0001) %MON dynstat_theta_del2           =   2.6547413109758E-03
(PID.TID 0000.0001) %MON dynstat_salt_max             =   4.1379252577007E+01
(PID.TID 0000.0001) %MON dynstat_salt_min             =   1.8518388124896E+01
(PID.TID 0000.0001) %MON dynstat_salt_mean            =   3.4772204635201E+01
(PID.TID 0000.0001) %MON dynstat_salt_sd              =   5.3093677039991E-01
(PID.TID 0000.0001) %MON dynstat_salt_del2            =   8.0227846269133E-04
(PID.TID 0000.0001) %MON dynstat_sst_max              =   3.0925747390142E+01
(PID.TID 0000.0001) %MON dynstat_sst_min              =  -1.8999508964805E+00
(PID.TID 0000.0001) %MON dynstat_sst_mean             =   1.8098847250153E+01
(PID.TID 0000.0001) %MON dynstat_sst_sd               =   9.8006374638329E+00
(PID.TID 0000.0001) %MON dynstat_sst_del2             =   1.5358863870586E-02
(PID.TID 0000.0001) %MON dynstat_sss_max              =   4.1379252577007E+01
(PID.TID 0000.0001) %MON dynstat_sss_min              =   1.8738343050650E+01
(PID.TID 0000.0001) %MON dynstat_sss_mean             =   3.4642167279436E+01
(PID.TID 0000.0001) %MON dynstat_sss_sd               =   1.4555452824407E+00
(PID.TID 0000.0001) %MON dynstat_sss_del2             =   8.0099712979122E-03
(PID.TID 0000.0001) %MON forcing_qnet_max             =   3.7691021875000E+05
(PID.TID 0000.0001) %MON forcing_qnet_min             =  -8.4035695312500E+04
(PID.TID 0000.0001) %MON forcing_qnet_mean            =   3.5052970590364E+03
(PID.TID 0000.0001) %MON forcing_qnet_sd              =   1.3699239540218E+04
(PID.TID 0000.0001) %MON forcing_qnet_del2            =   3.4117282201884E+02
(PID.TID 0000.0001) %MON forcing_qsw_max              =   0.0000000000000E+00
(PID.TID 0000.0001) %MON forcing_qsw_min              =   0.0000000000000E+00
(PID.TID 0000.0001) %MON forcing_qsw_mean             =   0.0000000000000E+00
(PID.TID 0000.0001) %MON forcing_qsw_sd               =   0.0000000000000E+00
(PID.TID 0000.0001) %MON forcing_qsw_del2             =   0.0000000000000E+00
(PID.TID 0000.0001) %MON forcing_empmr_max            =   1.2515954971313E+00
(PID.TID 0000.0001) %MON forcing_empmr_min            =  -9.8578329086304E+00
(PID.TID 0000.0001) %MON forcing_empmr_mean           =  -9.5046566663790E-03
(PID.TID 0000.0001) %MON forcing_empmr_sd             =   2.8328311641076E-01
(PID.TID 0000.0001) %MON forcing_empmr_del2           =   9.3820568160169E-03
(PID.TID 0000.0001) %MON forcing_fu_max               =   5.0394418218178E-01
(PID.TID 0000.0001) %MON forcing_fu_min               =  -4.7713168277919E-01
(PID.TID 0000.0001) %MON forcing_fu_mean              =  -5.5690211666177E-03
(PID.TID 0000.0001) %MON forcing_fu_sd                =   7.3532834983354E-02
(PID.TID 0000.0001) %MON forcing_fu_del2              =   7.3910536646487E-04
(PID.TID 0000.0001) %MON forcing_fv_max               =   2.7803807634013E-01
(PID.TID 0000.0001) %MON forcing_fv_min               =  -5.2780278664931E-01
(PID.TID 0000.0001) %MON forcing_fv_mean              =  -1.4712057131581E-02
(PID.TID 0000.0001) %MON forcing_fv_sd                =   6.9084531631483E-02
(PID.TID 0000.0001) %MON forcing_fv_del2              =   6.1366561507832E-04
(PID.TID 0000.0001) %MON trAdv_CFL_u_max              =   1.1280673742662E-03
(PID.TID 0000.0001) %MON trAdv_CFL_v_max              =   1.5079039795606E-03
(PID.TID 0000.0001) %MON trAdv_CFL_w_max              =   1.0966522999803E-01
(PID.TID 0000.0001) %MON advcfl_uvel_max              =   1.1495869841726E-03
(PID.TID 0000.0001) %MON advcfl_vvel_max              =   8.4494248074353E-04
(PID.TID 0000.0001) %MON advcfl_wvel_max              =   3.4288114464801E-01
(PID.TID 0000.0001) %MON advcfl_W_hf_max              =   1.1442963066944E-01
(PID.TID 0000.0001) %MON pe_b_mean                    =   5.5279126597983E-04
(PID.TID 0000.0001) %MON ke_max                       =   5.0286507753779E-02
(PID.TID 0000.0001) %MON ke_mean                      =   1.4249359840987E-04
(PID.TID 0000.0001) %MON ke_vol                       =   1.3398024453628E+18
(PID.TID 0000.0001) %MON vort_r_min                   =  -1.1879228754519E-06
(PID.TID 0000.0001) %MON vort_r_max                   =   1.2254772472623E-06
(PID.TID 0000.0001) %MON vort_a_mean                  =  -2.0549865324846E-05
(PID.TID 0000.0001) %MON vort_a_sd                    =   7.5259518452378E-05
(PID.TID 0000.0001) %MON vort_p_mean                  =  -2.4783469220072E-05
(PID.TID 0000.0001) %MON vort_p_sd                    =   1.2812073552816E-04
(PID.TID 0000.0001) %MON surfExpan_theta_mean         =  -5.9037824891054E-07
(PID.TID 0000.0001) %MON surfExpan_salt_mean          =   9.6921892502971E-07
(PID.TID 0000.0001) // =======================================================
(PID.TID 0000.0001) // End MONITOR dynamic field statistics
(PID.TID 0000.0001) // =======================================================
 cg2d: Sum(rhs),rhsMax =  -4.49609985371379E+00  1.77239144266918E+02
(PID.TID 0000.0001)      cg2d_init_res =   1.49817345266023E-01
(PID.TID 0000.0001)      cg2d_iters(min,last) =      -1       9
(PID.TID 0000.0001)      cg2d_last_res =   4.00344058088381E-08
(PID.TID 0000.0001) // =======================================================
(PID.TID 0000.0001) // Begin MONITOR dynamic field statistics
(PID.TID 0000.0001) // =======================================================
(PID.TID 0000.0001) %MON time_tsnumber                =                 72002
(PID.TID 0000.0001) %MON time_secondsf                =   6.4801800000000E+07
(PID.TID 0000.0001) %MON dynstat_eta_max              =   8.2924004920793E+00
(PID.TID 0000.0001) %MON dynstat_eta_min              =  -1.6611584507023E+00
(PID.TID 0000.0001) %MON dynstat_eta_mean             =   9.2596967853282E-03
(PID.TID 0000.0001) %MON dynstat_eta_sd               =   6.4477570559922E-01
(PID.TID 0000.0001) %MON dynstat_eta_del2             =   7.7938874363846E-03
(PID.TID 0000.0001) %MON dynstat_uvel_max             =   5.7139578560882E-01
(PID.TID 0000.0001) %MON dynstat_uvel_min             =  -3.7374574210969E-01
(PID.TID 0000.0001) %MON dynstat_uvel_mean            =  -4.5492610803290E-04
(PID.TID 0000.0001) %MON dynstat_uvel_sd              =   1.2337831833236E-02
(PID.TID 0000.0001) %MON dynstat_uvel_del2            =   7.2188321501731E-05
(PID.TID 0000.0001) %MON dynstat_vvel_max             =   4.9622113798582E-01
(PID.TID 0000.0001) %MON dynstat_vvel_min             =  -4.9670110224896E-01
(PID.TID 0000.0001) %MON dynstat_vvel_mean            =  -3.8715812471335E-04
(PID.TID 0000.0001) %MON dynstat_vvel_sd              =   1.2950880114285E-02
(PID.TID 0000.0001) %MON dynstat_vvel_del2            =   9.1295765520179E-05
(PID.TID 0000.0001) %MON dynstat_wvel_max             =   1.0346895888457E-04
(PID.TID 0000.0001) %MON dynstat_wvel_min             =  -9.6458968333000E-04
(PID.TID 0000.0001) %MON dynstat_wvel_mean            =  -1.7310857338065E-07
(PID.TID 0000.0001) %MON dynstat_wvel_sd              =   8.7004378776949E-06
(PID.TID 0000.0001) %MON dynstat_wvel_del2            =   1.0415141884991E-07
(PID.TID 0000.0001) %MON dynstat_theta_max            =   3.0925531570402E+01
(PID.TID 0000.0001) %MON dynstat_theta_min            =  -3.0169874562170E+00
(PID.TID 0000.0001) %MON dynstat_theta_mean           =   3.9089325687466E+00
(PID.TID 0000.0001) %MON dynstat_theta_sd             =   4.5706031312226E+00
(PID.TID 0000.0001) %MON dynstat_theta_del2           =   2.6546946846867E-03
(PID.TID 0000.0001) %MON dynstat_salt_max             =   4.1377063720332E+01
(PID.TID 0000.0001) %MON dynstat_salt_min             =   1.8518393956370E+01
(PID.TID 0000.0001) %MON dynstat_salt_mean            =   3.4772194017821E+01
(PID.TID 0000.0001) %MON dynstat_salt_sd              =   5.3093680922366E-01
(PID.TID 0000.0001) %MON dynstat_salt_del2            =   8.0273098253644E-04
(PID.TID 0000.0001) %MON dynstat_sst_max              =   3.0925531570402E+01
(PID.TID 0000.0001) %MON dynstat_sst_min              =  -1.8999086925626E+00
(PID.TID 0000.0001) %MON dynstat_sst_mean             =   1.8099122739712E+01
(PID.TID 0000.0001) %MON dynstat_sst_sd               =   9.8007891136055E+00
(PID.TID 0000.0001) %MON dynstat_sst_del2             =   1.5337563343195E-02
(PID.TID 0000.0001) %MON dynstat_sss_max              =   4.1377063720332E+01
(PID.TID 0000.0001) %MON dynstat_sss_min              =   1.8752704481778E+01
(PID.TID 0000.0001) %MON dynstat_sss_mean             =   3.4641715541822E+01
(PID.TID 0000.0001) %MON dynstat_sss_sd               =   1.4568674473123E+00
(PID.TID 0000.0001) %MON dynstat_sss_del2             =   8.0134004970150E-03
(PID.TID 0000.0001) %MON forcing_qnet_max             =   5.7813835937500E+04
(PID.TID 0000.0001) %MON forcing_qnet_min             =  -2.5625908203125E+04
(PID.TID 0000.0001) %MON forcing_qnet_mean            =  -1.1909073450501E+02
(PID.TID 0000.0001) %MON forcing_qnet_sd              =   1.9861880943845E+03
(PID.TID 0000.0001) %MON forcing_qnet_del2            =   5.8646598681298E+01
(PID.TID 0000.0001) %MON forcing_qsw_max              =   0.0000000000000E+00
(PID.TID 0000.0001) %MON forcing_qsw_min              =   0.0000000000000E+00
(PID.TID 0000.0001) %MON forcing_qsw_mean             =   0.0000000000000E+00
(PID.TID 0000.0001) %MON forcing_qsw_sd               =   0.0000000000000E+00
(PID.TID 0000.0001) %MON forcing_qsw_del2             =   0.0000000000000E+00
(PID.TID 0000.0001) %MON forcing_empmr_max            =   7.8137055039406E-02
(PID.TID 0000.0001) %MON forcing_empmr_min            =  -9.9835032224655E-01
(PID.TID 0000.0001) %MON forcing_empmr_mean           =  -1.1439946367319E-03
(PID.TID 0000.0001) %MON forcing_empmr_sd             =   2.3077264678144E-02
(PID.TID 0000.0001) %MON forcing_empmr_del2           =   8.6833411206863E-04
(PID.TID 0000.0001) %MON forcing_fu_max               =   5.2673748425444E-01
(PID.TID 0000.0001) %MON forcing_fu_min               =  -4.7110094412463E-01
(PID.TID 0000.0001) %MON forcing_fu_mean              =  -5.8126984624977E-03
(PID.TID 0000.0001) %MON forcing_fu_sd                =   7.5286898357679E-02
(PID.TID 0000.0001) %MON forcing_fu_del2              =   7.6082336345548E-04
(PID.TID 0000.0001) %MON forcing_fv_max               =   3.1840177954267E-01
(PID.TID 0000.0001) %MON forcing_fv_min               =  -5.1674004149319E-01
(PID.TID 0000.0001) %MON forcing_fv_mean              =  -1.4458658595215E-02
(PID.TID 0000.0001) %MON forcing_fv_sd                =   7.1803061220507E-02
(PID.TID 0000.0001) %MON forcing_fv_del2              =   6.3060993908657E-04
(PID.TID 0000.0001) %MON trAdv_CFL_u_max              =   1.8246435586775E-03
(PID.TID 0000.0001) %MON trAdv_CFL_v_max              =   2.8636511715891E-03
(PID.TID 0000.0001) %MON trAdv_CFL_w_max              =   1.5844110135323E-02
(PID.TID 0000.0001) %MON advcfl_uvel_max              =   1.9313399068020E-03
(PID.TID 0000.0001) %MON advcfl_vvel_max              =   1.6193505799536E-03
(PID.TID 0000.0001) %MON advcfl_wvel_max              =   3.4725228599880E-02
(PID.TID 0000.0001) %MON advcfl_W_hf_max              =   1.5844110135323E-02
(PID.TID 0000.0001) %MON pe_b_mean                    =   5.5394977346206E-04
(PID.TID 0000.0001) %MON ke_max                       =   1.5978050370001E-01
(PID.TID 0000.0001) %MON ke_mean                      =   1.4790787458503E-04
(PID.TID 0000.0001) %MON ke_vol                       =   1.3398054528571E+18
(PID.TID 0000.0001) %MON vort_r_min                   =  -1.6394467609797E-06
(PID.TID 0000.0001) %MON vort_r_max                   =   1.7132326033908E-06
(PID.TID 0000.0001) %MON vort_a_mean                  =  -2.0549865324846E-05
(PID.TID 0000.0001) %MON vort_a_sd                    =   7.5259520775864E-05
(PID.TID 0000.0001) %MON vort_p_mean                  =  -2.4783431347481E-05
(PID.TID 0000.0001) %MON vort_p_sd                    =   1.2811974218149E-04
(PID.TID 0000.0001) %MON surfExpan_theta_mean         =  -6.2332212281779E-06
(PID.TID 0000.0001) %MON surfExpan_salt_mean          =   6.5470601833063E-07
(PID.TID 0000.0001) // =======================================================
(PID.TID 0000.0001) // End MONITOR dynamic field statistics
(PID.TID 0000.0001) // =======================================================
 cg2d: Sum(rhs),rhsMax =  -4.95982305328427E+00  1.70734572114653E+02
(PID.TID 0000.0001)      cg2d_init_res =   1.95819877213434E-01
(PID.TID 0000.0001)      cg2d_iters(min,last) =      -1       9
(PID.TID 0000.0001)      cg2d_last_res =   4.54594419532766E-08
(PID.TID 0000.0001) // =======================================================
(PID.TID 0000.0001) // Begin MONITOR dynamic field statistics
(PID.TID 0000.0001) // =======================================================
(PID.TID 0000.0001) %MON time_tsnumber                =                 72003
(PID.TID 0000.0001) %MON time_secondsf                =   6.4802700000000E+07
(PID.TID 0000.0001) %MON dynstat_eta_max              =   7.9894066531979E+00
(PID.TID 0000.0001) %MON dynstat_eta_min              =  -1.6205227561434E+00
(PID.TID 0000.0001) %MON dynstat_eta_mean             =   9.8398578972222E-03
(PID.TID 0000.0001) %MON dynstat_eta_sd               =   6.4036982796831E-01
(PID.TID 0000.0001) %MON dynstat_eta_del2             =   7.1430793807749E-03
(PID.TID 0000.0001) %MON dynstat_uvel_max             =   8.2512186495856E-01
(PID.TID 0000.0001) %MON dynstat_uvel_min             =  -4.7287996475890E-01
(PID.TID 0000.0001) %MON dynstat_uvel_mean            =  -4.3052906758183E-04
(PID.TID 0000.0001) %MON dynstat_uvel_sd              =   1.2637973555086E-02
(PID.TID 0000.0001) %MON dynstat_uvel_del2            =   8.8567021634843E-05
(PID.TID 0000.0001) %MON dynstat_vvel_max             =   7.1115909503185E-01
(PID.TID 0000.0001) %MON dynstat_vvel_min             =  -7.1900551790083E-01
(PID.TID 0000.0001) %MON dynstat_vvel_mean            =  -3.8022586698546E-04
(PID.TID 0000.0001) %MON dynstat_vvel_sd              =   1.3236373360856E-02
(PID.TID 0000.0001) %MON dynstat_vvel_del2            =   1.1885723894843E-04
(PID.TID 0000.0001) %MON dynstat_wvel_max             =   1.0359928645482E-04
(PID.TID 0000.0001) %MON dynstat_wvel_min             =  -8.2196784495379E-04
(PID.TID 0000.0001) %MON dynstat_wvel_mean            =  -2.2594124798319E-07
(PID.TID 0000.0001) %MON dynstat_wvel_sd              =   9.6373144565396E-06
(PID.TID 0000.0001) %MON dynstat_wvel_del2            =   9.3131165973804E-08
(PID.TID 0000.0001) %MON dynstat_theta_max            =   3.0925309999023E+01
(PID.TID 0000.0001) %MON dynstat_theta_min            =  -3.0163140104988E+00
(PID.TID 0000.0001) %MON dynstat_theta_mean           =   3.9089447115900E+00
(PID.TID 0000.0001) %MON dynstat_theta_sd             =   4.5706416265380E+00
(PID.TID 0000.0001) %MON dynstat_theta_del2           =   2.6540319887960E-03
(PID.TID 0000.0001) %MON dynstat_salt_max             =   4.1376508806779E+01
(PID.TID 0000.0001) %MON dynstat_salt_min             =   1.8518404082493E+01
(PID.TID 0000.0001) %MON dynstat_salt_mean            =   3.4772185800723E+01
(PID.TID 0000.0001) %MON dynstat_salt_sd              =   5.3094703780900E-01
(PID.TID 0000.0001) %MON dynstat_salt_del2            =   8.0380461617098E-04
(PID.TID 0000.0001) %MON dynstat_sst_max              =   3.0925309999023E+01
(PID.TID 0000.0001) %MON dynstat_sst_min              =  -1.8998676802115E+00
(PID.TID 0000.0001) %MON dynstat_sst_mean             =   1.8099804823941E+01
(PID.TID 0000.0001) %MON dynstat_sst_sd               =   9.8009350775321E+00
(PID.TID 0000.0001) %MON dynstat_sst_del2             =   1.5314712438850E-02
(PID.TID 0000.0001) %MON dynstat_sss_max              =   4.1376508806779E+01
(PID.TID 0000.0001) %MON dynstat_sss_min              =   1.8753325135138E+01
(PID.TID 0000.0001) %MON dynstat_sss_mean             =   3.4641130341813E+01
(PID.TID 0000.0001) %MON dynstat_sss_sd               =   1.4573499392625E+00
(PID.TID 0000.0001) %MON dynstat_sss_del2             =   8.0292092850467E-03
(PID.TID 0000.0001) %MON forcing_qnet_max             =   4.1463300781250E+04
(PID.TID 0000.0001) %MON forcing_qnet_min             =  -1.6908115234375E+04
(PID.TID 0000.0001) %MON forcing_qnet_mean            =  -1.5593371149015E+02
(PID.TID 0000.0001) %MON forcing_qnet_sd              =   1.4001412989238E+03
(PID.TID 0000.0001) %MON forcing_qnet_del2            =   4.9543056954632E+01
(PID.TID 0000.0001) %MON forcing_qsw_max              =   0.0000000000000E+00
(PID.TID 0000.0001) %MON forcing_qsw_min              =   0.0000000000000E+00
(PID.TID 0000.0001) %MON forcing_qsw_mean             =   0.0000000000000E+00
(PID.TID 0000.0001) %MON forcing_qsw_sd               =   0.0000000000000E+00
(PID.TID 0000.0001) %MON forcing_qsw_del2             =   0.0000000000000E+00
(PID.TID 0000.0001) %MON forcing_empmr_max            =   7.4579827487469E-02
(PID.TID 0000.0001) %MON forcing_empmr_min            =  -7.3649841547012E-01
(PID.TID 0000.0001) %MON forcing_empmr_mean           =  -6.6718527867824E-04
(PID.TID 0000.0001) %MON forcing_empmr_sd             =   1.3762311537895E-02
(PID.TID 0000.0001) %MON forcing_empmr_del2           =   5.3595621551874E-04
(PID.TID 0000.0001) %MON forcing_fu_max               =   5.5432298440542E-01
(PID.TID 0000.0001) %MON forcing_fu_min               =  -4.9094270546944E-01
(PID.TID 0000.0001) %MON forcing_fu_mean              =  -5.7364112731537E-03
(PID.TID 0000.0001) %MON forcing_fu_sd                =   7.6395321889535E-02
(PID.TID 0000.0001) %MON forcing_fu_del2              =   7.7279019763108E-04
(PID.TID 0000.0001) %MON forcing_fv_max               =   3.3957571420374E-01
(PID.TID 0000.0001) %MON forcing_fv_min               =  -5.0013552843576E-01
(PID.TID 0000.0001) %MON forcing_fv_mean              =  -1.4045571613234E-02
(PID.TID 0000.0001) %MON forcing_fv_sd                =   7.3241110507504E-02
(PID.TID 0000.0001) %MON forcing_fv_del2              =   6.4697092177897E-04
(PID.TID 0000.0001) %MON trAdv_CFL_u_max              =   2.5788961252412E-03
(PID.TID 0000.0001) %MON trAdv_CFL_v_max              =   4.0592791870520E-03
(PID.TID 0000.0001) %MON trAdv_CFL_w_max              =   1.1446223413865E-02
(PID.TID 0000.0001) %MON advcfl_uvel_max              =   2.7515888633988E-03
(PID.TID 0000.0001) %MON advcfl_vvel_max              =   2.3207715367660E-03
(PID.TID 0000.0001) %MON advcfl_wvel_max              =   2.5617336190265E-02
(PID.TID 0000.0001) %MON advcfl_W_hf_max              =   1.1446223413865E-02
(PID.TID 0000.0001) %MON pe_b_mean                    =   5.4642131572385E-04
(PID.TID 0000.0001) %MON ke_max                       =   3.2621516618539E-01
(PID.TID 0000.0001) %MON ke_mean                      =   1.5480723895072E-04
(PID.TID 0000.0001) %MON ke_vol                       =   1.3398058148436E+18
(PID.TID 0000.0001) %MON vort_r_min                   =  -2.4217282439798E-06
(PID.TID 0000.0001) %MON vort_r_max                   =   2.4457830397549E-06
(PID.TID 0000.0001) %MON vort_a_mean                  =  -2.0549865324846E-05
(PID.TID 0000.0001) %MON vort_a_sd                    =   7.5259523325240E-05
(PID.TID 0000.0001) %MON vort_p_mean                  =  -2.4783424994405E-05
(PID.TID 0000.0001) %MON vort_p_sd                    =   1.2811962685387E-04
(PID.TID 0000.0001) %MON surfExpan_theta_mean         =  -6.8281890638656E-06
(PID.TID 0000.0001) %MON surfExpan_salt_mean          =   7.2041234117448E-07
(PID.TID 0000.0001) // =======================================================
(PID.TID 0000.0001) // End MONITOR dynamic field statistics
(PID.TID 0000.0001) // =======================================================
 Computing Diagnostic #     81  oceTAUX      Counter:       1   Parms: UU      U1      
           Vector  Mate for  oceTAUX      Diagnostic #     82  oceTAUY  exists 
 Computing Diagnostic #     82  oceTAUY      Counter:       1   Parms: VV      U1      
           Vector  Mate for  oceTAUY      Diagnostic #     81  oceTAUX  exists 
 Computing Diagnostic #     85  oceFWflx     Counter:       1   Parms: SM      U1      
 Computing Diagnostic #     86  oceSflux     Counter:       1   Parms: SM      U1      
 Computing Diagnostic #     87  oceQnet      Counter:       1   Parms: SM      U1      
 Computing Diagnostic #     88  oceQsw       Counter:       1   Parms: SM      U1      
 Computing Diagnostic #     27  SALT         Counter:       1   Parms: SMR     MR      
 Computing Diagnostic #     26  THETA        Counter:       1   Parms: SMR     MR      
 Computing Diagnostic #     45  UVELMASS     Counter:       1   Parms: UUr     MR      
           Vector  Mate for  UVELMASS     Diagnostic #     46  VVELMASS exists 
 Computing Diagnostic #     46  VVELMASS     Counter:       1   Parms: VVr     MR      
           Vector  Mate for  VVELMASS     Diagnostic #     45  UVELMASS exists 
 Computing Diagnostic #     83  atmPload     Counter:       1   Parms: SM      U1      
 cg2d: Sum(rhs),rhsMax =  -5.52485094910641E+00  1.61497873836613E+02
(PID.TID 0000.0001)      cg2d_init_res =   2.22655267263402E-01
(PID.TID 0000.0001)      cg2d_iters(min,last) =      -1       9
(PID.TID 0000.0001)      cg2d_last_res =   4.89822668010340E-08
(PID.TID 0000.0001) // =======================================================
(PID.TID 0000.0001) // Begin MONITOR dynamic field statistics
(PID.TID 0000.0001) // =======================================================
(PID.TID 0000.0001) %MON time_tsnumber                =                 72004
(PID.TID 0000.0001) %MON time_secondsf                =   6.4803600000000E+07
(PID.TID 0000.0001) %MON dynstat_eta_max              =   7.5595018884259E+00
(PID.TID 0000.0001) %MON dynstat_eta_min              =  -1.6221859408528E+00
(PID.TID 0000.0001) %MON dynstat_eta_mean             =   1.0367846253141E-02
(PID.TID 0000.0001) %MON dynstat_eta_sd               =   6.3556587573681E-01
(PID.TID 0000.0001) %MON dynstat_eta_del2             =   6.3790112151233E-03
(PID.TID 0000.0001) %MON dynstat_uvel_max             =   1.0592365282515E+00
(PID.TID 0000.0001) %MON dynstat_uvel_min             =  -5.6495352188268E-01
(PID.TID 0000.0001) %MON dynstat_uvel_mean            =  -4.0240596704521E-04
(PID.TID 0000.0001) %MON dynstat_uvel_sd              =   1.2940060767200E-02
(PID.TID 0000.0001) %MON dynstat_uvel_del2            =   1.0358609204880E-04
(PID.TID 0000.0001) %MON dynstat_vvel_max             =   8.9814399970717E-01
(PID.TID 0000.0001) %MON dynstat_vvel_min             =  -9.2310542701976E-01
(PID.TID 0000.0001) %MON dynstat_vvel_mean            =  -3.7533976875471E-04
(PID.TID 0000.0001) %MON dynstat_vvel_sd              =   1.3513997014390E-02
(PID.TID 0000.0001) %MON dynstat_vvel_del2            =   1.4238198957122E-04
(PID.TID 0000.0001) %MON dynstat_wvel_max             =   1.0372044559138E-04
(PID.TID 0000.0001) %MON dynstat_wvel_min             =  -8.6328976226540E-04
(PID.TID 0000.0001) %MON dynstat_wvel_mean            =  -2.8679825969604E-07
(PID.TID 0000.0001) %MON dynstat_wvel_sd              =   1.0330707114261E-05
(PID.TID 0000.0001) %MON dynstat_wvel_del2            =   9.4152343788089E-08
(PID.TID 0000.0001) %MON dynstat_theta_max            =   3.0925083807016E+01
(PID.TID 0000.0001) %MON dynstat_theta_min            =  -3.0154698297131E+00
(PID.TID 0000.0001) %MON dynstat_theta_mean           =   3.9089546323553E+00
(PID.TID 0000.0001) %MON dynstat_theta_sd             =   4.5706743810198E+00
(PID.TID 0000.0001) %MON dynstat_theta_del2           =   2.6533246057855E-03
(PID.TID 0000.0001) %MON dynstat_salt_max             =   4.1375918236752E+01
(PID.TID 0000.0001) %MON dynstat_salt_min             =   1.8518413788516E+01
(PID.TID 0000.0001) %MON dynstat_salt_mean            =   3.4772178036637E+01
(PID.TID 0000.0001) %MON dynstat_salt_sd              =   5.3096007459328E-01
(PID.TID 0000.0001) %MON dynstat_salt_del2            =   8.0532972429296E-04
(PID.TID 0000.0001) %MON dynstat_sst_max              =   3.0925083807016E+01
(PID.TID 0000.0001) %MON dynstat_sst_min              =  -1.8998265940048E+00
(PID.TID 0000.0001) %MON dynstat_sst_mean             =   1.8100317104711E+01
(PID.TID 0000.0001) %MON dynstat_sst_sd               =   9.8011288535114E+00
(PID.TID 0000.0001) %MON dynstat_sst_del2             =   1.5295136435866E-02
(PID.TID 0000.0001) %MON dynstat_sss_max              =   4.1375918236752E+01
(PID.TID 0000.0001) %MON dynstat_sss_min              =   1.8752727162647E+01
(PID.TID 0000.0001) %MON dynstat_sss_mean             =   3.4640573207160E+01
(PID.TID 0000.0001) %MON dynstat_sss_sd               =   1.4576917157691E+00
(PID.TID 0000.0001) %MON dynstat_sss_del2             =   8.0529500739885E-03
(PID.TID 0000.0001) %MON forcing_qnet_max             =   1.4852317382812E+04
(PID.TID 0000.0001) %MON forcing_qnet_min             =  -9.6740097656250E+03
(PID.TID 0000.0001) %MON forcing_qnet_mean            =  -1.1523807718597E+02
(PID.TID 0000.0001) %MON forcing_qnet_sd              =   9.7019135367729E+02
(PID.TID 0000.0001) %MON forcing_qnet_del2            =   3.1967134240805E+01
(PID.TID 0000.0001) %MON forcing_qsw_max              =   0.0000000000000E+00
(PID.TID 0000.0001) %MON forcing_qsw_min              =   0.0000000000000E+00
(PID.TID 0000.0001) %MON forcing_qsw_mean             =   0.0000000000000E+00
(PID.TID 0000.0001) %MON forcing_qsw_sd               =   0.0000000000000E+00
(PID.TID 0000.0001) %MON forcing_qsw_del2             =   0.0000000000000E+00
(PID.TID 0000.0001) %MON forcing_empmr_max            =   7.4940755963326E-02
(PID.TID 0000.0001) %MON forcing_empmr_min            =  -6.0024577379227E-01
(PID.TID 0000.0001) %MON forcing_empmr_mean           =  -6.0718660930711E-04
(PID.TID 0000.0001) %MON forcing_empmr_sd             =   1.1987042681125E-02
(PID.TID 0000.0001) %MON forcing_empmr_del2           =   4.6983885096028E-04
(PID.TID 0000.0001) %MON forcing_fu_max               =   5.7016526073302E-01
(PID.TID 0000.0001) %MON forcing_fu_min               =  -4.8709925527331E-01
(PID.TID 0000.0001) %MON forcing_fu_mean              =  -5.5549410643074E-03
(PID.TID 0000.0001) %MON forcing_fu_sd                =   7.6501867364067E-02
(PID.TID 0000.0001) %MON forcing_fu_del2              =   7.7637241090838E-04
(PID.TID 0000.0001) %MON forcing_fv_max               =   3.5962601423802E-01
(PID.TID 0000.0001) %MON forcing_fv_min               =  -4.6739804473533E-01
(PID.TID 0000.0001) %MON forcing_fv_mean              =  -1.3752154823801E-02
(PID.TID 0000.0001) %MON forcing_fv_sd                =   7.3752976955170E-02
(PID.TID 0000.0001) %MON forcing_fv_del2              =   6.5396353442218E-04
(PID.TID 0000.0001) %MON trAdv_CFL_u_max              =   3.3232598481629E-03
(PID.TID 0000.0001) %MON trAdv_CFL_v_max              =   5.0133922982014E-03
(PID.TID 0000.0001) %MON trAdv_CFL_w_max              =   9.1028773786681E-03
(PID.TID 0000.0001) %MON advcfl_uvel_max              =   3.5323066308374E-03
(PID.TID 0000.0001) %MON advcfl_vvel_max              =   2.9309714872510E-03
(PID.TID 0000.0001) %MON advcfl_wvel_max              =   2.0878113871035E-02
(PID.TID 0000.0001) %MON advcfl_W_hf_max              =   9.1028773786681E-03
(PID.TID 0000.0001) %MON pe_b_mean                    =   5.3826979283484E-04
(PID.TID 0000.0001) %MON ke_max                       =   5.4146086393818E-01
(PID.TID 0000.0001) %MON ke_mean                      =   1.6178977715230E-04
(PID.TID 0000.0001) %MON ke_vol                       =   1.3398060259565E+18
(PID.TID 0000.0001) %MON vort_r_min                   =  -3.1023965993727E-06
(PID.TID 0000.0001) %MON vort_r_max                   =   3.0683122013042E-06
(PID.TID 0000.0001) %MON vort_a_mean                  =  -2.0549865324846E-05
(PID.TID 0000.0001) %MON vort_a_sd                    =   7.5259525563192E-05
(PID.TID 0000.0001) %MON vort_p_mean                  =  -2.4783420253837E-05
(PID.TID 0000.0001) %MON vort_p_sd                    =   1.2811956535550E-04
(PID.TID 0000.0001) %MON surfExpan_theta_mean         =  -7.2114803887132E-06
(PID.TID 0000.0001) %MON surfExpan_salt_mean          =   8.3068039129901E-07
(PID.TID 0000.0001) // =======================================================
(PID.TID 0000.0001) // End MONITOR dynamic field statistics
(PID.TID 0000.0001) // =======================================================
 cg2d: Sum(rhs),rhsMax =  -6.21932544550666E+00  1.50484873799229E+02
(PID.TID 0000.0001)      cg2d_init_res =   2.42904068975974E-01
(PID.TID 0000.0001)      cg2d_iters(min,last) =      -1       9
(PID.TID 0000.0001)      cg2d_last_res =   5.70986131477367E-08
(PID.TID 0000.0001) // =======================================================
(PID.TID 0000.0001) // Begin MONITOR dynamic field statistics
(PID.TID 0000.0001) // =======================================================
(PID.TID 0000.0001) %MON time_tsnumber                =                 72005
(PID.TID 0000.0001) %MON time_secondsf                =   6.4804500000000E+07
(PID.TID 0000.0001) %MON dynstat_eta_max              =   7.0467670614887E+00
(PID.TID 0000.0001) %MON dynstat_eta_min              =  -1.6237136211931E+00
(PID.TID 0000.0001) %MON dynstat_eta_mean             =   1.0875201308776E-02
(PID.TID 0000.0001) %MON dynstat_eta_sd               =   6.3098768788141E-01
(PID.TID 0000.0001) %MON dynstat_eta_del2             =   5.5764403776490E-03
(PID.TID 0000.0001) %MON dynstat_uvel_max             =   1.2700695415347E+00
(PID.TID 0000.0001) %MON dynstat_uvel_min             =  -6.4906903105869E-01
(PID.TID 0000.0001) %MON dynstat_uvel_mean            =  -3.7171415654776E-04
(PID.TID 0000.0001) %MON dynstat_uvel_sd              =   1.3209893472085E-02
(PID.TID 0000.0001) %MON dynstat_uvel_del2            =   1.1612840638234E-04
(PID.TID 0000.0001) %MON dynstat_vvel_max             =   1.0562556974546E+00
(PID.TID 0000.0001) %MON dynstat_vvel_min             =  -1.1056286575461E+00
(PID.TID 0000.0001) %MON dynstat_vvel_mean            =  -3.7306997688094E-04
(PID.TID 0000.0001) %MON dynstat_vvel_sd              =   1.3757009444620E-02
(PID.TID 0000.0001) %MON dynstat_vvel_del2            =   1.6092420380229E-04
(PID.TID 0000.0001) %MON dynstat_wvel_max             =   1.0379455129636E-04
(PID.TID 0000.0001) %MON dynstat_wvel_min             =  -8.1067460457941E-04
(PID.TID 0000.0001) %MON dynstat_wvel_mean            =  -3.4440517552661E-07
(PID.TID 0000.0001) %MON dynstat_wvel_sd              =   1.0496504678052E-05
(PID.TID 0000.0001) %MON dynstat_wvel_del2            =   9.3960118565418E-08
(PID.TID 0000.0001) %MON dynstat_theta_max            =   3.0924850900466E+01
(PID.TID 0000.0001) %MON dynstat_theta_min            =  -3.0145556054314E+00
(PID.TID 0000.0001) %MON dynstat_theta_mean           =   3.9089681333370E+00
(PID.TID 0000.0001) %MON dynstat_theta_sd             =   4.5707254638808E+00
(PID.TID 0000.0001) %MON dynstat_theta_del2           =   2.6525008012707E-03
(PID.TID 0000.0001) %MON dynstat_salt_max             =   4.1375234658952E+01
(PID.TID 0000.0001) %MON dynstat_salt_min             =   1.8518423382312E+01
(PID.TID 0000.0001) %MON dynstat_salt_mean            =   3.4772170445658E+01
(PID.TID 0000.0001) %MON dynstat_salt_sd              =   5.3097397844466E-01
(PID.TID 0000.0001) %MON dynstat_salt_del2            =   8.0726923452154E-04
(PID.TID 0000.0001) %MON dynstat_sst_max              =   3.0924850900466E+01
(PID.TID 0000.0001) %MON dynstat_sst_min              =  -1.8997863743115E+00
(PID.TID 0000.0001) %MON dynstat_sst_mean             =   1.8101093650376E+01
(PID.TID 0000.0001) %MON dynstat_sst_sd               =   9.8015652902336E+00
(PID.TID 0000.0001) %MON dynstat_sst_del2             =   1.5273393618978E-02
(PID.TID 0000.0001) %MON dynstat_sss_max              =   4.1375234658952E+01
(PID.TID 0000.0001) %MON dynstat_sss_min              =   1.8751626139857E+01
(PID.TID 0000.0001) %MON dynstat_sss_mean             =   3.4640030091751E+01
(PID.TID 0000.0001) %MON dynstat_sss_sd               =   1.4580175775428E+00
(PID.TID 0000.0001) %MON dynstat_sss_del2             =   8.0833504888608E-03
(PID.TID 0000.0001) %MON forcing_qnet_max             =   1.3213029103530E+04
(PID.TID 0000.0001) %MON forcing_qnet_min             =  -1.6055157226562E+04
(PID.TID 0000.0001) %MON forcing_qnet_mean            =  -1.7764032407635E+02
(PID.TID 0000.0001) %MON forcing_qnet_sd              =   8.7332197407634E+02
(PID.TID 0000.0001) %MON forcing_qnet_del2            =   3.1826093239561E+01
(PID.TID 0000.0001) %MON forcing_qsw_max              =   0.0000000000000E+00
(PID.TID 0000.0001) %MON forcing_qsw_min              =  -1.0503431423366E+02
(PID.TID 0000.0001) %MON forcing_qsw_mean             =  -2.2106063695200E+01
(PID.TID 0000.0001) %MON forcing_qsw_sd               =   3.0047421374664E+01
(PID.TID 0000.0001) %MON forcing_qsw_del2             =   2.2162857755144E-01
(PID.TID 0000.0001) %MON forcing_empmr_max            =   4.6304620802402E-02
(PID.TID 0000.0001) %MON forcing_empmr_min            =  -5.0741231441498E-01
(PID.TID 0000.0001) %MON forcing_empmr_mean           =  -5.8345831397967E-04
(PID.TID 0000.0001) %MON forcing_empmr_sd             =   1.0811879181074E-02
(PID.TID 0000.0001) %MON forcing_empmr_del2           =   4.2673856603592E-04
(PID.TID 0000.0001) %MON forcing_fu_max               =   5.8840433450025E-01
(PID.TID 0000.0001) %MON forcing_fu_min               =  -4.6988316552893E-01
(PID.TID 0000.0001) %MON forcing_fu_mean              =  -5.4171136411573E-03
(PID.TID 0000.0001) %MON forcing_fu_sd                =   7.6423545578364E-02
(PID.TID 0000.0001) %MON forcing_fu_del2              =   7.7721917957937E-04
(PID.TID 0000.0001) %MON forcing_fv_max               =   3.6907762393744E-01
(PID.TID 0000.0001) %MON forcing_fv_min               =  -4.3020200834699E-01
(PID.TID 0000.0001) %MON forcing_fv_mean              =  -1.3580902936562E-02
(PID.TID 0000.0001) %MON forcing_fv_sd                =   7.3985694654950E-02
(PID.TID 0000.0001) %MON forcing_fv_del2              =   6.5646098701526E-04
(PID.TID 0000.0001) %MON trAdv_CFL_u_max              =   4.0029046004753E-03
(PID.TID 0000.0001) %MON trAdv_CFL_v_max              =   5.8721543390516E-03
(PID.TID 0000.0001) %MON trAdv_CFL_w_max              =   7.5052865463172E-03
(PID.TID 0000.0001) %MON advcfl_uvel_max              =   4.2353855286630E-03
(PID.TID 0000.0001) %MON advcfl_vvel_max              =   3.4469476314437E-03
(PID.TID 0000.0001) %MON advcfl_wvel_max              =   1.7649123979651E-02
(PID.TID 0000.0001) %MON advcfl_W_hf_max              =   7.5052865463172E-03
(PID.TID 0000.0001) %MON pe_b_mean                    =   5.3055939496192E-04
(PID.TID 0000.0001) %MON ke_max                       =   7.7856903148215E-01
(PID.TID 0000.0001) %MON ke_mean                      =   1.6809458253458E-04
(PID.TID 0000.0001) %MON ke_vol                       =   1.3398062180845E+18
(PID.TID 0000.0001) %MON vort_r_min                   =  -3.6574084590045E-06
(PID.TID 0000.0001) %MON vort_r_max                   =   3.5780654823960E-06
(PID.TID 0000.0001) %MON vort_a_mean                  =  -2.0549865324846E-05
(PID.TID 0000.0001) %MON vort_a_sd                    =   7.5259527198706E-05
(PID.TID 0000.0001) %MON vort_p_mean                  =  -2.4783415537738E-05
(PID.TID 0000.0001) %MON vort_p_sd                    =   1.2811950719792E-04
(PID.TID 0000.0001) %MON surfExpan_theta_mean         =  -7.5236702659628E-06
(PID.TID 0000.0001) %MON surfExpan_salt_mean          =   9.5602293899170E-07
(PID.TID 0000.0001) // =======================================================
(PID.TID 0000.0001) // End MONITOR dynamic field statistics
(PID.TID 0000.0001) // =======================================================
 cg2d: Sum(rhs),rhsMax =  -7.09030341669039E+00  1.37978531815532E+02
(PID.TID 0000.0001)      cg2d_init_res =   2.61378386949707E-01
(PID.TID 0000.0001)      cg2d_iters(min,last) =      -1       9
(PID.TID 0000.0001)      cg2d_last_res =   7.04550338902221E-08
(PID.TID 0000.0001) // =======================================================
(PID.TID 0000.0001) // Begin MONITOR dynamic field statistics
(PID.TID 0000.0001) // =======================================================
(PID.TID 0000.0001) %MON time_tsnumber                =                 72006
(PID.TID 0000.0001) %MON time_secondsf                =   6.4805400000000E+07
(PID.TID 0000.0001) %MON dynstat_eta_max              =   6.4642745627007E+00
(PID.TID 0000.0001) %MON dynstat_eta_min              =  -1.6246865281725E+00
(PID.TID 0000.0001) %MON dynstat_eta_mean             =   1.1367828502451E-02
(PID.TID 0000.0001) %MON dynstat_eta_sd               =   6.2682204278189E-01
(PID.TID 0000.0001) %MON dynstat_eta_del2             =   4.7930742684899E-03
(PID.TID 0000.0001) %MON dynstat_uvel_max             =   1.4552050647406E+00
(PID.TID 0000.0001) %MON dynstat_uvel_min             =  -7.2447762067607E-01
(PID.TID 0000.0001) %MON dynstat_uvel_mean            =  -3.3967793236679E-04
(PID.TID 0000.0001) %MON dynstat_uvel_sd              =   1.3437611344316E-02
(PID.TID 0000.0001) %MON dynstat_uvel_del2            =   1.2590926080213E-04
(PID.TID 0000.0001) %MON dynstat_vvel_max             =   1.1844216997658E+00
(PID.TID 0000.0001) %MON dynstat_vvel_min             =  -1.2636838640557E+00
(PID.TID 0000.0001) %MON dynstat_vvel_mean            =  -3.7358782032338E-04
(PID.TID 0000.0001) %MON dynstat_vvel_sd              =   1.3957299714341E-02
(PID.TID 0000.0001) %MON dynstat_vvel_del2            =   1.7439252819237E-04
(PID.TID 0000.0001) %MON dynstat_wvel_max             =   1.0375312356069E-04
(PID.TID 0000.0001) %MON dynstat_wvel_min             =  -6.9154630477432E-04
(PID.TID 0000.0001) %MON dynstat_wvel_mean            =  -3.9369374054782E-07
(PID.TID 0000.0001) %MON dynstat_wvel_sd              =   1.0268253868777E-05
(PID.TID 0000.0001) %MON dynstat_wvel_del2            =   9.2417671267859E-08
(PID.TID 0000.0001) %MON dynstat_theta_max            =   3.0924611844368E+01
(PID.TID 0000.0001) %MON dynstat_theta_min            =  -3.0136657637695E+00
(PID.TID 0000.0001) %MON dynstat_theta_mean           =   3.9089806172765E+00
(PID.TID 0000.0001) %MON dynstat_theta_sd             =   4.5707734281221E+00
(PID.TID 0000.0001) %MON dynstat_theta_del2           =   2.6516965659875E-03
(PID.TID 0000.0001) %MON dynstat_salt_max             =   4.1374469149051E+01
(PID.TID 0000.0001) %MON dynstat_salt_min             =   1.8518432934867E+01
(PID.TID 0000.0001) %MON dynstat_salt_mean            =   3.4772163014748E+01
(PID.TID 0000.0001) %MON dynstat_salt_sd              =   5.3098836597139E-01
(PID.TID 0000.0001) %MON dynstat_salt_del2            =   8.0961899567998E-04
(PID.TID 0000.0001) %MON dynstat_sst_max              =   3.0924611844368E+01
(PID.TID 0000.0001) %MON dynstat_sst_min              =  -1.8997475496696E+00
(PID.TID 0000.0001) %MON dynstat_sst_mean             =   1.8101806694597E+01
(PID.TID 0000.0001) %MON dynstat_sst_sd               =   9.8019941548632E+00
(PID.TID 0000.0001) %MON dynstat_sst_del2             =   1.5252480982413E-02
(PID.TID 0000.0001) %MON dynstat_sss_max              =   4.1374469149051E+01
(PID.TID 0000.0001) %MON dynstat_sss_min              =   1.8751426173687E+01
(PID.TID 0000.0001) %MON dynstat_sss_mean             =   3.4639499419138E+01
(PID.TID 0000.0001) %MON dynstat_sss_sd               =   1.4583505951641E+00
(PID.TID 0000.0001) %MON dynstat_sss_del2             =   8.1201791982918E-03
(PID.TID 0000.0001) %MON forcing_qnet_max             =   1.4189073242188E+04
(PID.TID 0000.0001) %MON forcing_qnet_min             =  -3.3352187500000E+04
(PID.TID 0000.0001) %MON forcing_qnet_mean            =  -1.6205900480394E+02
(PID.TID 0000.0001) %MON forcing_qnet_sd              =   8.6118597447435E+02
(PID.TID 0000.0001) %MON forcing_qnet_del2            =   3.6114948937590E+01
(PID.TID 0000.0001) %MON forcing_qsw_max              =   0.0000000000000E+00
(PID.TID 0000.0001) %MON forcing_qsw_min              =  -1.0461448703240E+02
(PID.TID 0000.0001) %MON forcing_qsw_mean             =  -2.2145908231505E+01
(PID.TID 0000.0001) %MON forcing_qsw_sd               =   3.0066106422634E+01
(PID.TID 0000.0001) %MON forcing_qsw_del2             =   2.2249716094498E-01
(PID.TID 0000.0001) %MON forcing_empmr_max            =   4.6453334391117E-02
(PID.TID 0000.0001) %MON forcing_empmr_min            =  -4.3687990307808E-01
(PID.TID 0000.0001) %MON forcing_empmr_mean           =  -5.6652127272660E-04
(PID.TID 0000.0001) %MON forcing_empmr_sd             =   9.9564482688554E-03
(PID.TID 0000.0001) %MON forcing_empmr_del2           =   3.9576149323924E-04
(PID.TID 0000.0001) %MON forcing_fu_max               =   6.1037132185451E-01
(PID.TID 0000.0001) %MON forcing_fu_min               =  -4.4471075468526E-01
(PID.TID 0000.0001) %MON forcing_fu_mean              =  -5.3417495603501E-03
(PID.TID 0000.0001) %MON forcing_fu_sd                =   7.6366299683295E-02
(PID.TID 0000.0001) %MON forcing_fu_del2              =   7.7712965991236E-04
(PID.TID 0000.0001) %MON forcing_fv_max               =   3.6918959507502E-01
(PID.TID 0000.0001) %MON forcing_fv_min               =  -3.9398334989995E-01
(PID.TID 0000.0001) %MON forcing_fv_mean              =  -1.3481531433341E-02
(PID.TID 0000.0001) %MON forcing_fv_sd                =   7.4147918460357E-02
(PID.TID 0000.0001) %MON forcing_fv_del2              =   6.5642258977177E-04
(PID.TID 0000.0001) %MON trAdv_CFL_u_max              =   4.6094206634385E-03
(PID.TID 0000.0001) %MON trAdv_CFL_v_max              =   6.7167872825681E-03
(PID.TID 0000.0001) %MON trAdv_CFL_w_max              =   6.4856293283725E-03
(PID.TID 0000.0001) %MON advcfl_uvel_max              =   4.8527692940275E-03
(PID.TID 0000.0001) %MON advcfl_vvel_max              =   3.8652000481289E-03
(PID.TID 0000.0001) %MON advcfl_wvel_max              =   1.5195822715759E-02
(PID.TID 0000.0001) %MON advcfl_W_hf_max              =   6.4856293283725E-03
(PID.TID 0000.0001) %MON pe_b_mean                    =   5.2359383914564E-04
(PID.TID 0000.0001) %MON ke_max                       =   1.0180495037991E+00
(PID.TID 0000.0001) %MON ke_mean                      =   1.7344789385262E-04
(PID.TID 0000.0001) %MON ke_vol                       =   1.3398064027043E+18
(PID.TID 0000.0001) %MON vort_r_min                   =  -4.1710042688612E-06
(PID.TID 0000.0001) %MON vort_r_max                   =   3.9716194224913E-06
(PID.TID 0000.0001) %MON vort_a_mean                  =  -2.0549865324846E-05
(PID.TID 0000.0001) %MON vort_a_sd                    =   7.5259528117806E-05
(PID.TID 0000.0001) %MON vort_p_mean                  =  -2.4783410801836E-05
(PID.TID 0000.0001) %MON vort_p_sd                    =   1.2811944958826E-04
(PID.TID 0000.0001) %MON surfExpan_theta_mean         =  -7.7508004436908E-06
(PID.TID 0000.0001) %MON surfExpan_salt_mean          =   1.0843543699019E-06
(PID.TID 0000.0001) // =======================================================
(PID.TID 0000.0001) // End MONITOR dynamic field statistics
(PID.TID 0000.0001) // =======================================================
 cg2d: Sum(rhs),rhsMax =  -8.20424891500443E+00  1.24273855388369E+02
(PID.TID 0000.0001)      cg2d_init_res =   2.81555906485233E-01
(PID.TID 0000.0001)      cg2d_iters(min,last) =      -1       9
(PID.TID 0000.0001)      cg2d_last_res =   8.17782906920313E-08
(PID.TID 0000.0001) // =======================================================
(PID.TID 0000.0001) // Begin MONITOR dynamic field statistics
(PID.TID 0000.0001) // =======================================================
(PID.TID 0000.0001) %MON time_tsnumber                =                 72007
(PID.TID 0000.0001) %MON time_secondsf                =   6.4806300000000E+07
(PID.TID 0000.0001) %MON dynstat_eta_max              =   5.8257087998325E+00
(PID.TID 0000.0001) %MON dynstat_eta_min              =  -2.3303131331487E+00
(PID.TID 0000.0001) %MON dynstat_eta_mean             =   1.1847310568804E-02
(PID.TID 0000.0001) %MON dynstat_eta_sd               =   6.2309398814041E-01
(PID.TID 0000.0001) %MON dynstat_eta_del2             =   4.0817352445381E-03
(PID.TID 0000.0001) %MON dynstat_uvel_max             =   1.6133066323480E+00
(PID.TID 0000.0001) %MON dynstat_uvel_min             =  -7.9058118485516E-01
(PID.TID 0000.0001) %MON dynstat_uvel_mean            =  -3.0740612694423E-04
(PID.TID 0000.0001) %MON dynstat_uvel_sd              =   1.3629074820816E-02
(PID.TID 0000.0001) %MON dynstat_uvel_del2            =   1.3309280485701E-04
(PID.TID 0000.0001) %MON dynstat_vvel_max             =   1.2820365308972E+00
(PID.TID 0000.0001) %MON dynstat_vvel_min             =  -1.3949709581403E+00
(PID.TID 0000.0001) %MON dynstat_vvel_mean            =  -3.7673111223359E-04
(PID.TID 0000.0001) %MON dynstat_vvel_sd              =   1.4114216974334E-02
(PID.TID 0000.0001) %MON dynstat_vvel_del2            =   1.8307057810813E-04
(PID.TID 0000.0001) %MON dynstat_wvel_max             =   1.0369216766657E-04
(PID.TID 0000.0001) %MON dynstat_wvel_min             =  -5.3448719281604E-04
(PID.TID 0000.0001) %MON dynstat_wvel_mean            =  -4.3092698134058E-07
(PID.TID 0000.0001) %MON dynstat_wvel_sd              =   9.8224799263672E-06
(PID.TID 0000.0001) %MON dynstat_wvel_del2            =   8.9826099067280E-08
(PID.TID 0000.0001) %MON dynstat_theta_max            =   3.0924369850253E+01
(PID.TID 0000.0001) %MON dynstat_theta_min            =  -3.0128712394164E+00
(PID.TID 0000.0001) %MON dynstat_theta_mean           =   3.9089918700698E+00
(PID.TID 0000.0001) %MON dynstat_theta_sd             =   4.5708178935344E+00
(PID.TID 0000.0001) %MON dynstat_theta_del2           =   2.6511932425403E-03
(PID.TID 0000.0001) %MON dynstat_salt_max             =   4.1373640190994E+01
(PID.TID 0000.0001) %MON dynstat_salt_min             =   1.8518442472148E+01
(PID.TID 0000.0001) %MON dynstat_salt_mean            =   3.4772155674628E+01
(PID.TID 0000.0001) %MON dynstat_salt_sd              =   5.3100330943741E-01
(PID.TID 0000.0001) %MON dynstat_salt_del2            =   8.1247152533003E-04
(PID.TID 0000.0001) %MON dynstat_sst_max              =   3.0924369850253E+01
(PID.TID 0000.0001) %MON dynstat_sst_min              =  -1.8997092001613E+00
(PID.TID 0000.0001) %MON dynstat_sst_mean             =   1.8102466861595E+01
(PID.TID 0000.0001) %MON dynstat_sst_sd               =   9.8024100105378E+00
(PID.TID 0000.0001) %MON dynstat_sst_del2             =   1.5239681641995E-02
(PID.TID 0000.0001) %MON dynstat_sss_max              =   4.1373640190994E+01
(PID.TID 0000.0001) %MON dynstat_sss_min              =   1.8751390401085E+01
(PID.TID 0000.0001) %MON dynstat_sss_mean             =   3.4638981157758E+01
(PID.TID 0000.0001) %MON dynstat_sss_sd               =   1.4587041459273E+00
(PID.TID 0000.0001) %MON dynstat_sss_del2             =   8.1647777254876E-03
(PID.TID 0000.0001) %MON forcing_qnet_max             =   4.3839273437500E+04
(PID.TID 0000.0001) %MON forcing_qnet_min             =  -9.6747929687500E+03
(PID.TID 0000.0001) %MON forcing_qnet_mean            =  -1.4300284456877E+02
(PID.TID 0000.0001) %MON forcing_qnet_sd              =   9.6983908928555E+02
(PID.TID 0000.0001) %MON forcing_qnet_del2            =   3.8790035038936E+01
(PID.TID 0000.0001) %MON forcing_qsw_max              =   0.0000000000000E+00
(PID.TID 0000.0001) %MON forcing_qsw_min              =  -1.0515949983294E+02
(PID.TID 0000.0001) %MON forcing_qsw_mean             =  -2.2109313520957E+01
(PID.TID 0000.0001) %MON forcing_qsw_sd               =   3.0035907868891E+01
(PID.TID 0000.0001) %MON forcing_qsw_del2             =   2.2312130991191E-01
(PID.TID 0000.0001) %MON forcing_empmr_max            =   4.4943556189537E-02
(PID.TID 0000.0001) %MON forcing_empmr_min            =  -3.7821611762047E-01
(PID.TID 0000.0001) %MON forcing_empmr_mean           =  -5.5140437630526E-04
(PID.TID 0000.0001) %MON forcing_empmr_sd             =   9.2729416718683E-03
(PID.TID 0000.0001) %MON forcing_empmr_del2           =   3.7105864340475E-04
(PID.TID 0000.0001) %MON forcing_fu_max               =   6.3678632225348E-01
(PID.TID 0000.0001) %MON forcing_fu_min               =  -4.1475459439618E-01
(PID.TID 0000.0001) %MON forcing_fu_mean              =  -5.3254229301135E-03
(PID.TID 0000.0001) %MON forcing_fu_sd                =   7.6414362496773E-02
(PID.TID 0000.0001) %MON forcing_fu_del2              =   7.7812269615228E-04
(PID.TID 0000.0001) %MON forcing_fv_max               =   3.6444794627966E-01
(PID.TID 0000.0001) %MON forcing_fv_min               =  -3.6230742752829E-01
(PID.TID 0000.0001) %MON forcing_fv_mean              =  -1.3395386110811E-02
(PID.TID 0000.0001) %MON forcing_fv_sd                =   7.4286383308097E-02
(PID.TID 0000.0001) %MON forcing_fv_del2              =   6.5613521797559E-04
(PID.TID 0000.0001) %MON trAdv_CFL_u_max              =   5.1369194670202E-03
(PID.TID 0000.0001) %MON trAdv_CFL_v_max              =   7.4261682864591E-03
(PID.TID 0000.0001) %MON trAdv_CFL_w_max              =   6.8561533281265E-03
(PID.TID 0000.0001) %MON advcfl_uvel_max              =   5.3800011263050E-03
(PID.TID 0000.0001) %MON advcfl_vvel_max              =   4.1837528490967E-03
(PID.TID 0000.0001) %MON advcfl_wvel_max              =   1.3155343221581E-02
(PID.TID 0000.0001) %MON advcfl_W_hf_max              =   6.8561533281265E-03
(PID.TID 0000.0001) %MON pe_b_mean                    =   5.1740096197199E-04
(PID.TID 0000.0001) %MON ke_max                       =   1.2419397390303E+00
(PID.TID 0000.0001) %MON ke_mean                      =   1.7786448297757E-04
(PID.TID 0000.0001) %MON ke_vol                       =   1.3398065819648E+18
(PID.TID 0000.0001) %MON vort_r_min                   =  -4.6043397299279E-06
(PID.TID 0000.0001) %MON vort_r_max                   =   4.2478197688380E-06
(PID.TID 0000.0001) %MON vort_a_mean                  =  -2.0549865324846E-05
(PID.TID 0000.0001) %MON vort_a_sd                    =   7.5259528338501E-05
(PID.TID 0000.0001) %MON vort_p_mean                  =  -2.4783406089624E-05
(PID.TID 0000.0001) %MON vort_p_sd                    =   1.2811939338807E-04
(PID.TID 0000.0001) %MON surfExpan_theta_mean         =  -7.8706836218056E-06
(PID.TID 0000.0001) %MON surfExpan_salt_mean          =   1.2064303397061E-06
(PID.TID 0000.0001) // =======================================================
(PID.TID 0000.0001) // End MONITOR dynamic field statistics
(PID.TID 0000.0001) // =======================================================
 Computing Diagnostic #     81  oceTAUX      Counter:       1   Parms: UU      U1      
           Vector  Mate for  oceTAUX      Diagnostic #     82  oceTAUY  exists 
 Computing Diagnostic #     82  oceTAUY      Counter:       1   Parms: VV      U1      
           Vector  Mate for  oceTAUY      Diagnostic #     81  oceTAUX  exists 
 Computing Diagnostic #     85  oceFWflx     Counter:       1   Parms: SM      U1      
 Computing Diagnostic #     86  oceSflux     Counter:       1   Parms: SM      U1      
 Computing Diagnostic #     87  oceQnet      Counter:       1   Parms: SM      U1      
 Computing Diagnostic #     88  oceQsw       Counter:       1   Parms: SM      U1      
 Computing Diagnostic #     27  SALT         Counter:       1   Parms: SMR     MR      
 Computing Diagnostic #     26  THETA        Counter:       1   Parms: SMR     MR      
 Computing Diagnostic #     45  UVELMASS     Counter:       1   Parms: UUr     MR      
           Vector  Mate for  UVELMASS     Diagnostic #     46  VVELMASS exists 
 Computing Diagnostic #     46  VVELMASS     Counter:       1   Parms: VVr     MR      
           Vector  Mate for  VVELMASS     Diagnostic #     45  UVELMASS exists 
 Computing Diagnostic #     83  atmPload     Counter:       1   Parms: SM      U1      
 cg2d: Sum(rhs),rhsMax =  -9.66255201223237E+00  1.09671373885758E+02
(PID.TID 0000.0001)      cg2d_init_res =   3.07915544765642E-01
(PID.TID 0000.0001)      cg2d_iters(min,last) =      -1       9
(PID.TID 0000.0001)      cg2d_last_res =   9.27879935814958E-08
(PID.TID 0000.0001) // =======================================================
(PID.TID 0000.0001) // Begin MONITOR dynamic field statistics
(PID.TID 0000.0001) // =======================================================
(PID.TID 0000.0001) %MON time_tsnumber                =                 72008
(PID.TID 0000.0001) %MON time_secondsf                =   6.4807200000000E+07
(PID.TID 0000.0001) %MON dynstat_eta_max              =   5.1450290760423E+00
(PID.TID 0000.0001) %MON dynstat_eta_min              =  -2.6957302634840E+00
(PID.TID 0000.0001) %MON dynstat_eta_mean             =   1.2313635732551E-02
(PID.TID 0000.0001) %MON dynstat_eta_sd               =   6.1978395814956E-01
(PID.TID 0000.0001) %MON dynstat_eta_del2             =   3.4823536537788E-03
(PID.TID 0000.0001) %MON dynstat_uvel_max             =   1.7439974796904E+00
(PID.TID 0000.0001) %MON dynstat_uvel_min             =  -8.4695508311674E-01
(PID.TID 0000.0001) %MON dynstat_uvel_mean            =  -2.7579081501068E-04
(PID.TID 0000.0001) %MON dynstat_uvel_sd              =   1.3795246265139E-02
(PID.TID 0000.0001) %MON dynstat_uvel_del2            =   1.3807405870713E-04
(PID.TID 0000.0001) %MON dynstat_vvel_max             =   1.3489771553871E+00
(PID.TID 0000.0001) %MON dynstat_vvel_min             =  -1.4978159302597E+00
(PID.TID 0000.0001) %MON dynstat_vvel_mean            =  -3.8214185234387E-04
(PID.TID 0000.0001) %MON dynstat_vvel_sd              =   1.4228741990807E-02
(PID.TID 0000.0001) %MON dynstat_vvel_del2            =   1.8743632028487E-04
(PID.TID 0000.0001) %MON dynstat_wvel_max             =   1.0382370034170E-04
(PID.TID 0000.0001) %MON dynstat_wvel_min             =  -5.5028659114173E-04
(PID.TID 0000.0001) %MON dynstat_wvel_mean            =  -4.5420517522568E-07
(PID.TID 0000.0001) %MON dynstat_wvel_sd              =   9.3341871787229E-06
(PID.TID 0000.0001) %MON dynstat_wvel_del2            =   8.6730188766760E-08
(PID.TID 0000.0001) %MON dynstat_theta_max            =   3.0924128061754E+01
(PID.TID 0000.0001) %MON dynstat_theta_min            =  -3.0122108024658E+00
(PID.TID 0000.0001) %MON dynstat_theta_mean           =   3.9090029035220E+00
(PID.TID 0000.0001) %MON dynstat_theta_sd             =   4.5708607155523E+00
(PID.TID 0000.0001) %MON dynstat_theta_del2           =   2.6507066156891E-03
(PID.TID 0000.0001) %MON dynstat_salt_max             =   4.1372762739578E+01
(PID.TID 0000.0001) %MON dynstat_salt_min             =   1.8518452017040E+01
(PID.TID 0000.0001) %MON dynstat_salt_mean            =   3.4772148624798E+01
(PID.TID 0000.0001) %MON dynstat_salt_sd              =   5.3101900016734E-01
(PID.TID 0000.0001) %MON dynstat_salt_del2            =   8.1569066158319E-04
(PID.TID 0000.0001) %MON dynstat_sst_max              =   3.0924128061754E+01
(PID.TID 0000.0001) %MON dynstat_sst_min              =  -1.8996726629859E+00
(PID.TID 0000.0001) %MON dynstat_sst_mean             =   1.8103101549111E+01
(PID.TID 0000.0001) %MON dynstat_sst_sd               =   9.8027943426586E+00
(PID.TID 0000.0001) %MON dynstat_sst_del2             =   1.5227128296943E-02
(PID.TID 0000.0001) %MON dynstat_sss_max              =   4.1372762739578E+01
(PID.TID 0000.0001) %MON dynstat_sss_min              =   1.8751384501592E+01
(PID.TID 0000.0001) %MON dynstat_sss_mean             =   3.4638479570664E+01
(PID.TID 0000.0001) %MON dynstat_sss_sd               =   1.4590757249815E+00
(PID.TID 0000.0001) %MON dynstat_sss_del2             =   8.2150545601780E-03
(PID.TID 0000.0001) %MON forcing_qnet_max             =   1.4299329101562E+04
(PID.TID 0000.0001) %MON forcing_qnet_min             =  -1.2434758789062E+04
(PID.TID 0000.0001) %MON forcing_qnet_mean            =  -1.4092697491984E+02
(PID.TID 0000.0001) %MON forcing_qnet_sd              =   7.0134989461734E+02
(PID.TID 0000.0001) %MON forcing_qnet_del2            =   2.2656443105823E+01
(PID.TID 0000.0001) %MON forcing_qsw_max              =   0.0000000000000E+00
(PID.TID 0000.0001) %MON forcing_qsw_min              =  -1.0525930130125E+02
(PID.TID 0000.0001) %MON forcing_qsw_mean             =  -2.2001889851049E+01
(PID.TID 0000.0001) %MON forcing_qsw_sd               =   2.9952982649981E+01
(PID.TID 0000.0001) %MON forcing_qsw_del2             =   2.2348275421063E-01
(PID.TID 0000.0001) %MON forcing_empmr_max            =   4.1836004704237E-02
(PID.TID 0000.0001) %MON forcing_empmr_min            =  -3.2981872558594E-01
(PID.TID 0000.0001) %MON forcing_empmr_mean           =  -5.3627393830932E-04
(PID.TID 0000.0001) %MON forcing_empmr_sd             =   8.7276248212710E-03
(PID.TID 0000.0001) %MON forcing_empmr_del2           =   3.5098501259219E-04
(PID.TID 0000.0001) %MON forcing_fu_max               =   6.5955393649935E-01
(PID.TID 0000.0001) %MON forcing_fu_min               =  -3.9703899684619E-01
(PID.TID 0000.0001) %MON forcing_fu_mean              =  -5.3469252779961E-03
(PID.TID 0000.0001) %MON forcing_fu_sd                =   7.6428304991755E-02
(PID.TID 0000.0001) %MON forcing_fu_del2              =   7.7803453673151E-04
(PID.TID 0000.0001) %MON forcing_fv_max               =   3.5896278548623E-01
(PID.TID 0000.0001) %MON forcing_fv_min               =  -3.3699248571429E-01
(PID.TID 0000.0001) %MON forcing_fv_mean              =  -1.3287809638251E-02
(PID.TID 0000.0001) %MON forcing_fv_sd                =   7.4445694276842E-02
(PID.TID 0000.0001) %MON forcing_fv_del2              =   6.5661210061289E-04
(PID.TID 0000.0001) %MON trAdv_CFL_u_max              =   5.5820415036971E-03
(PID.TID 0000.0001) %MON trAdv_CFL_v_max              =   7.9940802700971E-03
(PID.TID 0000.0001) %MON trAdv_CFL_w_max              =   7.0568179877037E-03
(PID.TID 0000.0001) %MON advcfl_uvel_max              =   5.8158246032574E-03
(PID.TID 0000.0001) %MON advcfl_vvel_max              =   4.4886089613462E-03
(PID.TID 0000.0001) %MON advcfl_wvel_max              =   1.1471955672554E-02
(PID.TID 0000.0001) %MON advcfl_W_hf_max              =   7.0568179877037E-03
(PID.TID 0000.0001) %MON pe_b_mean                    =   5.1193536238593E-04
(PID.TID 0000.0001) %MON ke_max                       =   1.4347152907184E+00
(PID.TID 0000.0001) %MON ke_mean                      =   1.8145808019379E-04
(PID.TID 0000.0001) %MON ke_vol                       =   1.3398067564420E+18
(PID.TID 0000.0001) %MON vort_r_min                   =  -4.9437971131726E-06
(PID.TID 0000.0001) %MON vort_r_max                   =   4.4078282158917E-06
(PID.TID 0000.0001) %MON vort_a_mean                  =  -2.0549865324846E-05
(PID.TID 0000.0001) %MON vort_a_sd                    =   7.5259527945379E-05
(PID.TID 0000.0001) %MON vort_p_mean                  =  -2.4783401449937E-05
(PID.TID 0000.0001) %MON vort_p_sd                    =   1.2811933986954E-04
(PID.TID 0000.0001) %MON surfExpan_theta_mean         =  -7.9060100637367E-06
(PID.TID 0000.0001) %MON surfExpan_salt_mean          =   1.3135549502018E-06
(PID.TID 0000.0001) // =======================================================
(PID.TID 0000.0001) // End MONITOR dynamic field statistics
(PID.TID 0000.0001) // =======================================================
 cg2d: Sum(rhs),rhsMax =  -1.16299860869191E+01  9.44701428156649E+01
(PID.TID 0000.0001)      cg2d_init_res =   3.47327042696759E-01
(PID.TID 0000.0001)      cg2d_iters(min,last) =      -1      10
(PID.TID 0000.0001)      cg2d_last_res =   2.21527958468228E-08
(PID.TID 0000.0001) // =======================================================
(PID.TID 0000.0001) // Begin MONITOR dynamic field statistics
(PID.TID 0000.0001) // =======================================================
(PID.TID 0000.0001) %MON time_tsnumber                =                 72009
(PID.TID 0000.0001) %MON time_secondsf                =   6.4808100000000E+07
(PID.TID 0000.0001) %MON dynstat_eta_max              =   4.4361416949528E+00
(PID.TID 0000.0001) %MON dynstat_eta_min              =  -2.6956272592802E+00
(PID.TID 0000.0001) %MON dynstat_eta_mean             =   1.2766590855599E-02
(PID.TID 0000.0001) %MON dynstat_eta_sd               =   6.1689175503776E-01
(PID.TID 0000.0001) %MON dynstat_eta_del2             =   3.0161495322789E-03
(PID.TID 0000.0001) %MON dynstat_uvel_max             =   1.8476010137678E+00
(PID.TID 0000.0001) %MON dynstat_uvel_min             =  -8.9333741215728E-01
(PID.TID 0000.0001) %MON dynstat_uvel_mean            =  -2.4542908068145E-04
(PID.TID 0000.0001) %MON dynstat_uvel_sd              =   1.3943486613280E-02
(PID.TID 0000.0001) %MON dynstat_uvel_del2            =   1.4129166147715E-04
(PID.TID 0000.0001) %MON dynstat_vvel_max             =   1.3855570148934E+00
(PID.TID 0000.0001) %MON dynstat_vvel_min             =  -1.5711814729731E+00
(PID.TID 0000.0001) %MON dynstat_vvel_mean            =  -3.8929149121618E-04
(PID.TID 0000.0001) %MON dynstat_vvel_sd              =   1.4301496116138E-02
(PID.TID 0000.0001) %MON dynstat_vvel_del2            =   1.8806112076348E-04
(PID.TID 0000.0001) %MON dynstat_wvel_max             =   1.0399191682063E-04
(PID.TID 0000.0001) %MON dynstat_wvel_min             =  -5.5480166657168E-04
(PID.TID 0000.0001) %MON dynstat_wvel_mean            =  -4.6479461300759E-07
(PID.TID 0000.0001) %MON dynstat_wvel_sd              =   8.9382213576003E-06
(PID.TID 0000.0001) %MON dynstat_wvel_del2            =   8.3760161513475E-08
(PID.TID 0000.0001) %MON dynstat_theta_max            =   3.0923896568455E+01
(PID.TID 0000.0001) %MON dynstat_theta_min            =  -3.0116906671115E+00
(PID.TID 0000.0001) %MON dynstat_theta_mean           =   3.9090133496810E+00
(PID.TID 0000.0001) %MON dynstat_theta_sd             =   4.5709020037768E+00
(PID.TID 0000.0001) %MON dynstat_theta_del2           =   2.6502554681663E-03
(PID.TID 0000.0001) %MON dynstat_salt_max             =   4.1371845743200E+01
(PID.TID 0000.0001) %MON dynstat_salt_min             =   1.8518461591921E+01
(PID.TID 0000.0001) %MON dynstat_salt_mean            =   3.4772141725543E+01
(PID.TID 0000.0001) %MON dynstat_salt_sd              =   5.3103540083502E-01
(PID.TID 0000.0001) %MON dynstat_salt_del2            =   8.1923408912326E-04
(PID.TID 0000.0001) %MON dynstat_sst_max              =   3.0923896568455E+01
(PID.TID 0000.0001) %MON dynstat_sst_min              =  -1.8996381033310E+00
(PID.TID 0000.0001) %MON dynstat_sst_mean             =   1.8103686712406E+01
(PID.TID 0000.0001) %MON dynstat_sst_sd               =   9.8031931114773E+00
(PID.TID 0000.0001) %MON dynstat_sst_del2             =   1.5215518997849E-02
(PID.TID 0000.0001) %MON dynstat_sss_max              =   4.1371845743200E+01
(PID.TID 0000.0001) %MON dynstat_sss_min              =   1.8751384065395E+01
(PID.TID 0000.0001) %MON dynstat_sss_mean             =   3.4637985880787E+01
(PID.TID 0000.0001) %MON dynstat_sss_sd               =   1.4594658920504E+00
(PID.TID 0000.0001) %MON dynstat_sss_del2             =   8.2703098673509E-03
(PID.TID 0000.0001) %MON forcing_qnet_max             =   1.4907752929688E+04
(PID.TID 0000.0001) %MON forcing_qnet_min             =  -1.1419175781250E+04
(PID.TID 0000.0001) %MON forcing_qnet_mean            =  -1.3229385847714E+02
(PID.TID 0000.0001) %MON forcing_qnet_sd              =   6.5053184617411E+02
(PID.TID 0000.0001) %MON forcing_qnet_del2            =   2.0263278737976E+01
(PID.TID 0000.0001) %MON forcing_qsw_max              =   0.0000000000000E+00
(PID.TID 0000.0001) %MON forcing_qsw_min              =  -1.0716615499884E+02
(PID.TID 0000.0001) %MON forcing_qsw_mean             =  -2.2572394538983E+01
(PID.TID 0000.0001) %MON forcing_qsw_sd               =   3.0598822525969E+01
(PID.TID 0000.0001) %MON forcing_qsw_del2             =   2.2969099944297E-01
(PID.TID 0000.0001) %MON forcing_empmr_max            =   3.6618325859308E-02
(PID.TID 0000.0001) %MON forcing_empmr_min            =  -2.9084733128548E-01
(PID.TID 0000.0001) %MON forcing_empmr_mean           =  -5.2089839150589E-04
(PID.TID 0000.0001) %MON forcing_empmr_sd             =   8.2915983454537E-03
(PID.TID 0000.0001) %MON forcing_empmr_del2           =   3.3455142861083E-04
(PID.TID 0000.0001) %MON forcing_fu_max               =   6.8083277597949E-01
(PID.TID 0000.0001) %MON forcing_fu_min               =  -4.2471500858969E-01
(PID.TID 0000.0001) %MON forcing_fu_mean              =  -5.3575749609198E-03
(PID.TID 0000.0001) %MON forcing_fu_sd                =   7.6591859035589E-02
(PID.TID 0000.0001) %MON forcing_fu_del2              =   7.8098732501402E-04
(PID.TID 0000.0001) %MON forcing_fv_max               =   3.5524686831161E-01
(PID.TID 0000.0001) %MON forcing_fv_min               =  -3.2666516033811E-01
(PID.TID 0000.0001) %MON forcing_fv_mean              =  -1.3118350389456E-02
(PID.TID 0000.0001) %MON forcing_fv_sd                =   7.4655462558417E-02
(PID.TID 0000.0001) %MON forcing_fv_del2              =   6.5883978577467E-04
(PID.TID 0000.0001) %MON trAdv_CFL_u_max              =   5.9434354677862E-03
(PID.TID 0000.0001) %MON trAdv_CFL_v_max              =   8.4159570083771E-03
(PID.TID 0000.0001) %MON trAdv_CFL_w_max              =   7.1138702104864E-03
(PID.TID 0000.0001) %MON advcfl_uvel_max              =   6.1613182117565E-03
(PID.TID 0000.0001) %MON advcfl_vvel_max              =   4.7084685754847E-03
(PID.TID 0000.0001) %MON advcfl_wvel_max              =   1.0116428914277E-02
(PID.TID 0000.0001) %MON advcfl_W_hf_max              =   7.1138702104864E-03
(PID.TID 0000.0001) %MON pe_b_mean                    =   5.0718559887314E-04
(PID.TID 0000.0001) %MON ke_max                       =   1.5840887940728E+00
(PID.TID 0000.0001) %MON ke_mean                      =   1.8430592317938E-04
(PID.TID 0000.0001) %MON ke_vol                       =   1.3398069261315E+18
(PID.TID 0000.0001) %MON vort_r_min                   =  -5.1859526083474E-06
(PID.TID 0000.0001) %MON vort_r_max                   =   4.4547415829197E-06
(PID.TID 0000.0001) %MON vort_a_mean                  =  -2.0549865324846E-05
(PID.TID 0000.0001) %MON vort_a_sd                    =   7.5259527049277E-05
(PID.TID 0000.0001) %MON vort_p_mean                  =  -2.4783396925322E-05
(PID.TID 0000.0001) %MON vort_p_sd                    =   1.2811929050237E-04
(PID.TID 0000.0001) %MON surfExpan_theta_mean         =  -7.8901057468337E-06
(PID.TID 0000.0001) %MON surfExpan_salt_mean          =   1.4039012721353E-06
(PID.TID 0000.0001) // =======================================================
(PID.TID 0000.0001) // End MONITOR dynamic field statistics
(PID.TID 0000.0001) // =======================================================
 cg2d: Sum(rhs),rhsMax =  -1.43968338155580E+01  7.89614639728478E+01
(PID.TID 0000.0001)      cg2d_init_res =   4.09048656859668E-01
(PID.TID 0000.0001)      cg2d_iters(min,last) =      -1      10
(PID.TID 0000.0001)      cg2d_last_res =   2.76365284210861E-08
(PID.TID 0000.0001) // =======================================================
(PID.TID 0000.0001) // Begin MONITOR dynamic field statistics
(PID.TID 0000.0001) // =======================================================
(PID.TID 0000.0001) %MON time_tsnumber                =                 72010
(PID.TID 0000.0001) %MON time_secondsf                =   6.4809000000000E+07
(PID.TID 0000.0001) %MON dynstat_eta_max              =   3.7126050876078E+00
(PID.TID 0000.0001) %MON dynstat_eta_min              =  -2.3912854807071E+00
(PID.TID 0000.0001) %MON dynstat_eta_mean             =   1.3209408061742E-02
(PID.TID 0000.0001) %MON dynstat_eta_sd               =   6.1446923083083E-01
(PID.TID 0000.0001) %MON dynstat_eta_del2             =   2.6892768292362E-03
(PID.TID 0000.0001) %MON dynstat_uvel_max             =   1.9249201864290E+00
(PID.TID 0000.0001) %MON dynstat_uvel_min             =  -9.2961125453512E-01
(PID.TID 0000.0001) %MON dynstat_uvel_mean            =  -2.1658366837656E-04
(PID.TID 0000.0001) %MON dynstat_uvel_sd              =   1.4072508358656E-02
(PID.TID 0000.0001) %MON dynstat_uvel_del2            =   1.4307981211193E-04
(PID.TID 0000.0001) %MON dynstat_vvel_max             =   1.3925475536980E+00
(PID.TID 0000.0001) %MON dynstat_vvel_min             =  -1.6146619492502E+00
(PID.TID 0000.0001) %MON dynstat_vvel_mean            =  -3.9748198466432E-04
(PID.TID 0000.0001) %MON dynstat_vvel_sd              =   1.4333046176434E-02
(PID.TID 0000.0001) %MON dynstat_vvel_del2            =   1.8554330524170E-04
(PID.TID 0000.0001) %MON dynstat_wvel_max             =   1.0416463581612E-04
(PID.TID 0000.0001) %MON dynstat_wvel_min             =  -5.5019054390981E-04
(PID.TID 0000.0001) %MON dynstat_wvel_mean            =  -4.6656189009302E-07
(PID.TID 0000.0001) %MON dynstat_wvel_sd              =   8.6984363771248E-06
(PID.TID 0000.0001) %MON dynstat_wvel_del2            =   8.1486677494994E-08
(PID.TID 0000.0001) %MON dynstat_theta_max            =   3.0923670978408E+01
(PID.TID 0000.0001) %MON dynstat_theta_min            =  -3.0112899255089E+00
(PID.TID 0000.0001) %MON dynstat_theta_mean           =   3.9090230658538E+00
(PID.TID 0000.0001) %MON dynstat_theta_sd             =   4.5709412330996E+00
(PID.TID 0000.0001) %MON dynstat_theta_del2           =   2.6498209819698E-03
(PID.TID 0000.0001) %MON dynstat_salt_max             =   4.1370902212693E+01
(PID.TID 0000.0001) %MON dynstat_salt_min             =   1.8518471214416E+01
(PID.TID 0000.0001) %MON dynstat_salt_mean            =   3.4772134985640E+01
(PID.TID 0000.0001) %MON dynstat_salt_sd              =   5.3105230286931E-01
(PID.TID 0000.0001) %MON dynstat_salt_del2            =   8.2306247152693E-04
(PID.TID 0000.0001) %MON dynstat_sst_max              =   3.0923670978408E+01
(PID.TID 0000.0001) %MON dynstat_sst_min              =  -1.8996045154548E+00
(PID.TID 0000.0001) %MON dynstat_sst_mean             =   1.8104217045931E+01
(PID.TID 0000.0001) %MON dynstat_sst_sd               =   9.8036094374491E+00
(PID.TID 0000.0001) %MON dynstat_sst_del2             =   1.5204228213736E-02
(PID.TID 0000.0001) %MON dynstat_sss_max              =   4.1370902212693E+01
(PID.TID 0000.0001) %MON dynstat_sss_min              =   1.8751384704708E+01
(PID.TID 0000.0001) %MON dynstat_sss_mean             =   3.4637502998227E+01
(PID.TID 0000.0001) %MON dynstat_sss_sd               =   1.4598728604217E+00
(PID.TID 0000.0001) %MON dynstat_sss_del2             =   8.3298975879769E-03
(PID.TID 0000.0001) %MON forcing_qnet_max             =   9.1467958984375E+03
(PID.TID 0000.0001) %MON forcing_qnet_min             =  -1.2455452148438E+04
(PID.TID 0000.0001) %MON forcing_qnet_mean            =  -1.2090523793942E+02
(PID.TID 0000.0001) %MON forcing_qnet_sd              =   5.9777929086541E+02
(PID.TID 0000.0001) %MON forcing_qnet_del2            =   1.8454684514020E+01
(PID.TID 0000.0001) %MON forcing_qsw_max              =   0.0000000000000E+00
(PID.TID 0000.0001) %MON forcing_qsw_min              =  -1.0825704588638E+02
(PID.TID 0000.0001) %MON forcing_qsw_mean             =  -2.2480726352513E+01
(PID.TID 0000.0001) %MON forcing_qsw_sd               =   3.0539927699773E+01
(PID.TID 0000.0001) %MON forcing_qsw_del2             =   2.3123603323592E-01
(PID.TID 0000.0001) %MON forcing_empmr_max            =   2.8430704027414E-02
(PID.TID 0000.0001) %MON forcing_empmr_min            =  -2.6002407073975E-01
(PID.TID 0000.0001) %MON forcing_empmr_mean           =  -5.0923978706400E-04
(PID.TID 0000.0001) %MON forcing_empmr_sd             =   7.9510029443432E-03
(PID.TID 0000.0001) %MON forcing_empmr_del2           =   3.2148657454071E-04
(PID.TID 0000.0001) %MON forcing_fu_max               =   6.9575717793028E-01
(PID.TID 0000.0001) %MON forcing_fu_min               =  -4.4777124524642E-01
(PID.TID 0000.0001) %MON forcing_fu_mean              =  -5.3189602595610E-03
(PID.TID 0000.0001) %MON forcing_fu_sd                =   7.6655520641823E-02
(PID.TID 0000.0001) %MON forcing_fu_del2              =   7.8337092993049E-04
(PID.TID 0000.0001) %MON forcing_fv_max               =   3.5022552945282E-01
(PID.TID 0000.0001) %MON forcing_fv_min               =  -3.3173852610047E-01
(PID.TID 0000.0001) %MON forcing_fv_mean              =  -1.2874501827800E-02
(PID.TID 0000.0001) %MON forcing_fv_sd                =   7.4855751571735E-02
(PID.TID 0000.0001) %MON forcing_fv_del2              =   6.6077854982685E-04
(PID.TID 0000.0001) %MON trAdv_CFL_u_max              =   6.2214608787305E-03
(PID.TID 0000.0001) %MON trAdv_CFL_v_max              =   8.6889678064821E-03
(PID.TID 0000.0001) %MON trAdv_CFL_w_max              =   7.0551244117195E-03
(PID.TID 0000.0001) %MON advcfl_uvel_max              =   6.4191596088361E-03
(PID.TID 0000.0001) %MON advcfl_vvel_max              =   4.8387695367166E-03
(PID.TID 0000.0001) %MON advcfl_wvel_max              =   9.0443155039912E-03
(PID.TID 0000.0001) %MON advcfl_W_hf_max              =   7.0551244117195E-03
(PID.TID 0000.0001) %MON pe_b_mean                    =   5.0322696418004E-04
(PID.TID 0000.0001) %MON ke_max                       =   1.6815527911399E+00
(PID.TID 0000.0001) %MON ke_mean                      =   1.8638281053675E-04
(PID.TID 0000.0001) %MON ke_vol                       =   1.3398070909559E+18
(PID.TID 0000.0001) %MON vort_r_min                   =  -5.6727966169857E-06
(PID.TID 0000.0001) %MON vort_r_max                   =   4.3933653663615E-06
(PID.TID 0000.0001) %MON vort_a_mean                  =  -2.0549865324846E-05
(PID.TID 0000.0001) %MON vort_a_sd                    =   7.5259525765385E-05
(PID.TID 0000.0001) %MON vort_p_mean                  =  -2.4783392545797E-05
(PID.TID 0000.0001) %MON vort_p_sd                    =   1.2811924669682E-04
(PID.TID 0000.0001) %MON surfExpan_theta_mean         =  -7.8553372218575E-06
(PID.TID 0000.0001) %MON surfExpan_salt_mean          =   1.4768418501461E-06
(PID.TID 0000.0001) // =======================================================
(PID.TID 0000.0001) // End MONITOR dynamic field statistics
(PID.TID 0000.0001) // =======================================================
 cg2d: Sum(rhs),rhsMax =  -1.85147899987115E+01  6.34233390723778E+01
(PID.TID 0000.0001)      cg2d_init_res =   5.05742240259909E-01
(PID.TID 0000.0001)      cg2d_iters(min,last) =      -1      10
(PID.TID 0000.0001)      cg2d_last_res =   4.01809016042401E-08
(PID.TID 0000.0001) // =======================================================
(PID.TID 0000.0001) // Begin MONITOR dynamic field statistics
(PID.TID 0000.0001) // =======================================================
(PID.TID 0000.0001) %MON time_tsnumber                =                 72011
(PID.TID 0000.0001) %MON time_secondsf                =   6.4809900000000E+07
(PID.TID 0000.0001) %MON dynstat_eta_max              =   2.9873694178779E+00
(PID.TID 0000.0001) %MON dynstat_eta_min              =  -1.8627438860572E+00
(PID.TID 0000.0001) %MON dynstat_eta_mean             =   1.3644859448064E-02
(PID.TID 0000.0001) %MON dynstat_eta_sd               =   6.1261597578644E-01
(PID.TID 0000.0001) %MON dynstat_eta_del2             =   2.5017324031228E-03
(PID.TID 0000.0001) %MON dynstat_uvel_max             =   1.9770385701158E+00
(PID.TID 0000.0001) %MON dynstat_uvel_min             =  -9.5580376379540E-01
(PID.TID 0000.0001) %MON dynstat_uvel_mean            =  -1.8923593750948E-04
(PID.TID 0000.0001) %MON dynstat_uvel_sd              =   1.4173352416017E-02
(PID.TID 0000.0001) %MON dynstat_uvel_del2            =   1.4361173589506E-04
(PID.TID 0000.0001) %MON dynstat_vvel_max             =   1.3712040726452E+00
(PID.TID 0000.0001) %MON dynstat_vvel_min             =  -1.6284578187778E+00
(PID.TID 0000.0001) %MON dynstat_vvel_mean            =  -4.0593253850171E-04
(PID.TID 0000.0001) %MON dynstat_vvel_sd              =   1.4325115961149E-02
(PID.TID 0000.0001) %MON dynstat_vvel_del2            =   1.8046708500665E-04
(PID.TID 0000.0001) %MON dynstat_wvel_max             =   1.0434000787698E-04
(PID.TID 0000.0001) %MON dynstat_wvel_min             =  -5.3858179049606E-04
(PID.TID 0000.0001) %MON dynstat_wvel_mean            =  -4.6235067115851E-07
(PID.TID 0000.0001) %MON dynstat_wvel_sd              =   8.5978895023021E-06
(PID.TID 0000.0001) %MON dynstat_wvel_del2            =   8.0124571071310E-08
(PID.TID 0000.0001) %MON dynstat_theta_max            =   3.0923453754552E+01
(PID.TID 0000.0001) %MON dynstat_theta_min            =  -3.0109695353419E+00
(PID.TID 0000.0001) %MON dynstat_theta_mean           =   3.9090317222723E+00
(PID.TID 0000.0001) %MON dynstat_theta_sd             =   4.5709772202164E+00
(PID.TID 0000.0001) %MON dynstat_theta_del2           =   2.6493533271355E-03
(PID.TID 0000.0001) %MON dynstat_salt_max             =   4.1369944692527E+01
(PID.TID 0000.0001) %MON dynstat_salt_min             =   1.8518480894285E+01
(PID.TID 0000.0001) %MON dynstat_salt_mean            =   3.4772128304350E+01
(PID.TID 0000.0001) %MON dynstat_salt_sd              =   5.3106952683194E-01
(PID.TID 0000.0001) %MON dynstat_salt_del2            =   8.2712923905580E-04
(PID.TID 0000.0001) %MON dynstat_sst_max              =   3.0923453754552E+01
(PID.TID 0000.0001) %MON dynstat_sst_min              =  -1.8995730574204E+00
(PID.TID 0000.0001) %MON dynstat_sst_mean             =   1.8104661249394E+01
(PID.TID 0000.0001) %MON dynstat_sst_sd               =   9.8040314808178E+00
(PID.TID 0000.0001) %MON dynstat_sst_del2             =   1.5192180066800E-02
(PID.TID 0000.0001) %MON dynstat_sss_max              =   4.1369944692527E+01
(PID.TID 0000.0001) %MON dynstat_sss_min              =   1.8751385477593E+01
(PID.TID 0000.0001) %MON dynstat_sss_mean             =   3.4637020523779E+01
(PID.TID 0000.0001) %MON dynstat_sss_sd               =   1.4602859115780E+00
(PID.TID 0000.0001) %MON dynstat_sss_del2             =   8.3930675513596E-03
(PID.TID 0000.0001) %MON forcing_qnet_max             =   9.3060585937500E+03
(PID.TID 0000.0001) %MON forcing_qnet_min             =  -6.7306474609375E+03
(PID.TID 0000.0001) %MON forcing_qnet_mean            =  -1.0380143715183E+02
(PID.TID 0000.0001) %MON forcing_qnet_sd              =   5.6418414775706E+02
(PID.TID 0000.0001) %MON forcing_qnet_del2            =   1.6760182155685E+01
(PID.TID 0000.0001) %MON forcing_qsw_max              =   0.0000000000000E+00
(PID.TID 0000.0001) %MON forcing_qsw_min              =  -1.0888989727193E+02
(PID.TID 0000.0001) %MON forcing_qsw_mean             =  -2.2319558035260E+01
(PID.TID 0000.0001) %MON forcing_qsw_sd               =   3.0423228056906E+01
(PID.TID 0000.0001) %MON forcing_qsw_del2             =   2.3257625203711E-01
(PID.TID 0000.0001) %MON forcing_empmr_max            =   1.6689822077751E-02
(PID.TID 0000.0001) %MON forcing_empmr_min            =  -2.3684221506119E-01
(PID.TID 0000.0001) %MON forcing_empmr_mean           =  -5.0076909426992E-04
(PID.TID 0000.0001) %MON forcing_empmr_sd             =   7.6834404396051E-03
(PID.TID 0000.0001) %MON forcing_empmr_del2           =   3.1115077791937E-04
(PID.TID 0000.0001) %MON forcing_fu_max               =   7.0041544445195E-01
(PID.TID 0000.0001) %MON forcing_fu_min               =  -4.5918795987060E-01
(PID.TID 0000.0001) %MON forcing_fu_mean              =  -5.2194423694982E-03
(PID.TID 0000.0001) %MON forcing_fu_sd                =   7.6525536476946E-02
(PID.TID 0000.0001) %MON forcing_fu_del2              =   7.8429526523251E-04
(PID.TID 0000.0001) %MON forcing_fv_max               =   3.4961417066381E-01
(PID.TID 0000.0001) %MON forcing_fv_min               =  -3.3748124405766E-01
(PID.TID 0000.0001) %MON forcing_fv_mean              =  -1.2592925531448E-02
(PID.TID 0000.0001) %MON forcing_fv_sd                =   7.5096896195735E-02
(PID.TID 0000.0001) %MON forcing_fv_del2              =   6.6329176598779E-04
(PID.TID 0000.0001) %MON trAdv_CFL_u_max              =   6.4177346541014E-03
(PID.TID 0000.0001) %MON trAdv_CFL_v_max              =   8.8121630924836E-03
(PID.TID 0000.0001) %MON trAdv_CFL_w_max              =   6.9077887389794E-03
(PID.TID 0000.0001) %MON advcfl_uvel_max              =   6.5929622557192E-03
(PID.TID 0000.0001) %MON advcfl_vvel_max              =   4.8801125764987E-03
(PID.TID 0000.0001) %MON advcfl_wvel_max              =   8.2379900890848E-03
(PID.TID 0000.0001) %MON advcfl_W_hf_max              =   6.9077887389794E-03
(PID.TID 0000.0001) %MON pe_b_mean                    =   5.0021296876969E-04
(PID.TID 0000.0001) %MON ke_max                       =   1.7226637581600E+00
(PID.TID 0000.0001) %MON ke_mean                      =   1.8758412891422E-04
(PID.TID 0000.0001) %MON ke_vol                       =   1.3398072520912E+18
(PID.TID 0000.0001) %MON vort_r_min                   =  -6.3635559253938E-06
(PID.TID 0000.0001) %MON vort_r_max                   =   4.2300376281424E-06
(PID.TID 0000.0001) %MON vort_a_mean                  =  -2.0549865324846E-05
(PID.TID 0000.0001) %MON vort_a_sd                    =   7.5259524210704E-05
(PID.TID 0000.0001) %MON vort_p_mean                  =  -2.4783388312308E-05
(PID.TID 0000.0001) %MON vort_p_sd                    =   1.2811920929176E-04
(PID.TID 0000.0001) %MON surfExpan_theta_mean         =  -7.8066204910946E-06
(PID.TID 0000.0001) %MON surfExpan_salt_mean          =   1.5342446296535E-06
(PID.TID 0000.0001) // =======================================================
(PID.TID 0000.0001) // End MONITOR dynamic field statistics
(PID.TID 0000.0001) // =======================================================
 Computing Diagnostic #     81  oceTAUX      Counter:       1   Parms: UU      U1      
           Vector  Mate for  oceTAUX      Diagnostic #     82  oceTAUY  exists 
 Computing Diagnostic #     82  oceTAUY      Counter:       1   Parms: VV      U1      
           Vector  Mate for  oceTAUY      Diagnostic #     81  oceTAUX  exists 
 Computing Diagnostic #     85  oceFWflx     Counter:       1   Parms: SM      U1      
 Computing Diagnostic #     86  oceSflux     Counter:       1   Parms: SM      U1      
 Computing Diagnostic #     87  oceQnet      Counter:       1   Parms: SM      U1      
 Computing Diagnostic #     88  oceQsw       Counter:       1   Parms: SM      U1      
 Computing Diagnostic #     27  SALT         Counter:       1   Parms: SMR     MR      
 Computing Diagnostic #     26  THETA        Counter:       1   Parms: SMR     MR      
 Computing Diagnostic #     45  UVELMASS     Counter:       1   Parms: UUr     MR      
           Vector  Mate for  UVELMASS     Diagnostic #     46  VVELMASS exists 
 Computing Diagnostic #     46  VVELMASS     Counter:       1   Parms: VVr     MR      
           Vector  Mate for  VVELMASS     Diagnostic #     45  UVELMASS exists 
 Computing Diagnostic #     83  atmPload     Counter:       1   Parms: SM      U1      
 cg2d: Sum(rhs),rhsMax =  -1.94026537526962E+01  6.24289953064070E+01
(PID.TID 0000.0001)      cg2d_init_res =   5.08726162794973E-01
(PID.TID 0000.0001)      cg2d_iters(min,last) =      -1      10
(PID.TID 0000.0001)      cg2d_last_res =   5.09299334755692E-08
(PID.TID 0000.0001) // =======================================================
(PID.TID 0000.0001) // Begin MONITOR dynamic field statistics
(PID.TID 0000.0001) // =======================================================
(PID.TID 0000.0001) %MON time_tsnumber                =                 72012
(PID.TID 0000.0001) %MON time_secondsf                =   6.4810800000000E+07
(PID.TID 0000.0001) %MON dynstat_eta_max              =   2.8695207221830E+00
(PID.TID 0000.0001) %MON dynstat_eta_min              =  -1.6139554658601E+00
(PID.TID 0000.0001) %MON dynstat_eta_mean             =   1.4075008070989E-02
(PID.TID 0000.0001) %MON dynstat_eta_sd               =   6.1143465708230E-01
(PID.TID 0000.0001) %MON dynstat_eta_del2             =   2.4502888930619E-03
(PID.TID 0000.0001) %MON dynstat_uvel_max             =   2.0051420973102E+00
(PID.TID 0000.0001) %MON dynstat_uvel_min             =  -9.7212312070702E-01
(PID.TID 0000.0001) %MON dynstat_uvel_mean            =  -1.6320702956614E-04
(PID.TID 0000.0001) %MON dynstat_uvel_sd              =   1.4234428523563E-02
(PID.TID 0000.0001) %MON dynstat_uvel_del2            =   1.4293653486828E-04
(PID.TID 0000.0001) %MON dynstat_vvel_max             =   1.3425806964111E+00
(PID.TID 0000.0001) %MON dynstat_vvel_min             =  -1.6133444074821E+00
(PID.TID 0000.0001) %MON dynstat_vvel_mean            =  -4.1389908284032E-04
(PID.TID 0000.0001) %MON dynstat_vvel_sd              =   1.4281436729558E-02
(PID.TID 0000.0001) %MON dynstat_vvel_del2            =   1.7338482816111E-04
(PID.TID 0000.0001) %MON dynstat_wvel_max             =   1.0452428467142E-04
(PID.TID 0000.0001) %MON dynstat_wvel_min             =  -5.3614939695309E-04
(PID.TID 0000.0001) %MON dynstat_wvel_mean            =  -4.5405108172324E-07
(PID.TID 0000.0001) %MON dynstat_wvel_sd              =   8.5753994119789E-06
(PID.TID 0000.0001) %MON dynstat_wvel_del2            =   7.9590837812283E-08
(PID.TID 0000.0001) %MON dynstat_theta_max            =   3.0923243683056E+01
(PID.TID 0000.0001) %MON dynstat_theta_min            =  -3.0106839070138E+00
(PID.TID 0000.0001) %MON dynstat_theta_mean           =   3.9090395988545E+00
(PID.TID 0000.0001) %MON dynstat_theta_sd             =   4.5710109510420E+00
(PID.TID 0000.0001) %MON dynstat_theta_del2           =   2.6489384701891E-03
(PID.TID 0000.0001) %MON dynstat_salt_max             =   4.1368984612486E+01
(PID.TID 0000.0001) %MON dynstat_salt_min             =   1.8518490632239E+01
(PID.TID 0000.0001) %MON dynstat_salt_mean            =   3.4772121778355E+01
(PID.TID 0000.0001) %MON dynstat_salt_sd              =   5.3108712702860E-01
(PID.TID 0000.0001) %MON dynstat_salt_del2            =   8.3142931692906E-04
(PID.TID 0000.0001) %MON dynstat_sst_max              =   3.0923243683056E+01
(PID.TID 0000.0001) %MON dynstat_sst_min              =  -1.8995425359341E+00
(PID.TID 0000.0001) %MON dynstat_sst_mean             =   1.8105051572055E+01
(PID.TID 0000.0001) %MON dynstat_sst_sd               =   9.8044578336304E+00
(PID.TID 0000.0001) %MON dynstat_sst_del2             =   1.5180828312269E-02
(PID.TID 0000.0001) %MON dynstat_sss_max              =   4.1368984612486E+01
(PID.TID 0000.0001) %MON dynstat_sss_min              =   1.8751386384670E+01
(PID.TID 0000.0001) %MON dynstat_sss_mean             =   3.4636548637222E+01
(PID.TID 0000.0001) %MON dynstat_sss_sd               =   1.4607103273415E+00
(PID.TID 0000.0001) %MON dynstat_sss_del2             =   8.4596388915744E-03
(PID.TID 0000.0001) %MON forcing_qnet_max             =   9.8961503906250E+03
(PID.TID 0000.0001) %MON forcing_qnet_min             =  -5.4931333007812E+03
(PID.TID 0000.0001) %MON forcing_qnet_mean            =  -9.1276435559550E+01
(PID.TID 0000.0001) %MON forcing_qnet_sd              =   5.5731742221709E+02
(PID.TID 0000.0001) %MON forcing_qnet_del2            =   1.6234283011052E+01
(PID.TID 0000.0001) %MON forcing_qsw_max              =   0.0000000000000E+00
(PID.TID 0000.0001) %MON forcing_qsw_min              =  -1.0906189543279E+02
(PID.TID 0000.0001) %MON forcing_qsw_mean             =  -2.2091846674890E+01
(PID.TID 0000.0001) %MON forcing_qsw_sd               =   3.0248837452037E+01
(PID.TID 0000.0001) %MON forcing_qsw_del2             =   2.3369400417891E-01
(PID.TID 0000.0001) %MON forcing_empmr_max            =   1.3877340592444E-02
(PID.TID 0000.0001) %MON forcing_empmr_min            =  -2.2104504704475E-01
(PID.TID 0000.0001) %MON forcing_empmr_mean           =  -4.9467091636424E-04
(PID.TID 0000.0001) %MON forcing_empmr_sd             =   7.4905864294493E-03
(PID.TID 0000.0001) %MON forcing_empmr_del2           =   3.0373726128929E-04
(PID.TID 0000.0001) %MON forcing_fu_max               =   6.9989133984406E-01
(PID.TID 0000.0001) %MON forcing_fu_min               =  -4.6253917591630E-01
(PID.TID 0000.0001) %MON forcing_fu_mean              =  -5.1056061384972E-03
(PID.TID 0000.0001) %MON forcing_fu_sd                =   7.6318617884704E-02
(PID.TID 0000.0001) %MON forcing_fu_del2              =   7.8433532287637E-04
(PID.TID 0000.0001) %MON forcing_fv_max               =   3.5754054485044E-01
(PID.TID 0000.0001) %MON forcing_fv_min               =  -3.4169042038336E-01
(PID.TID 0000.0001) %MON forcing_fv_mean              =  -1.2366860679927E-02
(PID.TID 0000.0001) %MON forcing_fv_sd                =   7.5040632084758E-02
(PID.TID 0000.0001) %MON forcing_fv_del2              =   6.6378952828072E-04
(PID.TID 0000.0001) %MON trAdv_CFL_u_max              =   6.5346601934258E-03
(PID.TID 0000.0001) %MON trAdv_CFL_v_max              =   8.7866616743111E-03
(PID.TID 0000.0001) %MON trAdv_CFL_w_max              =   6.6967129578607E-03
(PID.TID 0000.0001) %MON advcfl_uvel_max              =   6.6866809604758E-03
(PID.TID 0000.0001) %MON advcfl_vvel_max              =   4.8348211678496E-03
(PID.TID 0000.0001) %MON advcfl_wvel_max              =   7.6885233754697E-03
(PID.TID 0000.0001) %MON advcfl_W_hf_max              =   6.6967129578607E-03
(PID.TID 0000.0001) %MON pe_b_mean                    =   4.9830247011455E-04
(PID.TID 0000.0001) %MON ke_max                       =   1.7070592558532E+00
(PID.TID 0000.0001) %MON ke_mean                      =   1.8780034911184E-04
(PID.TID 0000.0001) %MON ke_vol                       =   1.3398074105461E+18
(PID.TID 0000.0001) %MON vort_r_min                   =  -6.9971754367542E-06
(PID.TID 0000.0001) %MON vort_r_max                   =   3.9724695631284E-06
(PID.TID 0000.0001) %MON vort_a_mean                  =  -2.0549865324846E-05
(PID.TID 0000.0001) %MON vort_a_sd                    =   7.5259522511765E-05
(PID.TID 0000.0001) %MON vort_p_mean                  =  -2.4783384220321E-05
(PID.TID 0000.0001) %MON vort_p_sd                    =   1.2811917905502E-04
(PID.TID 0000.0001) %MON surfExpan_theta_mean         =  -7.7595026000480E-06
(PID.TID 0000.0001) %MON surfExpan_salt_mean          =   1.5755085543661E-06
(PID.TID 0000.0001) // =======================================================
(PID.TID 0000.0001) // End MONITOR dynamic field statistics
(PID.TID 0000.0001) // =======================================================
 cg2d: Sum(rhs),rhsMax =  -1.82022169845874E+01  6.85570217833180E+01
(PID.TID 0000.0001)      cg2d_init_res =   4.51736759154188E-01
(PID.TID 0000.0001)      cg2d_iters(min,last) =      -1      10
(PID.TID 0000.0001)      cg2d_last_res =   5.18291601620326E-08
(PID.TID 0000.0001) // =======================================================
(PID.TID 0000.0001) // Begin MONITOR dynamic field statistics
(PID.TID 0000.0001) // =======================================================
(PID.TID 0000.0001) %MON time_tsnumber                =                 72013
(PID.TID 0000.0001) %MON time_secondsf                =   6.4811700000000E+07
(PID.TID 0000.0001) %MON dynstat_eta_max              =   3.1460411300463E+00
(PID.TID 0000.0001) %MON dynstat_eta_min              =  -1.6103410988153E+00
(PID.TID 0000.0001) %MON dynstat_eta_mean             =   1.4500313883409E-02
(PID.TID 0000.0001) %MON dynstat_eta_sd               =   6.1097916489738E-01
(PID.TID 0000.0001) %MON dynstat_eta_del2             =   2.5215547143666E-03
(PID.TID 0000.0001) %MON dynstat_uvel_max             =   2.0103856315061E+00
(PID.TID 0000.0001) %MON dynstat_uvel_min             =  -9.7886025039983E-01
(PID.TID 0000.0001) %MON dynstat_uvel_mean            =  -1.3822372300581E-04
(PID.TID 0000.0001) %MON dynstat_uvel_sd              =   1.4247413846985E-02
(PID.TID 0000.0001) %MON dynstat_uvel_del2            =   1.4106702654779E-04
(PID.TID 0000.0001) %MON dynstat_vvel_max             =   1.3042387874238E+00
(PID.TID 0000.0001) %MON dynstat_vvel_min             =  -1.5706282953615E+00
(PID.TID 0000.0001) %MON dynstat_vvel_mean            =  -4.2074901276793E-04
(PID.TID 0000.0001) %MON dynstat_vvel_sd              =   1.4208615072316E-02
(PID.TID 0000.0001) %MON dynstat_vvel_del2            =   1.6481903992531E-04
(PID.TID 0000.0001) %MON dynstat_wvel_max             =   1.0827622183366E-04
(PID.TID 0000.0001) %MON dynstat_wvel_min             =  -5.5354832384136E-04
(PID.TID 0000.0001) %MON dynstat_wvel_mean            =  -4.4267138836832E-07
(PID.TID 0000.0001) %MON dynstat_wvel_sd              =   8.5726656063067E-06
(PID.TID 0000.0001) %MON dynstat_wvel_del2            =   7.9530054212258E-08
(PID.TID 0000.0001) %MON dynstat_theta_max            =   3.0923061540559E+01
(PID.TID 0000.0001) %MON dynstat_theta_min            =  -3.0103912828169E+00
(PID.TID 0000.0001) %MON dynstat_theta_mean           =   3.9090469054309E+00
(PID.TID 0000.0001) %MON dynstat_theta_sd             =   4.5710428247222E+00
(PID.TID 0000.0001) %MON dynstat_theta_del2           =   2.6485662505424E-03
(PID.TID 0000.0001) %MON dynstat_salt_max             =   4.1368032908919E+01
(PID.TID 0000.0001) %MON dynstat_salt_min             =   1.8518500421221E+01
(PID.TID 0000.0001) %MON dynstat_salt_mean            =   3.4772115414784E+01
(PID.TID 0000.0001) %MON dynstat_salt_sd              =   5.3110522984188E-01
(PID.TID 0000.0001) %MON dynstat_salt_del2            =   8.3593900282056E-04
(PID.TID 0000.0001) %MON dynstat_sst_max              =   3.0923061540559E+01
(PID.TID 0000.0001) %MON dynstat_sst_min              =  -1.8995138858643E+00
(PID.TID 0000.0001) %MON dynstat_sst_mean             =   1.8105407877815E+01
(PID.TID 0000.0001) %MON dynstat_sst_sd               =   9.8048837551715E+00
(PID.TID 0000.0001) %MON dynstat_sst_del2             =   1.5171162047285E-02
(PID.TID 0000.0001) %MON dynstat_sss_max              =   4.1368032908919E+01
(PID.TID 0000.0001) %MON dynstat_sss_min              =   1.8751387254205E+01
(PID.TID 0000.0001) %MON dynstat_sss_mean             =   3.4636089807591E+01
(PID.TID 0000.0001) %MON dynstat_sss_sd               =   1.4611529051624E+00
(PID.TID 0000.0001) %MON dynstat_sss_del2             =   8.5293694773212E-03
(PID.TID 0000.0001) %MON forcing_qnet_max             =   1.0004121093750E+04
(PID.TID 0000.0001) %MON forcing_qnet_min             =  -3.1077843736001E+03
(PID.TID 0000.0001) %MON forcing_qnet_mean            =  -8.2209023050972E+01
(PID.TID 0000.0001) %MON forcing_qnet_sd              =   5.2819992431302E+02
(PID.TID 0000.0001) %MON forcing_qnet_del2            =   1.4869978301571E+01
(PID.TID 0000.0001) %MON forcing_qsw_max              =   0.0000000000000E+00
(PID.TID 0000.0001) %MON forcing_qsw_min              =  -1.0752781437771E+02
(PID.TID 0000.0001) %MON forcing_qsw_mean             =  -2.1903306045975E+01
(PID.TID 0000.0001) %MON forcing_qsw_sd               =   3.0230957834812E+01
(PID.TID 0000.0001) %MON forcing_qsw_del2             =   2.4066406455342E-01
(PID.TID 0000.0001) %MON forcing_empmr_max            =   1.4173995703459E-02
(PID.TID 0000.0001) %MON forcing_empmr_min            =  -2.0917941629887E-01
(PID.TID 0000.0001) %MON forcing_empmr_mean           =  -4.8910168428251E-04
(PID.TID 0000.0001) %MON forcing_empmr_sd             =   7.3412832114919E-03
(PID.TID 0000.0001) %MON forcing_empmr_del2           =   2.9793189502568E-04
(PID.TID 0000.0001) %MON forcing_fu_max               =   6.9590741668161E-01
(PID.TID 0000.0001) %MON forcing_fu_min               =  -4.6098105640458E-01
(PID.TID 0000.0001) %MON forcing_fu_mean              =  -4.9044261864483E-03
(PID.TID 0000.0001) %MON forcing_fu_sd                =   7.6325833420260E-02
(PID.TID 0000.0001) %MON forcing_fu_del2              =   7.8170490259806E-04
(PID.TID 0000.0001) %MON forcing_fv_max               =   3.5191850337565E-01
(PID.TID 0000.0001) %MON forcing_fv_min               =  -3.4546954773928E-01
(PID.TID 0000.0001) %MON forcing_fv_mean              =  -1.2163176434124E-02
(PID.TID 0000.0001) %MON forcing_fv_sd                =   7.4807480306852E-02
(PID.TID 0000.0001) %MON forcing_fv_del2              =   6.6297260157569E-04
(PID.TID 0000.0001) %MON trAdv_CFL_u_max              =   6.5750275558229E-03
(PID.TID 0000.0001) %MON trAdv_CFL_v_max              =   8.6158417706247E-03
(PID.TID 0000.0001) %MON trAdv_CFL_w_max              =   6.4431328392473E-03
(PID.TID 0000.0001) %MON advcfl_uvel_max              =   6.7041669233512E-03
(PID.TID 0000.0001) %MON advcfl_vvel_max              =   4.7068108297400E-03
(PID.TID 0000.0001) %MON advcfl_wvel_max              =   7.2758057843084E-03
(PID.TID 0000.0001) %MON advcfl_W_hf_max              =   6.4431328392473E-03
(PID.TID 0000.0001) %MON pe_b_mean                    =   4.9757684463064E-04
(PID.TID 0000.0001) %MON ke_max                       =   1.6382082336080E+00
(PID.TID 0000.0001) %MON ke_mean                      =   1.8700689503538E-04
(PID.TID 0000.0001) %MON ke_vol                       =   1.3398075670715E+18
(PID.TID 0000.0001) %MON vort_r_min                   =  -7.5563883644478E-06
(PID.TID 0000.0001) %MON vort_r_max                   =   3.6296379903002E-06
(PID.TID 0000.0001) %MON vort_a_mean                  =  -2.0549865324846E-05
(PID.TID 0000.0001) %MON vort_a_sd                    =   7.5259520812633E-05
(PID.TID 0000.0001) %MON vort_p_mean                  =  -2.4783380265396E-05
(PID.TID 0000.0001) %MON vort_p_sd                    =   1.2811915661319E-04
(PID.TID 0000.0001) %MON surfExpan_theta_mean         =  -7.7163319850747E-06
(PID.TID 0000.0001) %MON surfExpan_salt_mean          =   1.6017432647500E-06
(PID.TID 0000.0001) // =======================================================
(PID.TID 0000.0001) // End MONITOR dynamic field statistics
(PID.TID 0000.0001) // =======================================================
 cg2d: Sum(rhs),rhsMax =  -1.73259107063843E+01  7.41137929329533E+01
(PID.TID 0000.0001)      cg2d_init_res =   3.98129274810714E-01
(PID.TID 0000.0001)      cg2d_iters(min,last) =      -1      10
(PID.TID 0000.0001)      cg2d_last_res =   4.63457135017054E-08
(PID.TID 0000.0001) // =======================================================
(PID.TID 0000.0001) // Begin MONITOR dynamic field statistics
(PID.TID 0000.0001) // =======================================================
(PID.TID 0000.0001) %MON time_tsnumber                =                 72014
(PID.TID 0000.0001) %MON time_secondsf                =   6.4812600000000E+07
(PID.TID 0000.0001) %MON dynstat_eta_max              =   3.3967633083228E+00
(PID.TID 0000.0001) %MON dynstat_eta_min              =  -1.6069490650743E+00
(PID.TID 0000.0001) %MON dynstat_eta_mean             =   1.4920943464852E-02
(PID.TID 0000.0001) %MON dynstat_eta_sd               =   6.1121408066603E-01
(PID.TID 0000.0001) %MON dynstat_eta_del2             =   2.6858175301705E-03
(PID.TID 0000.0001) %MON dynstat_uvel_max             =   1.9937849028124E+00
(PID.TID 0000.0001) %MON dynstat_uvel_min             =  -9.7647873185931E-01
(PID.TID 0000.0001) %MON dynstat_uvel_mean            =  -1.1409425060215E-04
(PID.TID 0000.0001) %MON dynstat_uvel_sd              =   1.4210626696667E-02
(PID.TID 0000.0001) %MON dynstat_uvel_del2            =   1.3806672845795E-04
(PID.TID 0000.0001) %MON dynstat_vvel_max             =   1.2470746285235E+00
(PID.TID 0000.0001) %MON dynstat_vvel_min             =  -1.5020905296512E+00
(PID.TID 0000.0001) %MON dynstat_vvel_mean            =  -4.2603583374624E-04
(PID.TID 0000.0001) %MON dynstat_vvel_sd              =   1.4116027076891E-02
(PID.TID 0000.0001) %MON dynstat_vvel_del2            =   1.5527677312183E-04
(PID.TID 0000.0001) %MON dynstat_wvel_max             =   1.0492489076996E-04
(PID.TID 0000.0001) %MON dynstat_wvel_min             =  -5.6112674115594E-04
(PID.TID 0000.0001) %MON dynstat_wvel_mean            =  -4.2946017427707E-07
(PID.TID 0000.0001) %MON dynstat_wvel_sd              =   8.5663681719816E-06
(PID.TID 0000.0001) %MON dynstat_wvel_del2            =   7.9666205812209E-08
(PID.TID 0000.0001) %MON dynstat_theta_max            =   3.0922891285362E+01
(PID.TID 0000.0001) %MON dynstat_theta_min            =  -3.0100610386408E+00
(PID.TID 0000.0001) %MON dynstat_theta_mean           =   3.9090538078032E+00
(PID.TID 0000.0001) %MON dynstat_theta_sd             =   4.5710727824290E+00
(PID.TID 0000.0001) %MON dynstat_theta_del2           =   2.6482424177977E-03
(PID.TID 0000.0001) %MON dynstat_salt_max             =   4.1367098873275E+01
(PID.TID 0000.0001) %MON dynstat_salt_min             =   1.8518510249692E+01
(PID.TID 0000.0001) %MON dynstat_salt_mean            =   3.4772109209619E+01
(PID.TID 0000.0001) %MON dynstat_salt_sd              =   5.3112365901789E-01
(PID.TID 0000.0001) %MON dynstat_salt_del2            =   8.4063159575411E-04
(PID.TID 0000.0001) %MON dynstat_sst_max              =   3.0922891285362E+01
(PID.TID 0000.0001) %MON dynstat_sst_min              =  -1.8994868133885E+00
(PID.TID 0000.0001) %MON dynstat_sst_mean             =   1.8105738088054E+01
(PID.TID 0000.0001) %MON dynstat_sst_sd               =   9.8052865545474E+00
(PID.TID 0000.0001) %MON dynstat_sst_del2             =   1.5162818399529E-02
(PID.TID 0000.0001) %MON dynstat_sss_max              =   4.1367098873275E+01
(PID.TID 0000.0001) %MON dynstat_sss_min              =   1.8751388130567E+01
(PID.TID 0000.0001) %MON dynstat_sss_mean             =   3.4635642077657E+01
(PID.TID 0000.0001) %MON dynstat_sss_sd               =   1.4616060311503E+00
(PID.TID 0000.0001) %MON dynstat_sss_del2             =   8.6017078928648E-03
(PID.TID 0000.0001) %MON forcing_qnet_max             =   8.4008554687500E+03
(PID.TID 0000.0001) %MON forcing_qnet_min             =  -3.5929294433594E+03
(PID.TID 0000.0001) %MON forcing_qnet_mean            =  -7.5879730180562E+01
(PID.TID 0000.0001) %MON forcing_qnet_sd              =   4.9554146335454E+02
(PID.TID 0000.0001) %MON forcing_qnet_del2            =   1.4203100843235E+01
(PID.TID 0000.0001) %MON forcing_qsw_max              =   0.0000000000000E+00
(PID.TID 0000.0001) %MON forcing_qsw_min              =  -1.0678674169337E+02
(PID.TID 0000.0001) %MON forcing_qsw_mean             =  -2.1707338871692E+01
(PID.TID 0000.0001) %MON forcing_qsw_sd               =   3.0068931453273E+01
(PID.TID 0000.0001) %MON forcing_qsw_del2             =   2.4314905660522E-01
(PID.TID 0000.0001) %MON forcing_empmr_max            =   1.4286844059825E-02
(PID.TID 0000.0001) %MON forcing_empmr_min            =  -1.9870549440384E-01
(PID.TID 0000.0001) %MON forcing_empmr_mean           =  -4.8372401865982E-04
(PID.TID 0000.0001) %MON forcing_empmr_sd             =   7.2136926565746E-03
(PID.TID 0000.0001) %MON forcing_empmr_del2           =   2.9306062198977E-04
(PID.TID 0000.0001) %MON forcing_fu_max               =   6.8940244609099E-01
(PID.TID 0000.0001) %MON forcing_fu_min               =  -4.5519678329821E-01
(PID.TID 0000.0001) %MON forcing_fu_mean              =  -4.7027462427839E-03
(PID.TID 0000.0001) %MON forcing_fu_sd                =   7.6299429687565E-02
(PID.TID 0000.0001) %MON forcing_fu_del2              =   7.7754249272820E-04
(PID.TID 0000.0001) %MON forcing_fv_max               =   3.4240398573903E-01
(PID.TID 0000.0001) %MON forcing_fv_min               =  -3.4615333218990E-01
(PID.TID 0000.0001) %MON forcing_fv_mean              =  -1.1951950763312E-02
(PID.TID 0000.0001) %MON forcing_fv_sd                =   7.4619975943218E-02
(PID.TID 0000.0001) %MON forcing_fv_del2              =   6.6155250654899E-04
(PID.TID 0000.0001) %MON trAdv_CFL_u_max              =   6.5416012795416E-03
(PID.TID 0000.0001) %MON trAdv_CFL_v_max              =   8.3054892308146E-03
(PID.TID 0000.0001) %MON trAdv_CFL_w_max              =   6.1639029215521E-03
(PID.TID 0000.0001) %MON advcfl_uvel_max              =   6.6488073672204E-03
(PID.TID 0000.0001) %MON advcfl_vvel_max              =   4.5014189500420E-03
(PID.TID 0000.0001) %MON advcfl_wvel_max              =   6.9114954575248E-03
(PID.TID 0000.0001) %MON advcfl_W_hf_max              =   6.1639029215521E-03
(PID.TID 0000.0001) %MON pe_b_mean                    =   4.9797575883306E-04
(PID.TID 0000.0001) %MON ke_max                       =   1.5229068176906E+00
(PID.TID 0000.0001) %MON ke_mean                      =   1.8530851525597E-04
(PID.TID 0000.0001) %MON ke_vol                       =   1.3398077218347E+18
(PID.TID 0000.0001) %MON vort_r_min                   =  -8.0264357518449E-06
(PID.TID 0000.0001) %MON vort_r_max                   =   3.2115971266079E-06
(PID.TID 0000.0001) %MON vort_a_mean                  =  -2.0549865324846E-05
(PID.TID 0000.0001) %MON vort_a_sd                    =   7.5259519252775E-05
(PID.TID 0000.0001) %MON vort_p_mean                  =  -2.4783376451785E-05
(PID.TID 0000.0001) %MON vort_p_sd                    =   1.2811914224487E-04
(PID.TID 0000.0001) %MON surfExpan_theta_mean         =  -7.6770047895451E-06
(PID.TID 0000.0001) %MON surfExpan_salt_mean          =   1.6148484838615E-06
(PID.TID 0000.0001) // =======================================================
(PID.TID 0000.0001) // End MONITOR dynamic field statistics
(PID.TID 0000.0001) // =======================================================
 cg2d: Sum(rhs),rhsMax =  -1.67118445027966E+01  7.89840395366227E+01
(PID.TID 0000.0001)      cg2d_init_res =   3.46989502248047E-01
(PID.TID 0000.0001)      cg2d_iters(min,last) =      -1      10
(PID.TID 0000.0001)      cg2d_last_res =   4.18357458719880E-08
(PID.TID 0000.0001) // =======================================================
(PID.TID 0000.0001) // Begin MONITOR dynamic field statistics
(PID.TID 0000.0001) // =======================================================
(PID.TID 0000.0001) %MON time_tsnumber                =                 72015
(PID.TID 0000.0001) %MON time_secondsf                =   6.4813500000000E+07
(PID.TID 0000.0001) %MON dynstat_eta_max              =   3.6164626690072E+00
(PID.TID 0000.0001) %MON dynstat_eta_min              =  -1.7976111469728E+00
(PID.TID 0000.0001) %MON dynstat_eta_mean             =   1.5337864639045E-02
(PID.TID 0000.0001) %MON dynstat_eta_sd               =   6.1201440831160E-01
(PID.TID 0000.0001) %MON dynstat_eta_del2             =   2.9028314372981E-03
(PID.TID 0000.0001) %MON dynstat_uvel_max             =   1.9561803360596E+00
(PID.TID 0000.0001) %MON dynstat_uvel_min             =  -9.6552401640443E-01
(PID.TID 0000.0001) %MON dynstat_uvel_mean            =  -9.0761331450076E-05
(PID.TID 0000.0001) %MON dynstat_uvel_sd              =   1.4129796250707E-02
(PID.TID 0000.0001) %MON dynstat_uvel_del2            =   1.3408949554500E-04
(PID.TID 0000.0001) %MON dynstat_vvel_max             =   1.1730313374952E+00
(PID.TID 0000.0001) %MON dynstat_vvel_min             =  -1.4099302784267E+00
(PID.TID 0000.0001) %MON dynstat_vvel_mean            =  -4.2956621529282E-04
(PID.TID 0000.0001) %MON dynstat_vvel_sd              =   1.4014708098770E-02
(PID.TID 0000.0001) %MON dynstat_vvel_del2            =   1.4526617131627E-04
(PID.TID 0000.0001) %MON dynstat_wvel_max             =   1.1720846426361E-04
(PID.TID 0000.0001) %MON dynstat_wvel_min             =  -5.5785372422306E-04
(PID.TID 0000.0001) %MON dynstat_wvel_mean            =  -4.1609003681268E-07
(PID.TID 0000.0001) %MON dynstat_wvel_sd              =   8.5699696793952E-06
(PID.TID 0000.0001) %MON dynstat_wvel_del2            =   7.9896601295042E-08
(PID.TID 0000.0001) %MON dynstat_theta_max            =   3.0922735037341E+01
(PID.TID 0000.0001) %MON dynstat_theta_min            =  -3.0096781136356E+00
(PID.TID 0000.0001) %MON dynstat_theta_mean           =   3.9090604565365E+00
(PID.TID 0000.0001) %MON dynstat_theta_sd             =   4.5711009132437E+00
(PID.TID 0000.0001) %MON dynstat_theta_del2           =   2.6479792014835E-03
(PID.TID 0000.0001) %MON dynstat_salt_max             =   4.1366190830699E+01
(PID.TID 0000.0001) %MON dynstat_salt_min             =   1.8518520103767E+01
(PID.TID 0000.0001) %MON dynstat_salt_mean            =   3.4772103197645E+01
(PID.TID 0000.0001) %MON dynstat_salt_sd              =   5.3114245063428E-01
(PID.TID 0000.0001) %MON dynstat_salt_del2            =   8.4548089269665E-04
(PID.TID 0000.0001) %MON dynstat_sst_max              =   3.0922735037341E+01
(PID.TID 0000.0001) %MON dynstat_sst_min              =  -1.8994597576161E+00
(PID.TID 0000.0001) %MON dynstat_sst_mean             =   1.8106050353030E+01
(PID.TID 0000.0001) %MON dynstat_sst_sd               =   9.8056500497448E+00
(PID.TID 0000.0001) %MON dynstat_sst_del2             =   1.5156257361472E-02
(PID.TID 0000.0001) %MON dynstat_sss_max              =   4.1366190830699E+01
(PID.TID 0000.0001) %MON dynstat_sss_min              =   1.8751388930950E+01
(PID.TID 0000.0001) %MON dynstat_sss_mean             =   3.4635206843396E+01
(PID.TID 0000.0001) %MON dynstat_sss_sd               =   1.4620678532550E+00
(PID.TID 0000.0001) %MON dynstat_sss_del2             =   8.6762893836885E-03
(PID.TID 0000.0001) %MON forcing_qnet_max             =   7.5612548828125E+03
(PID.TID 0000.0001) %MON forcing_qnet_min             =  -4.1497597656250E+03
(PID.TID 0000.0001) %MON forcing_qnet_mean            =  -7.1989204570551E+01
(PID.TID 0000.0001) %MON forcing_qnet_sd              =   4.4652534139503E+02
(PID.TID 0000.0001) %MON forcing_qnet_del2            =   1.2860915262351E+01
(PID.TID 0000.0001) %MON forcing_qsw_max              =   0.0000000000000E+00
(PID.TID 0000.0001) %MON forcing_qsw_min              =  -1.0559390397077E+02
(PID.TID 0000.0001) %MON forcing_qsw_mean             =  -2.1452913929263E+01
(PID.TID 0000.0001) %MON forcing_qsw_sd               =   2.9846776082741E+01
(PID.TID 0000.0001) %MON forcing_qsw_del2             =   2.4532155172184E-01
(PID.TID 0000.0001) %MON forcing_empmr_max            =   1.4228804036975E-02
(PID.TID 0000.0001) %MON forcing_empmr_min            =  -1.9063600897789E-01
(PID.TID 0000.0001) %MON forcing_empmr_mean           =  -4.7945935032200E-04
(PID.TID 0000.0001) %MON forcing_empmr_sd             =   7.1055761630548E-03
(PID.TID 0000.0001) %MON forcing_empmr_del2           =   2.8894828119463E-04
(PID.TID 0000.0001) %MON forcing_fu_max               =   6.7321632537799E-01
(PID.TID 0000.0001) %MON forcing_fu_min               =  -4.4861989487823E-01
(PID.TID 0000.0001) %MON forcing_fu_mean              =  -4.6041114270117E-03
(PID.TID 0000.0001) %MON forcing_fu_sd                =   7.5870580577552E-02
(PID.TID 0000.0001) %MON forcing_fu_del2              =   7.7051895794016E-04
(PID.TID 0000.0001) %MON forcing_fv_max               =   3.3372201343149E-01
(PID.TID 0000.0001) %MON forcing_fv_min               =  -3.4982163135399E-01
(PID.TID 0000.0001) %MON forcing_fv_mean              =  -1.1722142735062E-02
(PID.TID 0000.0001) %MON forcing_fv_sd                =   7.4286137584096E-02
(PID.TID 0000.0001) %MON forcing_fv_del2              =   6.5933678080576E-04
(PID.TID 0000.0001) %MON trAdv_CFL_u_max              =   6.4369221765865E-03
(PID.TID 0000.0001) %MON trAdv_CFL_v_max              =   7.8638990338410E-03
(PID.TID 0000.0001) %MON trAdv_CFL_w_max              =   5.8712492856425E-03
(PID.TID 0000.0001) %MON advcfl_uvel_max              =   6.5234049127659E-03
(PID.TID 0000.0001) %MON advcfl_vvel_max              =   4.2252359283710E-03
(PID.TID 0000.0001) %MON advcfl_wvel_max              =   6.6308177035788E-03
(PID.TID 0000.0001) %MON advcfl_W_hf_max              =   5.8712492856425E-03
(PID.TID 0000.0001) %MON pe_b_mean                    =   4.9929668985431E-04
(PID.TID 0000.0001) %MON ke_max                       =   1.3705699547057E+00
(PID.TID 0000.0001) %MON ke_mean                      =   1.8293302071531E-04
(PID.TID 0000.0001) %MON ke_vol                       =   1.3398078748962E+18
(PID.TID 0000.0001) %MON vort_r_min                   =  -8.3953024382396E-06
(PID.TID 0000.0001) %MON vort_r_max                   =   3.1274339503744E-06
(PID.TID 0000.0001) %MON vort_a_mean                  =  -2.0549865324846E-05
(PID.TID 0000.0001) %MON vort_a_sd                    =   7.5259517937148E-05
(PID.TID 0000.0001) %MON vort_p_mean                  =  -2.4783372782902E-05
(PID.TID 0000.0001) %MON vort_p_sd                    =   1.2811913537492E-04
(PID.TID 0000.0001) %MON surfExpan_theta_mean         =  -7.6522100403344E-06
(PID.TID 0000.0001) %MON surfExpan_salt_mean          =   1.6173848064095E-06
(PID.TID 0000.0001) // =======================================================
(PID.TID 0000.0001) // End MONITOR dynamic field statistics
(PID.TID 0000.0001) // =======================================================
 Computing Diagnostic #     81  oceTAUX      Counter:       1   Parms: UU      U1      
           Vector  Mate for  oceTAUX      Diagnostic #     82  oceTAUY  exists 
 Computing Diagnostic #     82  oceTAUY      Counter:       1   Parms: VV      U1      
           Vector  Mate for  oceTAUY      Diagnostic #     81  oceTAUX  exists 
 Computing Diagnostic #     85  oceFWflx     Counter:       1   Parms: SM      U1      
 Computing Diagnostic #     86  oceSflux     Counter:       1   Parms: SM      U1      
 Computing Diagnostic #     87  oceQnet      Counter:       1   Parms: SM      U1      
 Computing Diagnostic #     88  oceQsw       Counter:       1   Parms: SM      U1      
 Computing Diagnostic #     27  SALT         Counter:       1   Parms: SMR     MR      
 Computing Diagnostic #     26  THETA        Counter:       1   Parms: SMR     MR      
 Computing Diagnostic #     45  UVELMASS     Counter:       1   Parms: UUr     MR      
           Vector  Mate for  UVELMASS     Diagnostic #     46  VVELMASS exists 
 Computing Diagnostic #     46  VVELMASS     Counter:       1   Parms: VVr     MR      
           Vector  Mate for  VVELMASS     Diagnostic #     45  UVELMASS exists 
 Computing Diagnostic #     83  atmPload     Counter:       1   Parms: SM      U1      
 cg2d: Sum(rhs),rhsMax =  -1.63173505354227E+01  8.30711018898047E+01
(PID.TID 0000.0001)      cg2d_init_res =   2.99885606774872E-01
(PID.TID 0000.0001)      cg2d_iters(min,last) =      -1      10
(PID.TID 0000.0001)      cg2d_last_res =   4.23043914777845E-08
(PID.TID 0000.0001) // =======================================================
(PID.TID 0000.0001) // Begin MONITOR dynamic field statistics
(PID.TID 0000.0001) // =======================================================
(PID.TID 0000.0001) %MON time_tsnumber                =                 72016
(PID.TID 0000.0001) %MON time_secondsf                =   6.4814400000000E+07
(PID.TID 0000.0001) %MON dynstat_eta_max              =   3.8007529531294E+00
(PID.TID 0000.0001) %MON dynstat_eta_min              =  -2.0050978895178E+00
(PID.TID 0000.0001) %MON dynstat_eta_mean             =   1.5750733657423E-02
(PID.TID 0000.0001) %MON dynstat_eta_sd               =   6.1319855193641E-01
(PID.TID 0000.0001) %MON dynstat_eta_del2             =   3.1340395770308E-03
(PID.TID 0000.0001) %MON dynstat_uvel_max             =   1.8982615397818E+00
(PID.TID 0000.0001) %MON dynstat_uvel_min             =  -9.4663056846132E-01
(PID.TID 0000.0001) %MON dynstat_uvel_mean            =  -6.8300300689155E-05
(PID.TID 0000.0001) %MON dynstat_uvel_sd              =   1.4016296211669E-02
(PID.TID 0000.0001) %MON dynstat_uvel_del2            =   1.2937249816368E-04
(PID.TID 0000.0001) %MON dynstat_vvel_max             =   1.0842585073758E+00
(PID.TID 0000.0001) %MON dynstat_vvel_min             =  -1.2966944457996E+00
(PID.TID 0000.0001) %MON dynstat_vvel_mean            =  -4.3142398880968E-04
(PID.TID 0000.0001) %MON dynstat_vvel_sd              =   1.3916030471914E-02
(PID.TID 0000.0001) %MON dynstat_vvel_del2            =   1.3530742136240E-04
(PID.TID 0000.0001) %MON dynstat_wvel_max             =   1.2786377436201E-04
(PID.TID 0000.0001) %MON dynstat_wvel_min             =  -5.4336310727035E-04
(PID.TID 0000.0001) %MON dynstat_wvel_mean            =  -4.0181147890683E-07
(PID.TID 0000.0001) %MON dynstat_wvel_sd              =   8.6106151303422E-06
(PID.TID 0000.0001) %MON dynstat_wvel_del2            =   8.0266730675147E-08
(PID.TID 0000.0001) %MON dynstat_theta_max            =   3.0922592506134E+01
(PID.TID 0000.0001) %MON dynstat_theta_min            =  -3.0092432890366E+00
(PID.TID 0000.0001) %MON dynstat_theta_mean           =   3.9090668452002E+00
(PID.TID 0000.0001) %MON dynstat_theta_sd             =   4.5711269603392E+00
(PID.TID 0000.0001) %MON dynstat_theta_del2           =   2.6477664280684E-03
(PID.TID 0000.0001) %MON dynstat_salt_max             =   4.1365315705832E+01
(PID.TID 0000.0001) %MON dynstat_salt_min             =   1.8518529970979E+01
(PID.TID 0000.0001) %MON dynstat_salt_mean            =   3.4772097365392E+01
(PID.TID 0000.0001) %MON dynstat_salt_sd              =   5.3116156554628E-01
(PID.TID 0000.0001) %MON dynstat_salt_del2            =   8.5047014156252E-04
(PID.TID 0000.0001) %MON dynstat_sst_max              =   3.0922592506134E+01
(PID.TID 0000.0001) %MON dynstat_sst_min              =  -1.8994333134457E+00
(PID.TID 0000.0001) %MON dynstat_sst_mean             =   1.8106343588730E+01
(PID.TID 0000.0001) %MON dynstat_sst_sd               =   9.8059680157649E+00
(PID.TID 0000.0001) %MON dynstat_sst_del2             =   1.5151045723163E-02
(PID.TID 0000.0001) %MON dynstat_sss_max              =   4.1365315705832E+01
(PID.TID 0000.0001) %MON dynstat_sss_min              =   1.8751389694379E+01
(PID.TID 0000.0001) %MON dynstat_sss_mean             =   3.4634783197941E+01
(PID.TID 0000.0001) %MON dynstat_sss_sd               =   1.4625386067391E+00
(PID.TID 0000.0001) %MON dynstat_sss_del2             =   8.7528209007684E-03
(PID.TID 0000.0001) %MON forcing_qnet_max             =   8.9095556640625E+03
(PID.TID 0000.0001) %MON forcing_qnet_min             =  -2.1818632238983E+03
(PID.TID 0000.0001) %MON forcing_qnet_mean            =  -6.8097388454121E+01
(PID.TID 0000.0001) %MON forcing_qnet_sd              =   4.0652403660661E+02
(PID.TID 0000.0001) %MON forcing_qnet_del2            =   1.2349948918863E+01
(PID.TID 0000.0001) %MON forcing_qsw_max              =   0.0000000000000E+00
(PID.TID 0000.0001) %MON forcing_qsw_min              =  -1.0501434272776E+02
(PID.TID 0000.0001) %MON forcing_qsw_mean             =  -2.1135569143126E+01
(PID.TID 0000.0001) %MON forcing_qsw_sd               =   2.9571055304188E+01
(PID.TID 0000.0001) %MON forcing_qsw_del2             =   2.4715554771468E-01
(PID.TID 0000.0001) %MON forcing_empmr_max            =   1.3970335945487E-02
(PID.TID 0000.0001) %MON forcing_empmr_min            =  -1.8338480591774E-01
(PID.TID 0000.0001) %MON forcing_empmr_mean           =  -4.7479937113463E-04
(PID.TID 0000.0001) %MON forcing_empmr_sd             =   7.0100337521053E-03
(PID.TID 0000.0001) %MON forcing_empmr_del2           =   2.8545970759756E-04
(PID.TID 0000.0001) %MON forcing_fu_max               =   6.5909576971961E-01
(PID.TID 0000.0001) %MON forcing_fu_min               =  -4.4024163997375E-01
(PID.TID 0000.0001) %MON forcing_fu_mean              =  -4.5564725153282E-03
(PID.TID 0000.0001) %MON forcing_fu_sd                =   7.5328938588202E-02
(PID.TID 0000.0001) %MON forcing_fu_del2              =   7.6359520308060E-04
(PID.TID 0000.0001) %MON forcing_fv_max               =   3.2698863336398E-01
(PID.TID 0000.0001) %MON forcing_fv_min               =  -3.5432321455157E-01
(PID.TID 0000.0001) %MON forcing_fv_mean              =  -1.1546451814946E-02
(PID.TID 0000.0001) %MON forcing_fv_sd                =   7.3871377132454E-02
(PID.TID 0000.0001) %MON forcing_fv_del2              =   6.5562930744010E-04
(PID.TID 0000.0001) %MON trAdv_CFL_u_max              =   6.2632247207645E-03
(PID.TID 0000.0001) %MON trAdv_CFL_v_max              =   7.3018642462129E-03
(PID.TID 0000.0001) %MON trAdv_CFL_w_max              =   5.5730585219773E-03
(PID.TID 0000.0001) %MON advcfl_uvel_max              =   6.3302592435169E-03
(PID.TID 0000.0001) %MON advcfl_vvel_max              =   3.8858942490583E-03
(PID.TID 0000.0001) %MON advcfl_wvel_max              =   6.3786019449649E-03
(PID.TID 0000.0001) %MON advcfl_W_hf_max              =   5.5730585219773E-03
(PID.TID 0000.0001) %MON pe_b_mean                    =   5.0124649563538E-04
(PID.TID 0000.0001) %MON ke_max                       =   1.1923673210851E+00
(PID.TID 0000.0001) %MON ke_mean                      =   1.8018585557700E-04
(PID.TID 0000.0001) %MON ke_vol                       =   1.3398080266083E+18
(PID.TID 0000.0001) %MON vort_r_min                   =  -8.6538323431993E-06
(PID.TID 0000.0001) %MON vort_r_max                   =   3.0976936020269E-06
(PID.TID 0000.0001) %MON vort_a_mean                  =  -2.0549865324846E-05
(PID.TID 0000.0001) %MON vort_a_sd                    =   7.5259516931207E-05
(PID.TID 0000.0001) %MON vort_p_mean                  =  -2.4783369251444E-05
(PID.TID 0000.0001) %MON vort_p_sd                    =   1.2811913452027E-04
(PID.TID 0000.0001) %MON surfExpan_theta_mean         =  -7.6164230453540E-06
(PID.TID 0000.0001) %MON surfExpan_salt_mean          =   1.6088296372632E-06
(PID.TID 0000.0001) // =======================================================
(PID.TID 0000.0001) // End MONITOR dynamic field statistics
(PID.TID 0000.0001) // =======================================================
 cg2d: Sum(rhs),rhsMax =  -1.61135905138149E+01  8.62981516102974E+01
(PID.TID 0000.0001)      cg2d_init_res =   2.59365899038713E-01
(PID.TID 0000.0001)      cg2d_iters(min,last) =      -1      10
(PID.TID 0000.0001)      cg2d_last_res =   3.91258015188479E-08
(PID.TID 0000.0001) // =======================================================
(PID.TID 0000.0001) // Begin MONITOR dynamic field statistics
(PID.TID 0000.0001) // =======================================================
(PID.TID 0000.0001) %MON time_tsnumber                =                 72017
(PID.TID 0000.0001) %MON time_secondsf                =   6.4815300000000E+07
(PID.TID 0000.0001) %MON dynstat_eta_max              =   3.9461422193963E+00
(PID.TID 0000.0001) %MON dynstat_eta_min              =  -2.2815879310235E+00
(PID.TID 0000.0001) %MON dynstat_eta_mean             =   1.6158274807238E-02
(PID.TID 0000.0001) %MON dynstat_eta_sd               =   6.1457623697772E-01
(PID.TID 0000.0001) %MON dynstat_eta_del2             =   3.3502401840103E-03
(PID.TID 0000.0001) %MON dynstat_uvel_max             =   1.8206490755759E+00
(PID.TID 0000.0001) %MON dynstat_uvel_min             =  -9.2050821556840E-01
(PID.TID 0000.0001) %MON dynstat_uvel_mean            =  -4.6956465677995E-05
(PID.TID 0000.0001) %MON dynstat_uvel_sd              =   1.3883311868800E-02
(PID.TID 0000.0001) %MON dynstat_uvel_del2            =   1.2419252541039E-04
(PID.TID 0000.0001) %MON dynstat_vvel_max             =   9.8306509406335E-01
(PID.TID 0000.0001) %MON dynstat_vvel_min             =  -1.1652096180228E+00
(PID.TID 0000.0001) %MON dynstat_vvel_mean            =  -4.3190042260239E-04
(PID.TID 0000.0001) %MON dynstat_vvel_sd              =   1.3829997179770E-02
(PID.TID 0000.0001) %MON dynstat_vvel_del2            =   1.2592936114987E-04
(PID.TID 0000.0001) %MON dynstat_wvel_max             =   1.3026929655028E-04
(PID.TID 0000.0001) %MON dynstat_wvel_min             =  -5.1830668290541E-04
(PID.TID 0000.0001) %MON dynstat_wvel_mean            =  -3.8676638440879E-07
(PID.TID 0000.0001) %MON dynstat_wvel_sd              =   8.7041964516158E-06
(PID.TID 0000.0001) %MON dynstat_wvel_del2            =   8.0772747265076E-08
(PID.TID 0000.0001) %MON dynstat_theta_max            =   3.0922487809455E+01
(PID.TID 0000.0001) %MON dynstat_theta_min            =  -3.0087706648207E+00
(PID.TID 0000.0001) %MON dynstat_theta_mean           =   3.9090729255889E+00
(PID.TID 0000.0001) %MON dynstat_theta_sd             =   4.5711514471379E+00
(PID.TID 0000.0001) %MON dynstat_theta_del2           =   2.6475878176787E-03
(PID.TID 0000.0001) %MON dynstat_salt_max             =   4.1364479033706E+01
(PID.TID 0000.0001) %MON dynstat_salt_min             =   1.8518539841635E+01
(PID.TID 0000.0001) %MON dynstat_salt_mean            =   3.4772091779465E+01
(PID.TID 0000.0001) %MON dynstat_salt_sd              =   5.3118102678282E-01
(PID.TID 0000.0001) %MON dynstat_salt_del2            =   8.5558397900338E-04
(PID.TID 0000.0001) %MON dynstat_sst_max              =   3.0922487809455E+01
(PID.TID 0000.0001) %MON dynstat_sst_min              =  -1.8994057290660E+00
(PID.TID 0000.0001) %MON dynstat_sst_mean             =   1.8106623880652E+01
(PID.TID 0000.0001) %MON dynstat_sst_sd               =   9.8062638015608E+00
(PID.TID 0000.0001) %MON dynstat_sst_del2             =   1.5146783850781E-02
(PID.TID 0000.0001) %MON dynstat_sss_max              =   4.1364479033706E+01
(PID.TID 0000.0001) %MON dynstat_sss_min              =   1.8751390362479E+01
(PID.TID 0000.0001) %MON dynstat_sss_mean             =   3.4634379135932E+01
(PID.TID 0000.0001) %MON dynstat_sss_sd               =   1.4630231096808E+00
(PID.TID 0000.0001) %MON dynstat_sss_del2             =   8.8310542028666E-03
(PID.TID 0000.0001) %MON forcing_qnet_max             =   1.0226380859375E+04
(PID.TID 0000.0001) %MON forcing_qnet_min             =  -2.2183471672004E+03
(PID.TID 0000.0001) %MON forcing_qnet_mean            =  -6.3449991799790E+01
(PID.TID 0000.0001) %MON forcing_qnet_sd              =   3.8125101264173E+02
(PID.TID 0000.0001) %MON forcing_qnet_del2            =   1.2060357343267E+01
(PID.TID 0000.0001) %MON forcing_qsw_max              =   0.0000000000000E+00
(PID.TID 0000.0001) %MON forcing_qsw_min              =  -1.0671368328835E+02
(PID.TID 0000.0001) %MON forcing_qsw_mean             =  -2.0555431834674E+01
(PID.TID 0000.0001) %MON forcing_qsw_sd               =   2.9189142248121E+01
(PID.TID 0000.0001) %MON forcing_qsw_del2             =   2.5369855407819E-01
(PID.TID 0000.0001) %MON forcing_empmr_max            =   1.3576599769294E-02
(PID.TID 0000.0001) %MON forcing_empmr_min            =  -1.7643041908741E-01
(PID.TID 0000.0001) %MON forcing_empmr_mean           =  -4.6867232228709E-04
(PID.TID 0000.0001) %MON forcing_empmr_sd             =   6.9124765306625E-03
(PID.TID 0000.0001) %MON forcing_empmr_del2           =   2.8174639745296E-04
(PID.TID 0000.0001) %MON forcing_fu_max               =   6.4240449413869E-01
(PID.TID 0000.0001) %MON forcing_fu_min               =  -4.3172616620345E-01
(PID.TID 0000.0001) %MON forcing_fu_mean              =  -4.5064979463986E-03
(PID.TID 0000.0001) %MON forcing_fu_sd                =   7.4832187846604E-02
(PID.TID 0000.0001) %MON forcing_fu_del2              =   7.5573887366030E-04
(PID.TID 0000.0001) %MON forcing_fv_max               =   3.2145260271645E-01
(PID.TID 0000.0001) %MON forcing_fv_min               =  -3.5933029340100E-01
(PID.TID 0000.0001) %MON forcing_fv_mean              =  -1.1392663583881E-02
(PID.TID 0000.0001) %MON forcing_fv_sd                =   7.3476000136177E-02
(PID.TID 0000.0001) %MON forcing_fv_del2              =   6.5182873817228E-04
(PID.TID 0000.0001) %MON trAdv_CFL_u_max              =   6.0225534741910E-03
(PID.TID 0000.0001) %MON trAdv_CFL_v_max              =   6.6325520128310E-03
(PID.TID 0000.0001) %MON trAdv_CFL_w_max              =   5.2735313388704E-03
(PID.TID 0000.0001) %MON advcfl_uvel_max              =   6.0714397875801E-03
(PID.TID 0000.0001) %MON advcfl_vvel_max              =   3.4918645393211E-03
(PID.TID 0000.0001) %MON advcfl_wvel_max              =   6.1367102291273E-03
(PID.TID 0000.0001) %MON advcfl_W_hf_max              =   5.2735313388704E-03
(PID.TID 0000.0001) %MON pe_b_mean                    =   5.0351712696987E-04
(PID.TID 0000.0001) %MON ke_max                       =   1.0002833760670E+00
(PID.TID 0000.0001) %MON ke_mean                      =   1.7737300122115E-04
(PID.TID 0000.0001) %MON ke_vol                       =   1.3398081768458E+18
(PID.TID 0000.0001) %MON vort_r_min                   =  -8.7957665767055E-06
(PID.TID 0000.0001) %MON vort_r_max                   =   3.0499599936335E-06
(PID.TID 0000.0001) %MON vort_a_mean                  =  -2.0549865324846E-05
(PID.TID 0000.0001) %MON vort_a_sd                    =   7.5259516230935E-05
(PID.TID 0000.0001) %MON vort_p_mean                  =  -2.4783365856002E-05
(PID.TID 0000.0001) %MON vort_p_sd                    =   1.2811913758486E-04
(PID.TID 0000.0001) %MON surfExpan_theta_mean         =  -7.5618753510518E-06
(PID.TID 0000.0001) %MON surfExpan_salt_mean          =   1.5920308352731E-06
(PID.TID 0000.0001) // =======================================================
(PID.TID 0000.0001) // End MONITOR dynamic field statistics
(PID.TID 0000.0001) // =======================================================
 cg2d: Sum(rhs),rhsMax =  -1.60847923227089E+01  8.86088792122418E+01
(PID.TID 0000.0001)      cg2d_init_res =   2.27757098427489E-01
(PID.TID 0000.0001)      cg2d_iters(min,last) =      -1      10
(PID.TID 0000.0001)      cg2d_last_res =   3.47939825773496E-08
(PID.TID 0000.0001) // =======================================================
(PID.TID 0000.0001) // Begin MONITOR dynamic field statistics
(PID.TID 0000.0001) // =======================================================
(PID.TID 0000.0001) %MON time_tsnumber                =                 72018
(PID.TID 0000.0001) %MON time_secondsf                =   6.4816200000000E+07
(PID.TID 0000.0001) %MON dynstat_eta_max              =   4.0500648108126E+00
(PID.TID 0000.0001) %MON dynstat_eta_min              =  -2.8062556325069E+00
(PID.TID 0000.0001) %MON dynstat_eta_mean             =   1.6561279034216E-02
(PID.TID 0000.0001) %MON dynstat_eta_sd               =   6.1598697043313E-01
(PID.TID 0000.0001) %MON dynstat_eta_del2             =   3.5334384354398E-03
(PID.TID 0000.0001) %MON dynstat_uvel_max             =   1.7240186621623E+00
(PID.TID 0000.0001) %MON dynstat_uvel_min             =  -8.8793156385787E-01
(PID.TID 0000.0001) %MON dynstat_uvel_mean            =  -2.7165576439893E-05
(PID.TID 0000.0001) %MON dynstat_uvel_sd              =   1.3742596537347E-02
(PID.TID 0000.0001) %MON dynstat_uvel_del2            =   1.1881945152829E-04
(PID.TID 0000.0001) %MON dynstat_vvel_max             =   8.7187602142701E-01
(PID.TID 0000.0001) %MON dynstat_vvel_min             =  -1.0184984111729E+00
(PID.TID 0000.0001) %MON dynstat_vvel_mean            =  -4.3145462524428E-04
(PID.TID 0000.0001) %MON dynstat_vvel_sd              =   1.3763762196670E-02
(PID.TID 0000.0001) %MON dynstat_vvel_del2            =   1.1764567856327E-04
(PID.TID 0000.0001) %MON dynstat_wvel_max             =   1.2421739390762E-04
(PID.TID 0000.0001) %MON dynstat_wvel_min             =  -4.8441287011608E-04
(PID.TID 0000.0001) %MON dynstat_wvel_mean            =  -3.7184256947896E-07
(PID.TID 0000.0001) %MON dynstat_wvel_sd              =   8.8424264541902E-06
(PID.TID 0000.0001) %MON dynstat_wvel_del2            =   8.1405846831236E-08
(PID.TID 0000.0001) %MON dynstat_theta_max            =   3.0922401165970E+01
(PID.TID 0000.0001) %MON dynstat_theta_min            =  -3.0082829592366E+00
(PID.TID 0000.0001) %MON dynstat_theta_mean           =   3.9090786576588E+00
(PID.TID 0000.0001) %MON dynstat_theta_sd             =   4.5711743809444E+00
(PID.TID 0000.0001) %MON dynstat_theta_del2           =   2.6474332323588E-03
(PID.TID 0000.0001) %MON dynstat_salt_max             =   4.1363685568846E+01
(PID.TID 0000.0001) %MON dynstat_salt_min             =   1.8518549709873E+01
(PID.TID 0000.0001) %MON dynstat_salt_mean            =   3.4772086354954E+01
(PID.TID 0000.0001) %MON dynstat_salt_sd              =   5.3120068325993E-01
(PID.TID 0000.0001) %MON dynstat_salt_del2            =   8.6080242804738E-04
(PID.TID 0000.0001) %MON dynstat_sst_max              =   3.0922401165970E+01
(PID.TID 0000.0001) %MON dynstat_sst_min              =  -1.8993774118746E+00
(PID.TID 0000.0001) %MON dynstat_sst_mean             =   1.8106878547341E+01
(PID.TID 0000.0001) %MON dynstat_sst_sd               =   9.8065393378144E+00
(PID.TID 0000.0001) %MON dynstat_sst_del2             =   1.5143163671820E-02
(PID.TID 0000.0001) %MON dynstat_sss_max              =   4.1363685568846E+01
(PID.TID 0000.0001) %MON dynstat_sss_min              =   1.8751391046584E+01
(PID.TID 0000.0001) %MON dynstat_sss_mean             =   3.4633985183676E+01
(PID.TID 0000.0001) %MON dynstat_sss_sd               =   1.4635116825633E+00
(PID.TID 0000.0001) %MON dynstat_sss_del2             =   8.9106793959641E-03
(PID.TID 0000.0001) %MON forcing_qnet_max             =   1.0967860351562E+04
(PID.TID 0000.0001) %MON forcing_qnet_min             =  -2.1811111449908E+03
(PID.TID 0000.0001) %MON forcing_qnet_mean            =  -5.7983025808682E+01
(PID.TID 0000.0001) %MON forcing_qnet_sd              =   3.7363710193320E+02
(PID.TID 0000.0001) %MON forcing_qnet_del2            =   1.2141337890400E+01
(PID.TID 0000.0001) %MON forcing_qsw_max              =   0.0000000000000E+00
(PID.TID 0000.0001) %MON forcing_qsw_min              =  -1.0713029342953E+02
(PID.TID 0000.0001) %MON forcing_qsw_mean             =  -2.0306557190978E+01
(PID.TID 0000.0001) %MON forcing_qsw_sd               =   2.8938187717106E+01
(PID.TID 0000.0001) %MON forcing_qsw_del2             =   2.5628566034412E-01
(PID.TID 0000.0001) %MON forcing_empmr_max            =   1.3207467272878E-02
(PID.TID 0000.0001) %MON forcing_empmr_min            =  -1.7020803689957E-01
(PID.TID 0000.0001) %MON forcing_empmr_mean           =  -4.6345486102500E-04
(PID.TID 0000.0001) %MON forcing_empmr_sd             =   6.8193498245483E-03
(PID.TID 0000.0001) %MON forcing_empmr_del2           =   2.7815628764404E-04
(PID.TID 0000.0001) %MON forcing_fu_max               =   6.2839602412631E-01
(PID.TID 0000.0001) %MON forcing_fu_min               =  -4.2414035529950E-01
(PID.TID 0000.0001) %MON forcing_fu_mean              =  -4.4116891501284E-03
(PID.TID 0000.0001) %MON forcing_fu_sd                =   7.4442597970746E-02
(PID.TID 0000.0001) %MON forcing_fu_del2              =   7.4814147446023E-04
(PID.TID 0000.0001) %MON forcing_fv_max               =   3.1756071887558E-01
(PID.TID 0000.0001) %MON forcing_fv_min               =  -3.6058384607418E-01
(PID.TID 0000.0001) %MON forcing_fv_mean              =  -1.1252954709084E-02
(PID.TID 0000.0001) %MON forcing_fv_sd                =   7.3092389911111E-02
(PID.TID 0000.0001) %MON forcing_fv_del2              =   6.4721376474142E-04
(PID.TID 0000.0001) %MON trAdv_CFL_u_max              =   5.7170485316942E-03
(PID.TID 0000.0001) %MON trAdv_CFL_v_max              =   5.8712516972145E-03
(PID.TID 0000.0001) %MON trAdv_CFL_w_max              =   4.9741302460979E-03
(PID.TID 0000.0001) %MON advcfl_uvel_max              =   5.7491999091984E-03
(PID.TID 0000.0001) %MON advcfl_vvel_max              =   3.0522048825552E-03
(PID.TID 0000.0001) %MON advcfl_wvel_max              =   5.9202795443328E-03
(PID.TID 0000.0001) %MON advcfl_W_hf_max              =   4.9741302460979E-03
(PID.TID 0000.0001) %MON pe_b_mean                    =   5.0584729574832E-04
(PID.TID 0000.0001) %MON ke_max                       =   8.3869488603842E-01
(PID.TID 0000.0001) %MON ke_mean                      =   1.7473837310748E-04
(PID.TID 0000.0001) %MON ke_vol                       =   1.3398083251447E+18
(PID.TID 0000.0001) %MON vort_r_min                   =  -8.8177317651246E-06
(PID.TID 0000.0001) %MON vort_r_max                   =   2.9859674181480E-06
(PID.TID 0000.0001) %MON vort_a_mean                  =  -2.0549865324846E-05
(PID.TID 0000.0001) %MON vort_a_sd                    =   7.5259515767517E-05
(PID.TID 0000.0001) %MON vort_p_mean                  =  -2.4783362597630E-05
(PID.TID 0000.0001) %MON vort_p_sd                    =   1.2811914214370E-04
(PID.TID 0000.0001) %MON surfExpan_theta_mean         =  -7.5185733039023E-06
(PID.TID 0000.0001) %MON surfExpan_salt_mean          =   1.5693424468195E-06
(PID.TID 0000.0001) // =======================================================
(PID.TID 0000.0001) // End MONITOR dynamic field statistics
(PID.TID 0000.0001) // =======================================================
 cg2d: Sum(rhs),rhsMax =  -1.62225732398399E+01  8.99676689429508E+01
(PID.TID 0000.0001)      cg2d_init_res =   2.06065999966329E-01
(PID.TID 0000.0001)      cg2d_iters(min,last) =      -1      10
(PID.TID 0000.0001)      cg2d_last_res =   3.12393273815143E-08
(PID.TID 0000.0001) // =======================================================
(PID.TID 0000.0001) // Begin MONITOR dynamic field statistics
(PID.TID 0000.0001) // =======================================================
(PID.TID 0000.0001) %MON time_tsnumber                =                 72019
(PID.TID 0000.0001) %MON time_secondsf                =   6.4817100000000E+07
(PID.TID 0000.0001) %MON dynstat_eta_max              =   4.1108900601670E+00
(PID.TID 0000.0001) %MON dynstat_eta_min              =  -3.2614962527578E+00
(PID.TID 0000.0001) %MON dynstat_eta_mean             =   1.6959278998405E-02
(PID.TID 0000.0001) %MON dynstat_eta_sd               =   6.1732133538257E-01
(PID.TID 0000.0001) %MON dynstat_eta_del2             =   3.6752814697572E-03
(PID.TID 0000.0001) %MON dynstat_uvel_max             =   1.6092241351944E+00
(PID.TID 0000.0001) %MON dynstat_uvel_min             =  -8.4969246041082E-01
(PID.TID 0000.0001) %MON dynstat_uvel_mean            =  -9.5384855203525E-06
(PID.TID 0000.0001) %MON dynstat_uvel_sd              =   1.3602424987403E-02
(PID.TID 0000.0001) %MON dynstat_uvel_del2            =   1.1347857834102E-04
(PID.TID 0000.0001) %MON dynstat_vvel_max             =   7.5315770577045E-01
(PID.TID 0000.0001) %MON dynstat_vvel_min             =  -8.5971430330458E-01
(PID.TID 0000.0001) %MON dynstat_vvel_mean            =  -4.3064140097883E-04
(PID.TID 0000.0001) %MON dynstat_vvel_sd              =   1.3720932748588E-02
(PID.TID 0000.0001) %MON dynstat_vvel_del2            =   1.1090871472018E-04
(PID.TID 0000.0001) %MON dynstat_wvel_max             =   1.1034224312607E-04
(PID.TID 0000.0001) %MON dynstat_wvel_min             =  -4.4426101744113E-04
(PID.TID 0000.0001) %MON dynstat_wvel_mean            =  -3.5650175443449E-07
(PID.TID 0000.0001) %MON dynstat_wvel_sd              =   8.9944303922858E-06
(PID.TID 0000.0001) %MON dynstat_wvel_del2            =   8.1987524724934E-08
(PID.TID 0000.0001) %MON dynstat_theta_max            =   3.0922331883273E+01
(PID.TID 0000.0001) %MON dynstat_theta_min            =  -3.0078062780432E+00
(PID.TID 0000.0001) %MON dynstat_theta_mean           =   3.9090840903396E+00
(PID.TID 0000.0001) %MON dynstat_theta_sd             =   4.5711958824905E+00
(PID.TID 0000.0001) %MON dynstat_theta_del2           =   2.6472982730482E-03
(PID.TID 0000.0001) %MON dynstat_salt_max             =   4.1362937943327E+01
(PID.TID 0000.0001) %MON dynstat_salt_min             =   1.8518559573863E+01
(PID.TID 0000.0001) %MON dynstat_salt_mean            =   3.4772081097355E+01
(PID.TID 0000.0001) %MON dynstat_salt_sd              =   5.3122048371371E-01
(PID.TID 0000.0001) %MON dynstat_salt_del2            =   8.6610719649050E-04
(PID.TID 0000.0001) %MON dynstat_sst_max              =   3.0922331883273E+01
(PID.TID 0000.0001) %MON dynstat_sst_min              =  -1.8993464625708E+00
(PID.TID 0000.0001) %MON dynstat_sst_mean             =   1.8107115213359E+01
(PID.TID 0000.0001) %MON dynstat_sst_sd               =   9.8067940305556E+00
(PID.TID 0000.0001) %MON dynstat_sst_del2             =   1.5140093270754E-02
(PID.TID 0000.0001) %MON dynstat_sss_max              =   4.1362937943327E+01
(PID.TID 0000.0001) %MON dynstat_sss_min              =   1.8751391696802E+01
(PID.TID 0000.0001) %MON dynstat_sss_mean             =   3.4633603087621E+01
(PID.TID 0000.0001) %MON dynstat_sss_sd               =   1.4640047445928E+00
(PID.TID 0000.0001) %MON dynstat_sss_del2             =   8.9914089109332E-03
(PID.TID 0000.0001) %MON forcing_qnet_max             =   9.4939355468750E+03
(PID.TID 0000.0001) %MON forcing_qnet_min             =  -2.0876234355801E+03
(PID.TID 0000.0001) %MON forcing_qnet_mean            =  -5.3429738269528E+01
(PID.TID 0000.0001) %MON forcing_qnet_sd              =   3.5216278381451E+02
(PID.TID 0000.0001) %MON forcing_qnet_del2            =   1.1053996321463E+01
(PID.TID 0000.0001) %MON forcing_qsw_max              =   0.0000000000000E+00
(PID.TID 0000.0001) %MON forcing_qsw_min              =  -1.0711490383072E+02
(PID.TID 0000.0001) %MON forcing_qsw_mean             =  -2.0007813106761E+01
(PID.TID 0000.0001) %MON forcing_qsw_sd               =   2.8632942600407E+01
(PID.TID 0000.0001) %MON forcing_qsw_del2             =   2.5838456668351E-01
(PID.TID 0000.0001) %MON forcing_empmr_max            =   1.2637050822377E-02
(PID.TID 0000.0001) %MON forcing_empmr_min            =  -1.6433924436569E-01
(PID.TID 0000.0001) %MON forcing_empmr_mean           =  -4.5769995881761E-04
(PID.TID 0000.0001) %MON forcing_empmr_sd             =   6.7179054780985E-03
(PID.TID 0000.0001) %MON forcing_empmr_del2           =   2.7393779137139E-04
(PID.TID 0000.0001) %MON forcing_fu_max               =   6.1188726404402E-01
(PID.TID 0000.0001) %MON forcing_fu_min               =  -4.1652846743695E-01
(PID.TID 0000.0001) %MON forcing_fu_mean              =  -4.3273628345240E-03
(PID.TID 0000.0001) %MON forcing_fu_sd                =   7.3989790841355E-02
(PID.TID 0000.0001) %MON forcing_fu_del2              =   7.4009988644356E-04
(PID.TID 0000.0001) %MON forcing_fv_max               =   3.0959535235760E-01
(PID.TID 0000.0001) %MON forcing_fv_min               =  -3.6300917132062E-01
(PID.TID 0000.0001) %MON forcing_fv_mean              =  -1.1165393916079E-02
(PID.TID 0000.0001) %MON forcing_fv_sd                =   7.2624257758359E-02
(PID.TID 0000.0001) %MON forcing_fv_del2              =   6.4262819965031E-04
(PID.TID 0000.0001) %MON trAdv_CFL_u_max              =   5.3492836647986E-03
(PID.TID 0000.0001) %MON trAdv_CFL_v_max              =   5.0349832567948E-03
(PID.TID 0000.0001) %MON trAdv_CFL_w_max              =   4.6745710281051E-03
(PID.TID 0000.0001) %MON advcfl_uvel_max              =   5.3663869510183E-03
(PID.TID 0000.0001) %MON advcfl_vvel_max              =   2.6310062063280E-03
(PID.TID 0000.0001) %MON advcfl_wvel_max              =   5.7161476301110E-03
(PID.TID 0000.0001) %MON advcfl_W_hf_max              =   4.6745710281051E-03
(PID.TID 0000.0001) %MON pe_b_mean                    =   5.0805735772989E-04
(PID.TID 0000.0001) %MON ke_max                       =   7.4273251068987E-01
(PID.TID 0000.0001) %MON ke_mean                      =   1.7243076460249E-04
(PID.TID 0000.0001) %MON ke_vol                       =   1.3398084717926E+18
(PID.TID 0000.0001) %MON vort_r_min                   =  -8.7191181944845E-06
(PID.TID 0000.0001) %MON vort_r_max                   =   2.9073907762179E-06
(PID.TID 0000.0001) %MON vort_a_mean                  =  -2.0549865324846E-05
(PID.TID 0000.0001) %MON vort_a_sd                    =   7.5259515411094E-05
(PID.TID 0000.0001) %MON vort_p_mean                  =  -2.4783359460722E-05
(PID.TID 0000.0001) %MON vort_p_sd                    =   1.2811914567744E-04
(PID.TID 0000.0001) %MON surfExpan_theta_mean         =  -7.4636802805349E-06
(PID.TID 0000.0001) %MON surfExpan_salt_mean          =   1.5407040273247E-06
(PID.TID 0000.0001) // =======================================================
(PID.TID 0000.0001) // End MONITOR dynamic field statistics
(PID.TID 0000.0001) // =======================================================
 Computing Diagnostic #     81  oceTAUX      Counter:       1   Parms: UU      U1      
           Vector  Mate for  oceTAUX      Diagnostic #     82  oceTAUY  exists 
 Computing Diagnostic #     82  oceTAUY      Counter:       1   Parms: VV      U1      
           Vector  Mate for  oceTAUY      Diagnostic #     81  oceTAUX  exists 
 Computing Diagnostic #     85  oceFWflx     Counter:       1   Parms: SM      U1      
 Computing Diagnostic #     86  oceSflux     Counter:       1   Parms: SM      U1      
 Computing Diagnostic #     87  oceQnet      Counter:       1   Parms: SM      U1      
 Computing Diagnostic #     88  oceQsw       Counter:       1   Parms: SM      U1      
 Computing Diagnostic #     27  SALT         Counter:       1   Parms: SMR     MR      
 Computing Diagnostic #     26  THETA        Counter:       1   Parms: SMR     MR      
 Computing Diagnostic #     45  UVELMASS     Counter:       1   Parms: UUr     MR      
           Vector  Mate for  UVELMASS     Diagnostic #     46  VVELMASS exists 
 Computing Diagnostic #     46  VVELMASS     Counter:       1   Parms: VVr     MR      
           Vector  Mate for  VVELMASS     Diagnostic #     45  UVELMASS exists 
 Computing Diagnostic #     83  atmPload     Counter:       1   Parms: SM      U1      
 cg2d: Sum(rhs),rhsMax =  -1.65268208606603E+01  9.03593120564896E+01
(PID.TID 0000.0001)      cg2d_init_res =   1.93365991172939E-01
(PID.TID 0000.0001)      cg2d_iters(min,last) =      -1      10
(PID.TID 0000.0001)      cg2d_last_res =   3.09493054381290E-08
(PID.TID 0000.0001) // =======================================================
(PID.TID 0000.0001) // Begin MONITOR dynamic field statistics
(PID.TID 0000.0001) // =======================================================
(PID.TID 0000.0001) %MON time_tsnumber                =                 72020
(PID.TID 0000.0001) %MON time_secondsf                =   6.4818000000000E+07
(PID.TID 0000.0001) %MON dynstat_eta_max              =   4.1279102231344E+00
(PID.TID 0000.0001) %MON dynstat_eta_min              =  -3.6434187257701E+00
(PID.TID 0000.0001) %MON dynstat_eta_mean             =   1.7352554164582E-02
(PID.TID 0000.0001) %MON dynstat_eta_sd               =   6.1852082171206E-01
(PID.TID 0000.0001) %MON dynstat_eta_del2             =   3.7741161580888E-03
(PID.TID 0000.0001) %MON dynstat_uvel_max             =   1.4774312893477E+00
(PID.TID 0000.0001) %MON dynstat_uvel_min             =  -8.0667182060825E-01
(PID.TID 0000.0001) %MON dynstat_uvel_mean            =   5.2331666287321E-06
(PID.TID 0000.0001) %MON dynstat_uvel_sd              =   1.3467684114724E-02
(PID.TID 0000.0001) %MON dynstat_uvel_del2            =   1.0833862441105E-04
(PID.TID 0000.0001) %MON dynstat_vvel_max             =   6.2934971556264E-01
(PID.TID 0000.0001) %MON dynstat_vvel_min             =  -8.4062543395746E-01
(PID.TID 0000.0001) %MON dynstat_vvel_mean            =  -4.3001055384377E-04
(PID.TID 0000.0001) %MON dynstat_vvel_sd              =   1.3701810398660E-02
(PID.TID 0000.0001) %MON dynstat_vvel_del2            =   1.0604617880569E-04
(PID.TID 0000.0001) %MON dynstat_wvel_max             =   1.0753356218849E-04
(PID.TID 0000.0001) %MON dynstat_wvel_min             =  -4.0086317529566E-04
(PID.TID 0000.0001) %MON dynstat_wvel_mean            =  -3.4084631848201E-07
(PID.TID 0000.0001) %MON dynstat_wvel_sd              =   9.1227072559065E-06
(PID.TID 0000.0001) %MON dynstat_wvel_del2            =   8.2380638007129E-08
(PID.TID 0000.0001) %MON dynstat_theta_max            =   3.0922280454555E+01
(PID.TID 0000.0001) %MON dynstat_theta_min            =  -3.0073651589873E+00
(PID.TID 0000.0001) %MON dynstat_theta_mean           =   3.9090892000801E+00
(PID.TID 0000.0001) %MON dynstat_theta_sd             =   4.5712157024499E+00
(PID.TID 0000.0001) %MON dynstat_theta_del2           =   2.6471596206685E-03
(PID.TID 0000.0001) %MON dynstat_salt_max             =   4.1362238194835E+01
(PID.TID 0000.0001) %MON dynstat_salt_min             =   1.8518569435790E+01
(PID.TID 0000.0001) %MON dynstat_salt_mean            =   3.4772075981682E+01
(PID.TID 0000.0001) %MON dynstat_salt_sd              =   5.3124038165397E-01
(PID.TID 0000.0001) %MON dynstat_salt_del2            =   8.7147981224632E-04
(PID.TID 0000.0001) %MON dynstat_sst_max              =   3.0922280454555E+01
(PID.TID 0000.0001) %MON dynstat_sst_min              =  -1.8993132153618E+00
(PID.TID 0000.0001) %MON dynstat_sst_mean             =   1.8107332677091E+01
(PID.TID 0000.0001) %MON dynstat_sst_sd               =   9.8070221120846E+00
(PID.TID 0000.0001) %MON dynstat_sst_del2             =   1.5136919026540E-02
(PID.TID 0000.0001) %MON dynstat_sss_max              =   4.1362238194835E+01
(PID.TID 0000.0001) %MON dynstat_sss_min              =   1.8751392279927E+01
(PID.TID 0000.0001) %MON dynstat_sss_mean             =   3.4633231356695E+01
(PID.TID 0000.0001) %MON dynstat_sss_sd               =   1.4645012281083E+00
(PID.TID 0000.0001) %MON dynstat_sss_del2             =   9.0729554998466E-03
(PID.TID 0000.0001) %MON forcing_qnet_max             =   4.9900957031250E+03
(PID.TID 0000.0001) %MON forcing_qnet_min             =  -2.2925163574219E+03
(PID.TID 0000.0001) %MON forcing_qnet_mean            =  -4.8416654105837E+01
(PID.TID 0000.0001) %MON forcing_qnet_sd              =   3.2375414526844E+02
(PID.TID 0000.0001) %MON forcing_qnet_del2            =   9.5233216276211E+00
(PID.TID 0000.0001) %MON forcing_qsw_max              =   0.0000000000000E+00
(PID.TID 0000.0001) %MON forcing_qsw_min              =  -1.0712535146616E+02
(PID.TID 0000.0001) %MON forcing_qsw_mean             =  -1.9661394322805E+01
(PID.TID 0000.0001) %MON forcing_qsw_sd               =   2.8276958753306E+01
(PID.TID 0000.0001) %MON forcing_qsw_del2             =   2.5997188364168E-01
(PID.TID 0000.0001) %MON forcing_empmr_max            =   1.2136735953391E-02
(PID.TID 0000.0001) %MON forcing_empmr_min            =  -1.5919184684753E-01
(PID.TID 0000.0001) %MON forcing_empmr_mean           =  -4.5226644110240E-04
(PID.TID 0000.0001) %MON forcing_empmr_sd             =   6.6195049934067E-03
(PID.TID 0000.0001) %MON forcing_empmr_del2           =   2.6976540350003E-04
(PID.TID 0000.0001) %MON forcing_fu_max               =   5.9762313296654E-01
(PID.TID 0000.0001) %MON forcing_fu_min               =  -4.1248082417886E-01
(PID.TID 0000.0001) %MON forcing_fu_mean              =  -4.2667360524300E-03
(PID.TID 0000.0001) %MON forcing_fu_sd                =   7.3615944049468E-02
(PID.TID 0000.0001) %MON forcing_fu_del2              =   7.3267809925924E-04
(PID.TID 0000.0001) %MON forcing_fv_max               =   3.0614249069509E-01
(PID.TID 0000.0001) %MON forcing_fv_min               =  -3.5917293356768E-01
(PID.TID 0000.0001) %MON forcing_fv_mean              =  -1.1126601965345E-02
(PID.TID 0000.0001) %MON forcing_fv_sd                =   7.2129548320557E-02
(PID.TID 0000.0001) %MON forcing_fv_del2              =   6.3711609592201E-04
(PID.TID 0000.0001) %MON trAdv_CFL_u_max              =   4.9227383137900E-03
(PID.TID 0000.0001) %MON trAdv_CFL_v_max              =   4.1420534524917E-03
(PID.TID 0000.0001) %MON trAdv_CFL_w_max              =   4.3738994020358E-03
(PID.TID 0000.0001) %MON advcfl_uvel_max              =   4.9268885662243E-03
(PID.TID 0000.0001) %MON advcfl_vvel_max              =   2.8724215236368E-03
(PID.TID 0000.0001) %MON advcfl_wvel_max              =   5.5371077164360E-03
(PID.TID 0000.0001) %MON advcfl_W_hf_max              =   4.3738994020358E-03
(PID.TID 0000.0001) %MON pe_b_mean                    =   5.1005006858995E-04
(PID.TID 0000.0001) %MON ke_max                       =   6.8572129162674E-01
(PID.TID 0000.0001) %MON ke_mean                      =   1.7051158451006E-04
(PID.TID 0000.0001) %MON ke_vol                       =   1.3398086166195E+18
(PID.TID 0000.0001) %MON vort_r_min                   =  -8.5019914166747E-06
(PID.TID 0000.0001) %MON vort_r_max                   =   2.9136638283220E-06
(PID.TID 0000.0001) %MON vort_a_mean                  =  -2.0549865324846E-05
(PID.TID 0000.0001) %MON vort_a_sd                    =   7.5259515005226E-05
(PID.TID 0000.0001) %MON vort_p_mean                  =  -2.4783356437246E-05
(PID.TID 0000.0001) %MON vort_p_sd                    =   1.2811914606071E-04
(PID.TID 0000.0001) %MON surfExpan_theta_mean         =  -7.4107029297352E-06
(PID.TID 0000.0001) %MON surfExpan_salt_mean          =   1.5094710213741E-06
(PID.TID 0000.0001) // =======================================================
(PID.TID 0000.0001) // End MONITOR dynamic field statistics
(PID.TID 0000.0001) // =======================================================
 cg2d: Sum(rhs),rhsMax =  -1.70037978012848E+01  8.97882846053987E+01
(PID.TID 0000.0001)      cg2d_init_res =   1.87196924882074E-01
(PID.TID 0000.0001)      cg2d_iters(min,last) =      -1      10
(PID.TID 0000.0001)      cg2d_last_res =   3.42042688179749E-08
(PID.TID 0000.0001) // =======================================================
(PID.TID 0000.0001) // Begin MONITOR dynamic field statistics
(PID.TID 0000.0001) // =======================================================
(PID.TID 0000.0001) %MON time_tsnumber                =                 72021
(PID.TID 0000.0001) %MON time_secondsf                =   6.4818900000000E+07
(PID.TID 0000.0001) %MON dynstat_eta_max              =   4.1013085039473E+00
(PID.TID 0000.0001) %MON dynstat_eta_min              =  -3.9489369350525E+00
(PID.TID 0000.0001) %MON dynstat_eta_mean             =   1.7740537737238E-02
(PID.TID 0000.0001) %MON dynstat_eta_sd               =   6.1956434178874E-01
(PID.TID 0000.0001) %MON dynstat_eta_del2             =   3.8319074474912E-03
(PID.TID 0000.0001) %MON dynstat_uvel_max             =   1.3302214436197E+00
(PID.TID 0000.0001) %MON dynstat_uvel_min             =  -7.5973712522536E-01
(PID.TID 0000.0001) %MON dynstat_uvel_mean            =   1.6430485455755E-05
(PID.TID 0000.0001) %MON dynstat_uvel_sd              =   1.3340466815312E-02
(PID.TID 0000.0001) %MON dynstat_uvel_del2            =   1.0352019255789E-04
(PID.TID 0000.0001) %MON dynstat_vvel_max             =   5.0282113561972E-01
(PID.TID 0000.0001) %MON dynstat_vvel_min             =  -8.9617056050470E-01
(PID.TID 0000.0001) %MON dynstat_vvel_mean            =  -4.3001671912147E-04
(PID.TID 0000.0001) %MON dynstat_vvel_sd              =   1.3704189680863E-02
(PID.TID 0000.0001) %MON dynstat_vvel_del2            =   1.0319886979285E-04
(PID.TID 0000.0001) %MON dynstat_wvel_max             =   1.0635652659407E-04
(PID.TID 0000.0001) %MON dynstat_wvel_min             =  -3.6933959440209E-04
(PID.TID 0000.0001) %MON dynstat_wvel_mean            =  -3.2447276790790E-07
(PID.TID 0000.0001) %MON dynstat_wvel_sd              =   9.1960061672887E-06
(PID.TID 0000.0001) %MON dynstat_wvel_del2            =   8.2398549448814E-08
(PID.TID 0000.0001) %MON dynstat_theta_max            =   3.0922268981660E+01
(PID.TID 0000.0001) %MON dynstat_theta_min            =  -3.0069788497095E+00
(PID.TID 0000.0001) %MON dynstat_theta_mean           =   3.9090939301397E+00
(PID.TID 0000.0001) %MON dynstat_theta_sd             =   4.5712338874729E+00
(PID.TID 0000.0001) %MON dynstat_theta_del2           =   2.6470090489430E-03
(PID.TID 0000.0001) %MON dynstat_salt_max             =   4.1361587308178E+01
(PID.TID 0000.0001) %MON dynstat_salt_min             =   1.8518579300702E+01
(PID.TID 0000.0001) %MON dynstat_salt_mean            =   3.4772071033575E+01
(PID.TID 0000.0001) %MON dynstat_salt_sd              =   5.3126040922836E-01
(PID.TID 0000.0001) %MON dynstat_salt_del2            =   8.7690035641090E-04
(PID.TID 0000.0001) %MON dynstat_sst_max              =   3.0922268981660E+01
(PID.TID 0000.0001) %MON dynstat_sst_min              =  -1.8992757255815E+00
(PID.TID 0000.0001) %MON dynstat_sst_mean             =   1.8107530189289E+01
(PID.TID 0000.0001) %MON dynstat_sst_sd               =   9.8072324924025E+00
(PID.TID 0000.0001) %MON dynstat_sst_del2             =   1.5133464005014E-02
(PID.TID 0000.0001) %MON dynstat_sss_max              =   4.1361587308178E+01
(PID.TID 0000.0001) %MON dynstat_sss_min              =   1.8751392902368E+01
(PID.TID 0000.0001) %MON dynstat_sss_mean             =   3.4632873196736E+01
(PID.TID 0000.0001) %MON dynstat_sss_sd               =   1.4650038235222E+00
(PID.TID 0000.0001) %MON dynstat_sss_del2             =   9.1550142214746E-03
(PID.TID 0000.0001) %MON forcing_qnet_max             =   3.2593126859923E+03
(PID.TID 0000.0001) %MON forcing_qnet_min             =  -3.6719704589844E+03
(PID.TID 0000.0001) %MON forcing_qnet_mean            =  -4.2422375488146E+01
(PID.TID 0000.0001) %MON forcing_qnet_sd              =   3.0287540265584E+02
(PID.TID 0000.0001) %MON forcing_qnet_del2            =   8.5726711029506E+00
(PID.TID 0000.0001) %MON forcing_qsw_max              =   0.0000000000000E+00
(PID.TID 0000.0001) %MON forcing_qsw_min              =  -1.0855990643966E+02
(PID.TID 0000.0001) %MON forcing_qsw_mean             =  -1.9074002137846E+01
(PID.TID 0000.0001) %MON forcing_qsw_sd               =   2.7728626475254E+01
(PID.TID 0000.0001) %MON forcing_qsw_del2             =   2.6365044857185E-01
(PID.TID 0000.0001) %MON forcing_empmr_max            =   1.1469428427517E-02
(PID.TID 0000.0001) %MON forcing_empmr_min            =  -1.5511532127857E-01
(PID.TID 0000.0001) %MON forcing_empmr_mean           =  -4.4618110855516E-04
(PID.TID 0000.0001) %MON forcing_empmr_sd             =   6.5165691003001E-03
(PID.TID 0000.0001) %MON forcing_empmr_del2           =   2.6511529707172E-04
(PID.TID 0000.0001) %MON forcing_fu_max               =   5.8654216302667E-01
(PID.TID 0000.0001) %MON forcing_fu_min               =  -4.0891664913678E-01
(PID.TID 0000.0001) %MON forcing_fu_mean              =  -4.2551040170956E-03
(PID.TID 0000.0001) %MON forcing_fu_sd                =   7.3010278365630E-02
(PID.TID 0000.0001) %MON forcing_fu_del2              =   7.2483274010228E-04
(PID.TID 0000.0001) %MON forcing_fv_max               =   3.1051826237853E-01
(PID.TID 0000.0001) %MON forcing_fv_min               =  -3.5617693621097E-01
(PID.TID 0000.0001) %MON forcing_fv_mean              =  -1.1122994247935E-02
(PID.TID 0000.0001) %MON forcing_fv_sd                =   7.1586194922582E-02
(PID.TID 0000.0001) %MON forcing_fv_del2              =   6.3171696240241E-04
(PID.TID 0000.0001) %MON trAdv_CFL_u_max              =   4.4422007607983E-03
(PID.TID 0000.0001) %MON trAdv_CFL_v_max              =   3.2114808478793E-03
(PID.TID 0000.0001) %MON trAdv_CFL_w_max              =   4.0713249669860E-03
(PID.TID 0000.0001) %MON advcfl_uvel_max              =   4.4359780846457E-03
(PID.TID 0000.0001) %MON advcfl_vvel_max              =   3.0622195128272E-03
(PID.TID 0000.0001) %MON advcfl_wvel_max              =   5.3953155227329E-03
(PID.TID 0000.0001) %MON advcfl_W_hf_max              =   4.0713249669860E-03
(PID.TID 0000.0001) %MON pe_b_mean                    =   5.1178928276087E-04
(PID.TID 0000.0001) %MON ke_max                       =   6.2749693864896E-01
(PID.TID 0000.0001) %MON ke_mean                      =   1.6897521990737E-04
(PID.TID 0000.0001) %MON ke_vol                       =   1.3398087597271E+18
(PID.TID 0000.0001) %MON vort_r_min                   =  -8.1709714733046E-06
(PID.TID 0000.0001) %MON vort_r_max                   =   2.9416985379661E-06
(PID.TID 0000.0001) %MON vort_a_mean                  =  -2.0549865324846E-05
(PID.TID 0000.0001) %MON vort_a_sd                    =   7.5259514395734E-05
(PID.TID 0000.0001) %MON vort_p_mean                  =  -2.4783353514632E-05
(PID.TID 0000.0001) %MON vort_p_sd                    =   1.2811914184938E-04
(PID.TID 0000.0001) %MON surfExpan_theta_mean         =  -7.3597364435702E-06
(PID.TID 0000.0001) %MON surfExpan_salt_mean          =   1.4757356186851E-06
(PID.TID 0000.0001) // =======================================================
(PID.TID 0000.0001) // End MONITOR dynamic field statistics
(PID.TID 0000.0001) // =======================================================
 cg2d: Sum(rhs),rhsMax =  -1.76674497587136E+01  8.82776614344030E+01
(PID.TID 0000.0001)      cg2d_init_res =   1.84861936164542E-01
(PID.TID 0000.0001)      cg2d_iters(min,last) =      -1       9
(PID.TID 0000.0001)      cg2d_last_res =   9.05115152307850E-08
(PID.TID 0000.0001) // =======================================================
(PID.TID 0000.0001) // Begin MONITOR dynamic field statistics
(PID.TID 0000.0001) // =======================================================
(PID.TID 0000.0001) %MON time_tsnumber                =                 72022
(PID.TID 0000.0001) %MON time_secondsf                =   6.4819800000000E+07
(PID.TID 0000.0001) %MON dynstat_eta_max              =   4.0321107609047E+00
(PID.TID 0000.0001) %MON dynstat_eta_min              =  -4.1760014090919E+00
(PID.TID 0000.0001) %MON dynstat_eta_mean             =   1.8122823379505E-02
(PID.TID 0000.0001) %MON dynstat_eta_sd               =   6.2044673796142E-01
(PID.TID 0000.0001) %MON dynstat_eta_del2             =   3.8518311174151E-03
(PID.TID 0000.0001) %MON dynstat_uvel_max             =   1.1696460908289E+00
(PID.TID 0000.0001) %MON dynstat_uvel_min             =  -7.0975076721564E-01
(PID.TID 0000.0001) %MON dynstat_uvel_mean            =   2.3411918108324E-05
(PID.TID 0000.0001) %MON dynstat_uvel_sd              =   1.3222188609755E-02
(PID.TID 0000.0001) %MON dynstat_uvel_del2            =   9.9114260722883E-05
(PID.TID 0000.0001) %MON dynstat_vvel_max             =   3.7581859935711E-01
(PID.TID 0000.0001) %MON dynstat_vvel_min             =  -9.3649601942800E-01
(PID.TID 0000.0001) %MON dynstat_vvel_mean            =  -4.3094333533451E-04
(PID.TID 0000.0001) %MON dynstat_vvel_sd              =   1.3724504734054E-02
(PID.TID 0000.0001) %MON dynstat_vvel_del2            =   1.0229118900482E-04
(PID.TID 0000.0001) %MON dynstat_wvel_max             =   1.0654263717901E-04
(PID.TID 0000.0001) %MON dynstat_wvel_min             =  -4.0938951400735E-04
(PID.TID 0000.0001) %MON dynstat_wvel_mean            =  -3.0710270480480E-07
(PID.TID 0000.0001) %MON dynstat_wvel_sd              =   9.1998991142919E-06
(PID.TID 0000.0001) %MON dynstat_wvel_del2            =   8.2009558947839E-08
(PID.TID 0000.0001) %MON dynstat_theta_max            =   3.0922276962500E+01
(PID.TID 0000.0001) %MON dynstat_theta_min            =  -3.0066591265297E+00
(PID.TID 0000.0001) %MON dynstat_theta_mean           =   3.9090984955146E+00
(PID.TID 0000.0001) %MON dynstat_theta_sd             =   4.5712512846638E+00
(PID.TID 0000.0001) %MON dynstat_theta_del2           =   2.6468420035940E-03
(PID.TID 0000.0001) %MON dynstat_salt_max             =   4.1360984570159E+01
(PID.TID 0000.0001) %MON dynstat_salt_min             =   1.8518589175814E+01
(PID.TID 0000.0001) %MON dynstat_salt_mean            =   3.4772066261834E+01
(PID.TID 0000.0001) %MON dynstat_salt_sd              =   5.3128047132715E-01
(PID.TID 0000.0001) %MON dynstat_salt_del2            =   8.8236195237299E-04
(PID.TID 0000.0001) %MON dynstat_sst_max              =   3.0922276962500E+01
(PID.TID 0000.0001) %MON dynstat_sst_min              =  -1.8992342949952E+00
(PID.TID 0000.0001) %MON dynstat_sst_mean             =   1.8107717370546E+01
(PID.TID 0000.0001) %MON dynstat_sst_sd               =   9.8074289005752E+00
(PID.TID 0000.0001) %MON dynstat_sst_del2             =   1.5129573803503E-02
(PID.TID 0000.0001) %MON dynstat_sss_max              =   4.1360984570159E+01
(PID.TID 0000.0001) %MON dynstat_sss_min              =   1.8751393489352E+01
(PID.TID 0000.0001) %MON dynstat_sss_mean             =   3.4632527039060E+01
(PID.TID 0000.0001) %MON dynstat_sss_sd               =   1.4655070491404E+00
(PID.TID 0000.0001) %MON dynstat_sss_del2             =   9.2374810402520E-03
(PID.TID 0000.0001) %MON forcing_qnet_max             =   4.1816904802179E+03
(PID.TID 0000.0001) %MON forcing_qnet_min             =  -1.3147097656250E+04
(PID.TID 0000.0001) %MON forcing_qnet_mean            =  -4.0169423202776E+01
(PID.TID 0000.0001) %MON forcing_qnet_sd              =   3.5830456614166E+02
(PID.TID 0000.0001) %MON forcing_qnet_del2            =   1.1517237397356E+01
(PID.TID 0000.0001) %MON forcing_qsw_max              =   0.0000000000000E+00
(PID.TID 0000.0001) %MON forcing_qsw_min              =  -1.0994892880707E+02
(PID.TID 0000.0001) %MON forcing_qsw_mean             =  -1.8838909709605E+01
(PID.TID 0000.0001) %MON forcing_qsw_sd               =   2.7417472623050E+01
(PID.TID 0000.0001) %MON forcing_qsw_del2             =   2.6520376206969E-01
(PID.TID 0000.0001) %MON forcing_empmr_max            =   1.0726223699749E-02
(PID.TID 0000.0001) %MON forcing_empmr_min            =  -1.5151114761829E-01
(PID.TID 0000.0001) %MON forcing_empmr_mean           =  -4.3962848860668E-04
(PID.TID 0000.0001) %MON forcing_empmr_sd             =   6.4153717437861E-03
(PID.TID 0000.0001) %MON forcing_empmr_del2           =   2.6048532184063E-04
(PID.TID 0000.0001) %MON forcing_fu_max               =   5.7274022312410E-01
(PID.TID 0000.0001) %MON forcing_fu_min               =  -4.0441887131623E-01
(PID.TID 0000.0001) %MON forcing_fu_mean              =  -4.2281645295810E-03
(PID.TID 0000.0001) %MON forcing_fu_sd                =   7.2464424163760E-02
(PID.TID 0000.0001) %MON forcing_fu_del2              =   7.1682133460894E-04
(PID.TID 0000.0001) %MON forcing_fv_max               =   3.1379941573213E-01
(PID.TID 0000.0001) %MON forcing_fv_min               =  -3.4821987341029E-01
(PID.TID 0000.0001) %MON forcing_fv_mean              =  -1.1114791812000E-02
(PID.TID 0000.0001) %MON forcing_fv_sd                =   7.1041744299255E-02
(PID.TID 0000.0001) %MON forcing_fv_del2              =   6.2629198664486E-04
(PID.TID 0000.0001) %MON trAdv_CFL_u_max              =   3.9140742532084E-03
(PID.TID 0000.0001) %MON trAdv_CFL_v_max              =   3.0527166233425E-03
(PID.TID 0000.0001) %MON trAdv_CFL_w_max              =   3.7668594420552E-03
(PID.TID 0000.0001) %MON advcfl_uvel_max              =   3.9004967560814E-03
(PID.TID 0000.0001) %MON advcfl_vvel_max              =   3.2000118177977E-03
(PID.TID 0000.0001) %MON advcfl_wvel_max              =   5.2699529606363E-03
(PID.TID 0000.0001) %MON advcfl_W_hf_max              =   3.7668594420552E-03
(PID.TID 0000.0001) %MON pe_b_mean                    =   5.1326513737086E-04
(PID.TID 0000.0001) %MON ke_max                       =   5.7002377951708E-01
(PID.TID 0000.0001) %MON ke_mean                      =   1.6779095165455E-04
(PID.TID 0000.0001) %MON ke_vol                       =   1.3398089009092E+18
(PID.TID 0000.0001) %MON vort_r_min                   =  -7.7330669660032E-06
(PID.TID 0000.0001) %MON vort_r_max                   =   2.9498930332456E-06
(PID.TID 0000.0001) %MON vort_a_mean                  =  -2.0549865324846E-05
(PID.TID 0000.0001) %MON vort_a_sd                    =   7.5259513469070E-05
(PID.TID 0000.0001) %MON vort_p_mean                  =  -2.4783350687252E-05
(PID.TID 0000.0001) %MON vort_p_sd                    =   1.2811913253922E-04
(PID.TID 0000.0001) %MON surfExpan_theta_mean         =  -7.2933788150333E-06
(PID.TID 0000.0001) %MON surfExpan_salt_mean          =   1.4411300886530E-06
(PID.TID 0000.0001) // =======================================================
(PID.TID 0000.0001) // End MONITOR dynamic field statistics
(PID.TID 0000.0001) // =======================================================
 cg2d: Sum(rhs),rhsMax =  -1.85417405025015E+01  8.58676927463044E+01
(PID.TID 0000.0001)      cg2d_init_res =   1.84604131136727E-01
(PID.TID 0000.0001)      cg2d_iters(min,last) =      -1      10
(PID.TID 0000.0001)      cg2d_last_res =   3.84489043525172E-08
(PID.TID 0000.0001) // =======================================================
(PID.TID 0000.0001) // Begin MONITOR dynamic field statistics
(PID.TID 0000.0001) // =======================================================
(PID.TID 0000.0001) %MON time_tsnumber                =                 72023
(PID.TID 0000.0001) %MON time_secondsf                =   6.4820700000000E+07
(PID.TID 0000.0001) %MON dynstat_eta_max              =   3.9221218124073E+00
(PID.TID 0000.0001) %MON dynstat_eta_min              =  -4.3235714639023E+00
(PID.TID 0000.0001) %MON dynstat_eta_mean             =   1.8500414785742E-02
(PID.TID 0000.0001) %MON dynstat_eta_sd               =   6.2116541819180E-01
(PID.TID 0000.0001) %MON dynstat_eta_del2             =   3.8368200402802E-03
(PID.TID 0000.0001) %MON dynstat_uvel_max             =   9.9823234338249E-01
(PID.TID 0000.0001) %MON dynstat_uvel_min             =  -6.5756729980617E-01
(PID.TID 0000.0001) %MON dynstat_uvel_mean            =   2.5634227179966E-05
(PID.TID 0000.0001) %MON dynstat_uvel_sd              =   1.3114554630038E-02
(PID.TID 0000.0001) %MON dynstat_uvel_del2            =   9.5200873092943E-05
(PID.TID 0000.0001) %MON dynstat_vvel_max             =   3.1419412601064E-01
(PID.TID 0000.0001) %MON dynstat_vvel_min             =  -9.6157552252352E-01
(PID.TID 0000.0001) %MON dynstat_vvel_mean            =  -4.3291325497901E-04
(PID.TID 0000.0001) %MON dynstat_vvel_sd              =   1.3758675232171E-02
(PID.TID 0000.0001) %MON dynstat_vvel_del2            =   1.0305558282197E-04
(PID.TID 0000.0001) %MON dynstat_wvel_max             =   1.0821589259277E-04
(PID.TID 0000.0001) %MON dynstat_wvel_min             =  -4.3457850990942E-04
(PID.TID 0000.0001) %MON dynstat_wvel_mean            =  -2.8944087939979E-07
(PID.TID 0000.0001) %MON dynstat_wvel_sd              =   9.1374439986275E-06
(PID.TID 0000.0001) %MON dynstat_wvel_del2            =   8.1242256337344E-08
(PID.TID 0000.0001) %MON dynstat_theta_max            =   3.0922303402490E+01
(PID.TID 0000.0001) %MON dynstat_theta_min            =  -3.0064097331733E+00
(PID.TID 0000.0001) %MON dynstat_theta_mean           =   3.9091027826343E+00
(PID.TID 0000.0001) %MON dynstat_theta_sd             =   4.5712678716917E+00
(PID.TID 0000.0001) %MON dynstat_theta_del2           =   2.6466788228404E-03
(PID.TID 0000.0001) %MON dynstat_salt_max             =   4.1360428765171E+01
(PID.TID 0000.0001) %MON dynstat_salt_min             =   1.8518599069012E+01
(PID.TID 0000.0001) %MON dynstat_salt_mean            =   3.4772061610684E+01
(PID.TID 0000.0001) %MON dynstat_salt_sd              =   5.3130068511354E-01
(PID.TID 0000.0001) %MON dynstat_salt_del2            =   8.8786480509685E-04
(PID.TID 0000.0001) %MON dynstat_sst_max              =   3.0922303402490E+01
(PID.TID 0000.0001) %MON dynstat_sst_min              =  -1.8991870333824E+00
(PID.TID 0000.0001) %MON dynstat_sst_mean             =   1.8107891726811E+01
(PID.TID 0000.0001) %MON dynstat_sst_sd               =   9.8076236737894E+00
(PID.TID 0000.0001) %MON dynstat_sst_del2             =   1.5125840781179E-02
(PID.TID 0000.0001) %MON dynstat_sss_max              =   4.1360428765171E+01
(PID.TID 0000.0001) %MON dynstat_sss_min              =   1.8751394070825E+01
(PID.TID 0000.0001) %MON dynstat_sss_mean             =   3.4632190939260E+01
(PID.TID 0000.0001) %MON dynstat_sss_sd               =   1.4660162683176E+00
(PID.TID 0000.0001) %MON dynstat_sss_del2             =   9.3203520280510E-03
(PID.TID 0000.0001) %MON forcing_qnet_max             =   3.1290038848046E+03
(PID.TID 0000.0001) %MON forcing_qnet_min             =  -3.6818330078125E+03
(PID.TID 0000.0001) %MON forcing_qnet_mean            =  -3.5767179566297E+01
(PID.TID 0000.0001) %MON forcing_qnet_sd              =   2.8268680109388E+02
(PID.TID 0000.0001) %MON forcing_qnet_del2            =   8.0392564956613E+00
(PID.TID 0000.0001) %MON forcing_qsw_max              =   0.0000000000000E+00
(PID.TID 0000.0001) %MON forcing_qsw_min              =  -1.1088130257890E+02
(PID.TID 0000.0001) %MON forcing_qsw_mean             =  -1.8562941346610E+01
(PID.TID 0000.0001) %MON forcing_qsw_sd               =   2.7065109136845E+01
(PID.TID 0000.0001) %MON forcing_qsw_del2             =   2.6604053214931E-01
(PID.TID 0000.0001) %MON forcing_empmr_max            =   9.9105406552553E-03
(PID.TID 0000.0001) %MON forcing_empmr_min            =  -1.4784964919090E-01
(PID.TID 0000.0001) %MON forcing_empmr_mean           =  -4.3423011717344E-04
(PID.TID 0000.0001) %MON forcing_empmr_sd             =   6.3136902823267E-03
(PID.TID 0000.0001) %MON forcing_empmr_del2           =   2.5585588949952E-04
(PID.TID 0000.0001) %MON forcing_fu_max               =   5.5631921035399E-01
(PID.TID 0000.0001) %MON forcing_fu_min               =  -4.0113093426852E-01
(PID.TID 0000.0001) %MON forcing_fu_mean              =  -4.1814812633934E-03
(PID.TID 0000.0001) %MON forcing_fu_sd                =   7.2127659181081E-02
(PID.TID 0000.0001) %MON forcing_fu_del2              =   7.0972795300903E-04
(PID.TID 0000.0001) %MON forcing_fv_max               =   3.1703364060635E-01
(PID.TID 0000.0001) %MON forcing_fv_min               =  -3.4089946200488E-01
(PID.TID 0000.0001) %MON forcing_fv_mean              =  -1.1152645257046E-02
(PID.TID 0000.0001) %MON forcing_fv_sd                =   7.0584698805078E-02
(PID.TID 0000.0001) %MON forcing_fv_del2              =   6.2117154864576E-04
(PID.TID 0000.0001) %MON trAdv_CFL_u_max              =   3.3465384368421E-03
(PID.TID 0000.0001) %MON trAdv_CFL_v_max              =   3.1388481562599E-03
(PID.TID 0000.0001) %MON trAdv_CFL_w_max              =   3.4616871252254E-03
(PID.TID 0000.0001) %MON advcfl_uvel_max              =   3.3288719106645E-03
(PID.TID 0000.0001) %MON advcfl_vvel_max              =   3.2857086116177E-03
(PID.TID 0000.0001) %MON advcfl_wvel_max              =   5.1425964935966E-03
(PID.TID 0000.0001) %MON advcfl_W_hf_max              =   3.4616871252254E-03
(PID.TID 0000.0001) %MON pe_b_mean                    =   5.1447223836425E-04
(PID.TID 0000.0001) %MON ke_max                       =   5.1524257462101E-01
(PID.TID 0000.0001) %MON ke_mean                      =   1.6692528759470E-04
(PID.TID 0000.0001) %MON ke_vol                       =   1.3398090400178E+18
(PID.TID 0000.0001) %MON vort_r_min                   =  -7.1974868325280E-06
(PID.TID 0000.0001) %MON vort_r_max                   =   2.9383792941636E-06
(PID.TID 0000.0001) %MON vort_a_mean                  =  -2.0549865324846E-05
(PID.TID 0000.0001) %MON vort_a_sd                    =   7.5259512167468E-05
(PID.TID 0000.0001) %MON vort_p_mean                  =  -2.4783347950655E-05
(PID.TID 0000.0001) %MON vort_p_sd                    =   1.2811911845442E-04
(PID.TID 0000.0001) %MON surfExpan_theta_mean         =  -7.2555629351665E-06
(PID.TID 0000.0001) %MON surfExpan_salt_mean          =   1.4060347985451E-06
(PID.TID 0000.0001) // =======================================================
(PID.TID 0000.0001) // End MONITOR dynamic field statistics
(PID.TID 0000.0001) // =======================================================
 Computing Diagnostic #     81  oceTAUX      Counter:       1   Parms: UU      U1      
           Vector  Mate for  oceTAUX      Diagnostic #     82  oceTAUY  exists 
 Computing Diagnostic #     82  oceTAUY      Counter:       1   Parms: VV      U1      
           Vector  Mate for  oceTAUY      Diagnostic #     81  oceTAUX  exists 
 Computing Diagnostic #     85  oceFWflx     Counter:       1   Parms: SM      U1      
 Computing Diagnostic #     86  oceSflux     Counter:       1   Parms: SM      U1      
 Computing Diagnostic #     87  oceQnet      Counter:       1   Parms: SM      U1      
 Computing Diagnostic #     88  oceQsw       Counter:       1   Parms: SM      U1      
 Computing Diagnostic #     27  SALT         Counter:       1   Parms: SMR     MR      
 Computing Diagnostic #     26  THETA        Counter:       1   Parms: SMR     MR      
 Computing Diagnostic #     45  UVELMASS     Counter:       1   Parms: UUr     MR      
           Vector  Mate for  UVELMASS     Diagnostic #     46  VVELMASS exists 
 Computing Diagnostic #     46  VVELMASS     Counter:       1   Parms: VVr     MR      
           Vector  Mate for  VVELMASS     Diagnostic #     45  UVELMASS exists 
 Computing Diagnostic #     83  atmPload     Counter:       1   Parms: SM      U1      
 cg2d: Sum(rhs),rhsMax =  -1.96598773794161E+01  8.26141206451938E+01
(PID.TID 0000.0001)      cg2d_init_res =   1.86075369149135E-01
(PID.TID 0000.0001)      cg2d_iters(min,last) =      -1      10
(PID.TID 0000.0001)      cg2d_last_res =   5.74903061034529E-08
(PID.TID 0000.0001) // =======================================================
(PID.TID 0000.0001) // Begin MONITOR dynamic field statistics
(PID.TID 0000.0001) // =======================================================
(PID.TID 0000.0001) %MON time_tsnumber                =                 72024
(PID.TID 0000.0001) %MON time_secondsf                =   6.4821600000000E+07
(PID.TID 0000.0001) %MON dynstat_eta_max              =   3.7738500508616E+00
(PID.TID 0000.0001) %MON dynstat_eta_min              =  -4.3917448717785E+00
(PID.TID 0000.0001) %MON dynstat_eta_mean             =   1.8872796738165E-02
(PID.TID 0000.0001) %MON dynstat_eta_sd               =   6.2171276652791E-01
(PID.TID 0000.0001) %MON dynstat_eta_del2             =   3.7891087206745E-03
(PID.TID 0000.0001) %MON dynstat_uvel_max             =   8.1893355482581E-01
(PID.TID 0000.0001) %MON dynstat_uvel_min             =  -6.0401829525327E-01
(PID.TID 0000.0001) %MON dynstat_uvel_mean            =   2.2683937292805E-05
(PID.TID 0000.0001) %MON dynstat_uvel_sd              =   1.3019602472743E-02
(PID.TID 0000.0001) %MON dynstat_uvel_del2            =   9.1852227689714E-05
(PID.TID 0000.0001) %MON dynstat_vvel_max             =   3.2277462923341E-01
(PID.TID 0000.0001) %MON dynstat_vvel_min             =  -9.7146244176560E-01
(PID.TID 0000.0001) %MON dynstat_vvel_mean            =  -4.3582521361040E-04
(PID.TID 0000.0001) %MON dynstat_vvel_sd              =   1.3802664478792E-02
(PID.TID 0000.0001) %MON dynstat_vvel_del2            =   1.0510368288001E-04
(PID.TID 0000.0001) %MON dynstat_wvel_max             =   1.2448979278948E-04
(PID.TID 0000.0001) %MON dynstat_wvel_min             =  -4.4535144630577E-04
(PID.TID 0000.0001) %MON dynstat_wvel_mean            =  -2.7059191544030E-07
(PID.TID 0000.0001) %MON dynstat_wvel_sd              =   9.0268613162596E-06
(PID.TID 0000.0001) %MON dynstat_wvel_del2            =   8.0222443070668E-08
(PID.TID 0000.0001) %MON dynstat_theta_max            =   3.0922348486163E+01
(PID.TID 0000.0001) %MON dynstat_theta_min            =  -3.0062271118518E+00
(PID.TID 0000.0001) %MON dynstat_theta_mean           =   3.9091068463137E+00
(PID.TID 0000.0001) %MON dynstat_theta_sd             =   4.5712835895511E+00
(PID.TID 0000.0001) %MON dynstat_theta_del2           =   2.6465247880137E-03
(PID.TID 0000.0001) %MON dynstat_salt_max             =   4.1359917859386E+01
(PID.TID 0000.0001) %MON dynstat_salt_min             =   1.8518608988527E+01
(PID.TID 0000.0001) %MON dynstat_salt_mean            =   3.4772057074789E+01
(PID.TID 0000.0001) %MON dynstat_salt_sd              =   5.3132096081676E-01
(PID.TID 0000.0001) %MON dynstat_salt_del2            =   8.9338018132846E-04
(PID.TID 0000.0001) %MON dynstat_sst_max              =   3.0922348486163E+01
(PID.TID 0000.0001) %MON dynstat_sst_min              =  -1.8991343751635E+00
(PID.TID 0000.0001) %MON dynstat_sst_mean             =   1.8108052038826E+01
(PID.TID 0000.0001) %MON dynstat_sst_sd               =   9.8078061054317E+00
(PID.TID 0000.0001) %MON dynstat_sst_del2             =   1.5122368620643E-02
(PID.TID 0000.0001) %MON dynstat_sss_max              =   4.1359917859386E+01
(PID.TID 0000.0001) %MON dynstat_sss_min              =   1.8751394622580E+01
(PID.TID 0000.0001) %MON dynstat_sss_mean             =   3.4631862335166E+01
(PID.TID 0000.0001) %MON dynstat_sss_sd               =   1.4665264209703E+00
(PID.TID 0000.0001) %MON dynstat_sss_del2             =   9.4032038151684E-03
(PID.TID 0000.0001) %MON forcing_qnet_max             =   3.0859875589698E+03
(PID.TID 0000.0001) %MON forcing_qnet_min             =  -2.4688642578125E+03
(PID.TID 0000.0001) %MON forcing_qnet_mean            =  -3.2418731694433E+01
(PID.TID 0000.0001) %MON forcing_qnet_sd              =   2.6925014474897E+02
(PID.TID 0000.0001) %MON forcing_qnet_del2            =   7.1954474279173E+00
(PID.TID 0000.0001) %MON forcing_qsw_max              =   0.0000000000000E+00
(PID.TID 0000.0001) %MON forcing_qsw_min              =  -1.1135300947030E+02
(PID.TID 0000.0001) %MON forcing_qsw_mean             =  -1.8246084390295E+01
(PID.TID 0000.0001) %MON forcing_qsw_sd               =   2.6676953982851E+01
(PID.TID 0000.0001) %MON forcing_qsw_del2             =   2.6613790723669E-01
(PID.TID 0000.0001) %MON forcing_empmr_max            =   8.9184604585171E-03
(PID.TID 0000.0001) %MON forcing_empmr_min            =  -1.4421735703945E-01
(PID.TID 0000.0001) %MON forcing_empmr_mean           =  -4.2823924528581E-04
(PID.TID 0000.0001) %MON forcing_empmr_sd             =   6.2170949783256E-03
(PID.TID 0000.0001) %MON forcing_empmr_del2           =   2.5146211880711E-04
(PID.TID 0000.0001) %MON forcing_fu_max               =   5.3190654914203E-01
(PID.TID 0000.0001) %MON forcing_fu_min               =  -4.0410045821597E-01
(PID.TID 0000.0001) %MON forcing_fu_mean              =  -4.2011912611578E-03
(PID.TID 0000.0001) %MON forcing_fu_sd                =   7.1586048696108E-02
(PID.TID 0000.0001) %MON forcing_fu_del2              =   7.0195809534469E-04
(PID.TID 0000.0001) %MON forcing_fv_max               =   3.1870461882459E-01
(PID.TID 0000.0001) %MON forcing_fv_min               =  -3.3425469428180E-01
(PID.TID 0000.0001) %MON forcing_fv_mean              =  -1.1196766176142E-02
(PID.TID 0000.0001) %MON forcing_fv_sd                =   7.0090798902452E-02
(PID.TID 0000.0001) %MON forcing_fv_del2              =   6.1606424655116E-04
(PID.TID 0000.0001) %MON trAdv_CFL_u_max              =   2.7494926950040E-03
(PID.TID 0000.0001) %MON trAdv_CFL_v_max              =   3.1767127067544E-03
(PID.TID 0000.0001) %MON trAdv_CFL_w_max              =   3.1582431879533E-03
(PID.TID 0000.0001) %MON advcfl_uvel_max              =   2.7309522932536E-03
(PID.TID 0000.0001) %MON advcfl_vvel_max              =   3.3194922666038E-03
(PID.TID 0000.0001) %MON advcfl_wvel_max              =   5.0162558970244E-03
(PID.TID 0000.0001) %MON advcfl_W_hf_max              =   3.1582431879533E-03
(PID.TID 0000.0001) %MON pe_b_mean                    =   5.1539698952532E-04
(PID.TID 0000.0001) %MON ke_max                       =   4.6495197184754E-01
(PID.TID 0000.0001) %MON ke_mean                      =   1.6634897898020E-04
(PID.TID 0000.0001) %MON ke_vol                       =   1.3398091774183E+18
(PID.TID 0000.0001) %MON vort_r_min                   =  -6.5754060534617E-06
(PID.TID 0000.0001) %MON vort_r_max                   =   2.9075552062077E-06
(PID.TID 0000.0001) %MON vort_a_mean                  =  -2.0549865324846E-05
(PID.TID 0000.0001) %MON vort_a_sd                    =   7.5259510488358E-05
(PID.TID 0000.0001) %MON vort_p_mean                  =  -2.4783345292212E-05
(PID.TID 0000.0001) %MON vort_p_sd                    =   1.2811910071693E-04
(PID.TID 0000.0001) %MON surfExpan_theta_mean         =  -7.2095201282571E-06
(PID.TID 0000.0001) %MON surfExpan_salt_mean          =   1.3688098852070E-06
(PID.TID 0000.0001) // =======================================================
(PID.TID 0000.0001) // End MONITOR dynamic field statistics
(PID.TID 0000.0001) // =======================================================
 cg2d: Sum(rhs),rhsMax =  -2.10697538309503E+01  7.85862764864016E+01
(PID.TID 0000.0001)      cg2d_init_res =   1.90212307429157E-01
(PID.TID 0000.0001)      cg2d_iters(min,last) =      -1      10
(PID.TID 0000.0001)      cg2d_last_res =   6.59698181164896E-08
(PID.TID 0000.0001) // =======================================================
(PID.TID 0000.0001) // Begin MONITOR dynamic field statistics
(PID.TID 0000.0001) // =======================================================
(PID.TID 0000.0001) %MON time_tsnumber                =                 72025
(PID.TID 0000.0001) %MON time_secondsf                =   6.4822500000000E+07
(PID.TID 0000.0001) %MON dynstat_eta_max              =   3.5904217625615E+00
(PID.TID 0000.0001) %MON dynstat_eta_min              =  -4.3817949699894E+00
(PID.TID 0000.0001) %MON dynstat_eta_mean             =   1.9240100961024E-02
(PID.TID 0000.0001) %MON dynstat_eta_sd               =   6.2207809142997E-01
(PID.TID 0000.0001) %MON dynstat_eta_del2             =   3.7105811269717E-03
(PID.TID 0000.0001) %MON dynstat_uvel_max             =   6.3503555714852E-01
(PID.TID 0000.0001) %MON dynstat_uvel_min             =  -6.2508394204143E-01
(PID.TID 0000.0001) %MON dynstat_uvel_mean            =   1.4387261043138E-05
(PID.TID 0000.0001) %MON dynstat_uvel_sd              =   1.2939971104791E-02
(PID.TID 0000.0001) %MON dynstat_uvel_del2            =   8.9125282272583E-05
(PID.TID 0000.0001) %MON dynstat_vvel_max             =   3.2988652563291E-01
(PID.TID 0000.0001) %MON dynstat_vvel_min             =  -9.6631155113096E-01
(PID.TID 0000.0001) %MON dynstat_vvel_mean            =  -4.3940984367753E-04
(PID.TID 0000.0001) %MON dynstat_vvel_sd              =   1.3852544288901E-02
(PID.TID 0000.0001) %MON dynstat_vvel_del2            =   1.0800989105321E-04
(PID.TID 0000.0001) %MON dynstat_wvel_max             =   1.3875786738925E-04
(PID.TID 0000.0001) %MON dynstat_wvel_min             =  -4.4401966278909E-04
(PID.TID 0000.0001) %MON dynstat_wvel_mean            =  -2.5030679737377E-07
(PID.TID 0000.0001) %MON dynstat_wvel_sd              =   8.8932465835244E-06
(PID.TID 0000.0001) %MON dynstat_wvel_del2            =   7.9090380679453E-08
(PID.TID 0000.0001) %MON dynstat_theta_max            =   3.0922426233669E+01
(PID.TID 0000.0001) %MON dynstat_theta_min            =  -3.0061020281778E+00
(PID.TID 0000.0001) %MON dynstat_theta_mean           =   3.9091106233360E+00
(PID.TID 0000.0001) %MON dynstat_theta_sd             =   4.5712983579514E+00
(PID.TID 0000.0001) %MON dynstat_theta_del2           =   2.6463786034852E-03
(PID.TID 0000.0001) %MON dynstat_salt_max             =   4.1359448881848E+01
(PID.TID 0000.0001) %MON dynstat_salt_min             =   1.8518618941709E+01
(PID.TID 0000.0001) %MON dynstat_salt_mean            =   3.4772052658064E+01
(PID.TID 0000.0001) %MON dynstat_salt_sd              =   5.3134123081103E-01
(PID.TID 0000.0001) %MON dynstat_salt_del2            =   8.9890718993189E-04
(PID.TID 0000.0001) %MON dynstat_sst_max              =   3.0922426233669E+01
(PID.TID 0000.0001) %MON dynstat_sst_min              =  -1.8990746143532E+00
(PID.TID 0000.0001) %MON dynstat_sst_mean             =   1.8108192921002E+01
(PID.TID 0000.0001) %MON dynstat_sst_sd               =   9.8079868810057E+00
(PID.TID 0000.0001) %MON dynstat_sst_del2             =   1.5119125131149E-02
(PID.TID 0000.0001) %MON dynstat_sss_max              =   4.1359448881848E+01
(PID.TID 0000.0001) %MON dynstat_sss_min              =   1.8751395148590E+01
(PID.TID 0000.0001) %MON dynstat_sss_mean             =   3.4631542455432E+01
(PID.TID 0000.0001) %MON dynstat_sss_sd               =   1.4670368519318E+00
(PID.TID 0000.0001) %MON dynstat_sss_del2             =   9.4860225576062E-03
(PID.TID 0000.0001) %MON forcing_qnet_max             =   3.0420480094080E+03
(PID.TID 0000.0001) %MON forcing_qnet_min             =  -2.4621782226562E+03
(PID.TID 0000.0001) %MON forcing_qnet_mean            =  -2.7975334832403E+01
(PID.TID 0000.0001) %MON forcing_qnet_sd              =   2.6413817953404E+02
(PID.TID 0000.0001) %MON forcing_qnet_del2            =   7.0333785112513E+00
(PID.TID 0000.0001) %MON forcing_qsw_max              =   0.0000000000000E+00
(PID.TID 0000.0001) %MON forcing_qsw_min              =  -1.0994157514116E+02
(PID.TID 0000.0001) %MON forcing_qsw_mean             =  -1.7678055052724E+01
(PID.TID 0000.0001) %MON forcing_qsw_sd               =   2.5941311759585E+01
(PID.TID 0000.0001) %MON forcing_qsw_del2             =   2.6488323027293E-01
(PID.TID 0000.0001) %MON forcing_empmr_max            =   8.6518526077271E-03
(PID.TID 0000.0001) %MON forcing_empmr_min            =  -1.4027981460094E-01
(PID.TID 0000.0001) %MON forcing_empmr_mean           =  -4.2239985628807E-04
(PID.TID 0000.0001) %MON forcing_empmr_sd             =   6.1201081062526E-03
(PID.TID 0000.0001) %MON forcing_empmr_del2           =   2.4710475865330E-04
(PID.TID 0000.0001) %MON forcing_fu_max               =   5.0471640674682E-01
(PID.TID 0000.0001) %MON forcing_fu_min               =  -3.9358786153859E-01
(PID.TID 0000.0001) %MON forcing_fu_mean              =  -4.1828203941004E-03
(PID.TID 0000.0001) %MON forcing_fu_sd                =   7.0842285900006E-02
(PID.TID 0000.0001) %MON forcing_fu_del2              =   6.9111572865613E-04
(PID.TID 0000.0001) %MON forcing_fv_max               =   3.1996771270778E-01
(PID.TID 0000.0001) %MON forcing_fv_min               =  -3.2823224658328E-01
(PID.TID 0000.0001) %MON forcing_fv_mean              =  -1.1271407941904E-02
(PID.TID 0000.0001) %MON forcing_fv_sd                =   6.9551890586850E-02
(PID.TID 0000.0001) %MON forcing_fv_del2              =   6.1091077687807E-04
(PID.TID 0000.0001) %MON trAdv_CFL_u_max              =   2.1368495076192E-03
(PID.TID 0000.0001) %MON trAdv_CFL_v_max              =   3.2384514265589E-03
(PID.TID 0000.0001) %MON trAdv_CFL_w_max              =   2.8600475183320E-03
(PID.TID 0000.0001) %MON advcfl_uvel_max              =   2.1176953867291E-03
(PID.TID 0000.0001) %MON advcfl_vvel_max              =   3.3018916462476E-03
(PID.TID 0000.0001) %MON advcfl_wvel_max              =   4.8792978991633E-03
(PID.TID 0000.0001) %MON advcfl_W_hf_max              =   2.8600475183320E-03
(PID.TID 0000.0001) %MON pe_b_mean                    =   5.1602091197686E-04
(PID.TID 0000.0001) %MON ke_max                       =   4.2067430685780E-01
(PID.TID 0000.0001) %MON ke_mean                      =   1.6604071329855E-04
(PID.TID 0000.0001) %MON ke_vol                       =   1.3398093129232E+18
(PID.TID 0000.0001) %MON vort_r_min                   =  -5.8796937649334E-06
(PID.TID 0000.0001) %MON vort_r_max                   =   2.8581012804615E-06
(PID.TID 0000.0001) %MON vort_a_mean                  =  -2.0549865324846E-05
(PID.TID 0000.0001) %MON vort_a_sd                    =   7.5259508494879E-05
(PID.TID 0000.0001) %MON vort_p_mean                  =  -2.4783342711974E-05
(PID.TID 0000.0001) %MON vort_p_sd                    =   1.2811908097772E-04
(PID.TID 0000.0001) %MON surfExpan_theta_mean         =  -7.1663445640517E-06
(PID.TID 0000.0001) %MON surfExpan_salt_mean          =   1.3322378038157E-06
(PID.TID 0000.0001) // =======================================================
(PID.TID 0000.0001) // End MONITOR dynamic field statistics
(PID.TID 0000.0001) // =======================================================
 cg2d: Sum(rhs),rhsMax =  -2.21230586525300E+01  7.62584927707880E+01
(PID.TID 0000.0001)      cg2d_init_res =   1.92570254882095E-01
(PID.TID 0000.0001)      cg2d_iters(min,last) =      -1      10
(PID.TID 0000.0001)      cg2d_last_res =   6.79563566884160E-08
(PID.TID 0000.0001) // =======================================================
(PID.TID 0000.0001) // Begin MONITOR dynamic field statistics
(PID.TID 0000.0001) // =======================================================
(PID.TID 0000.0001) %MON time_tsnumber                =                 72026
(PID.TID 0000.0001) %MON time_secondsf                =   6.4823400000000E+07
(PID.TID 0000.0001) %MON dynstat_eta_max              =   3.3754879100778E+00
(PID.TID 0000.0001) %MON dynstat_eta_min              =  -4.2959689432159E+00
(PID.TID 0000.0001) %MON dynstat_eta_mean             =   1.9603542622537E-02
(PID.TID 0000.0001) %MON dynstat_eta_sd               =   6.2225347622019E-01
(PID.TID 0000.0001) %MON dynstat_eta_del2             =   3.6034263622040E-03
(PID.TID 0000.0001) %MON dynstat_uvel_max             =   4.5567695377317E-01
(PID.TID 0000.0001) %MON dynstat_uvel_min             =  -6.7419543269109E-01
(PID.TID 0000.0001) %MON dynstat_uvel_mean            =   7.4522108892732E-07
(PID.TID 0000.0001) %MON dynstat_uvel_sd              =   1.2878313338171E-02
(PID.TID 0000.0001) %MON dynstat_uvel_del2            =   8.7049890220511E-05
(PID.TID 0000.0001) %MON dynstat_vvel_max             =   3.3552193214578E-01
(PID.TID 0000.0001) %MON dynstat_vvel_min             =  -9.5267278309046E-01
(PID.TID 0000.0001) %MON dynstat_vvel_mean            =  -4.4322747672273E-04
(PID.TID 0000.0001) %MON dynstat_vvel_sd              =   1.3904548830165E-02
(PID.TID 0000.0001) %MON dynstat_vvel_del2            =   1.1137548802375E-04
(PID.TID 0000.0001) %MON dynstat_wvel_max             =   1.5097030037700E-04
(PID.TID 0000.0001) %MON dynstat_wvel_min             =  -4.3315381516032E-04
(PID.TID 0000.0001) %MON dynstat_wvel_mean            =  -2.2959810140107E-07
(PID.TID 0000.0001) %MON dynstat_wvel_sd              =   8.7623977294513E-06
(PID.TID 0000.0001) %MON dynstat_wvel_del2            =   7.7987588172465E-08
(PID.TID 0000.0001) %MON dynstat_theta_max            =   3.0922523193146E+01
(PID.TID 0000.0001) %MON dynstat_theta_min            =  -3.0060216621930E+00
(PID.TID 0000.0001) %MON dynstat_theta_mean           =   3.9091141851545E+00
(PID.TID 0000.0001) %MON dynstat_theta_sd             =   4.5713123846287E+00
(PID.TID 0000.0001) %MON dynstat_theta_del2           =   2.6462337310037E-03
(PID.TID 0000.0001) %MON dynstat_salt_max             =   4.1359017902596E+01
(PID.TID 0000.0001) %MON dynstat_salt_min             =   1.8518628934659E+01
(PID.TID 0000.0001) %MON dynstat_salt_mean            =   3.4772048335334E+01
(PID.TID 0000.0001) %MON dynstat_salt_sd              =   5.3136146661358E-01
(PID.TID 0000.0001) %MON dynstat_salt_del2            =   9.0443688541853E-04
(PID.TID 0000.0001) %MON dynstat_sst_max              =   3.0922523193146E+01
(PID.TID 0000.0001) %MON dynstat_sst_min              =  -1.8990084054963E+00
(PID.TID 0000.0001) %MON dynstat_sst_mean             =   1.8108320857188E+01
(PID.TID 0000.0001) %MON dynstat_sst_sd               =   9.8081633302239E+00
(PID.TID 0000.0001) %MON dynstat_sst_del2             =   1.5115949472899E-02
(PID.TID 0000.0001) %MON dynstat_sss_max              =   4.1359017902596E+01
(PID.TID 0000.0001) %MON dynstat_sss_min              =   1.8751395628037E+01
(PID.TID 0000.0001) %MON dynstat_sss_mean             =   3.4631229684977E+01
(PID.TID 0000.0001) %MON dynstat_sss_sd               =   1.4675467222891E+00
(PID.TID 0000.0001) %MON dynstat_sss_del2             =   9.5686766847980E-03
(PID.TID 0000.0001) %MON forcing_qnet_max             =   3.0001830772163E+03
(PID.TID 0000.0001) %MON forcing_qnet_min             =  -2.4800478515625E+03
(PID.TID 0000.0001) %MON forcing_qnet_mean            =  -2.4572420805939E+01
(PID.TID 0000.0001) %MON forcing_qnet_sd              =   2.6110046512072E+02
(PID.TID 0000.0001) %MON forcing_qnet_del2            =   6.7764253780807E+00
(PID.TID 0000.0001) %MON forcing_qsw_max              =   0.0000000000000E+00
(PID.TID 0000.0001) %MON forcing_qsw_min              =  -1.0949369493983E+02
(PID.TID 0000.0001) %MON forcing_qsw_mean             =  -1.7473890382418E+01
(PID.TID 0000.0001) %MON forcing_qsw_sd               =   2.5686526604773E+01
(PID.TID 0000.0001) %MON forcing_qsw_del2             =   2.6411047923866E-01
(PID.TID 0000.0001) %MON forcing_empmr_max            =   8.5626496002078E-03
(PID.TID 0000.0001) %MON forcing_empmr_min            =  -1.3586662709713E-01
(PID.TID 0000.0001) %MON forcing_empmr_mean           =  -4.1795791073994E-04
(PID.TID 0000.0001) %MON forcing_empmr_sd             =   6.0207626424542E-03
(PID.TID 0000.0001) %MON forcing_empmr_del2           =   2.4265861257743E-04
(PID.TID 0000.0001) %MON forcing_fu_max               =   4.8504854028316E-01
(PID.TID 0000.0001) %MON forcing_fu_min               =  -3.8743408460092E-01
(PID.TID 0000.0001) %MON forcing_fu_mean              =  -4.1798105160263E-03
(PID.TID 0000.0001) %MON forcing_fu_sd                =   7.0110213826009E-02
(PID.TID 0000.0001) %MON forcing_fu_del2              =   6.8246867914593E-04
(PID.TID 0000.0001) %MON forcing_fv_max               =   3.1819837094979E-01
(PID.TID 0000.0001) %MON forcing_fv_min               =  -3.2119588601360E-01
(PID.TID 0000.0001) %MON forcing_fv_mean              =  -1.1363668358337E-02
(PID.TID 0000.0001) %MON forcing_fv_sd                =   6.9004619788021E-02
(PID.TID 0000.0001) %MON forcing_fv_del2              =   6.0507317737420E-04
(PID.TID 0000.0001) %MON trAdv_CFL_u_max              =   1.9825236320019E-03
(PID.TID 0000.0001) %MON trAdv_CFL_v_max              =   3.7114936659994E-03
(PID.TID 0000.0001) %MON trAdv_CFL_w_max              =   2.5713734197267E-03
(PID.TID 0000.0001) %MON advcfl_uvel_max              =   1.9843169750674E-03
(PID.TID 0000.0001) %MON advcfl_vvel_max              =   3.2339490173624E-03
(PID.TID 0000.0001) %MON advcfl_wvel_max              =   4.7257957251176E-03
(PID.TID 0000.0001) %MON advcfl_W_hf_max              =   2.5713734197267E-03
(PID.TID 0000.0001) %MON pe_b_mean                    =   5.1633039765359E-04
(PID.TID 0000.0001) %MON ke_max                       =   3.8353503433920E-01
(PID.TID 0000.0001) %MON ke_mean                      =   1.6598067775402E-04
(PID.TID 0000.0001) %MON ke_vol                       =   1.3398094465803E+18
(PID.TID 0000.0001) %MON vort_r_min                   =  -5.3376410321869E-06
(PID.TID 0000.0001) %MON vort_r_max                   =   2.7909863575528E-06
(PID.TID 0000.0001) %MON vort_a_mean                  =  -2.0549865324846E-05
(PID.TID 0000.0001) %MON vort_a_sd                    =   7.5259506305624E-05
(PID.TID 0000.0001) %MON vort_p_mean                  =  -2.4783340207132E-05
(PID.TID 0000.0001) %MON vort_p_sd                    =   1.2811906109833E-04
(PID.TID 0000.0001) %MON surfExpan_theta_mean         =  -7.1494594421974E-06
(PID.TID 0000.0001) %MON surfExpan_salt_mean          =   1.2965562896070E-06
(PID.TID 0000.0001) // =======================================================
(PID.TID 0000.0001) // End MONITOR dynamic field statistics
(PID.TID 0000.0001) // =======================================================
 cg2d: Sum(rhs),rhsMax =  -2.33821573416544E+01  7.34678855884684E+01
(PID.TID 0000.0001)      cg2d_init_res =   1.99554757160324E-01
(PID.TID 0000.0001)      cg2d_iters(min,last) =      -1      10
(PID.TID 0000.0001)      cg2d_last_res =   6.91156963113273E-08
(PID.TID 0000.0001) // =======================================================
(PID.TID 0000.0001) // Begin MONITOR dynamic field statistics
(PID.TID 0000.0001) // =======================================================
(PID.TID 0000.0001) %MON time_tsnumber                =                 72027
(PID.TID 0000.0001) %MON time_secondsf                =   6.4824300000000E+07
(PID.TID 0000.0001) %MON dynstat_eta_max              =   3.1331266792097E+00
(PID.TID 0000.0001) %MON dynstat_eta_min              =  -4.1380460341444E+00
(PID.TID 0000.0001) %MON dynstat_eta_mean             =   1.9961045878808E-02
(PID.TID 0000.0001) %MON dynstat_eta_sd               =   6.2224157804927E-01
(PID.TID 0000.0001) %MON dynstat_eta_del2             =   3.4708417488712E-03
(PID.TID 0000.0001) %MON dynstat_uvel_max             =   4.1926974243450E-01
(PID.TID 0000.0001) %MON dynstat_uvel_min             =  -7.2176477311086E-01
(PID.TID 0000.0001) %MON dynstat_uvel_mean            =  -1.8027161284970E-05
(PID.TID 0000.0001) %MON dynstat_uvel_sd              =   1.2836318292698E-02
(PID.TID 0000.0001) %MON dynstat_uvel_del2            =   8.5611937171678E-05
(PID.TID 0000.0001) %MON dynstat_vvel_max             =   4.7389346460292E-01
(PID.TID 0000.0001) %MON dynstat_vvel_min             =  -9.5260522641934E-01
(PID.TID 0000.0001) %MON dynstat_vvel_mean            =  -4.4670529757166E-04
(PID.TID 0000.0001) %MON dynstat_vvel_sd              =   1.3954973915256E-02
(PID.TID 0000.0001) %MON dynstat_vvel_del2            =   1.1486467919929E-04
(PID.TID 0000.0001) %MON dynstat_wvel_max             =   1.6122028398656E-04
(PID.TID 0000.0001) %MON dynstat_wvel_min             =  -4.1491568689005E-04
(PID.TID 0000.0001) %MON dynstat_wvel_mean            =  -2.0663607634436E-07
(PID.TID 0000.0001) %MON dynstat_wvel_sd              =   8.6541283468180E-06
(PID.TID 0000.0001) %MON dynstat_wvel_del2            =   7.7015749391091E-08
(PID.TID 0000.0001) %MON dynstat_theta_max            =   3.0922637108607E+01
(PID.TID 0000.0001) %MON dynstat_theta_min            =  -3.0059717180177E+00
(PID.TID 0000.0001) %MON dynstat_theta_mean           =   3.9091174234007E+00
(PID.TID 0000.0001) %MON dynstat_theta_sd             =   4.5713251790169E+00
(PID.TID 0000.0001) %MON dynstat_theta_del2           =   2.6461062157740E-03
(PID.TID 0000.0001) %MON dynstat_salt_max             =   4.1358621600291E+01
(PID.TID 0000.0001) %MON dynstat_salt_min             =   1.8518638972380E+01
(PID.TID 0000.0001) %MON dynstat_salt_mean            =   3.4772044076033E+01
(PID.TID 0000.0001) %MON dynstat_salt_sd              =   5.3138124274477E-01
(PID.TID 0000.0001) %MON dynstat_salt_del2            =   9.0996267619424E-04
(PID.TID 0000.0001) %MON dynstat_sst_max              =   3.0922637108607E+01
(PID.TID 0000.0001) %MON dynstat_sst_min              =  -1.9000414943610E+00
(PID.TID 0000.0001) %MON dynstat_sst_mean             =   1.8108420835951E+01
(PID.TID 0000.0001) %MON dynstat_sst_sd               =   9.8083463172879E+00
(PID.TID 0000.0001) %MON dynstat_sst_del2             =   1.5113250763771E-02
(PID.TID 0000.0001) %MON dynstat_sss_max              =   4.1358621600291E+01
(PID.TID 0000.0001) %MON dynstat_sss_min              =   1.8751396050026E+01
(PID.TID 0000.0001) %MON dynstat_sss_mean             =   3.4630921387987E+01
(PID.TID 0000.0001) %MON dynstat_sss_sd               =   1.4680446706414E+00
(PID.TID 0000.0001) %MON dynstat_sss_del2             =   9.6510718310320E-03
(PID.TID 0000.0001) %MON forcing_qnet_max             =   1.4709175781250E+04
(PID.TID 0000.0001) %MON forcing_qnet_min             =  -1.0289541015625E+04
(PID.TID 0000.0001) %MON forcing_qnet_mean            =  -1.9657207440144E+01
(PID.TID 0000.0001) %MON forcing_qnet_sd              =   3.6164607911454E+02
(PID.TID 0000.0001) %MON forcing_qnet_del2            =   1.1327775136339E+01
(PID.TID 0000.0001) %MON forcing_qsw_max              =   0.0000000000000E+00
(PID.TID 0000.0001) %MON forcing_qsw_min              =  -1.0859097420419E+02
(PID.TID 0000.0001) %MON forcing_qsw_mean             =  -1.7225283213393E+01
(PID.TID 0000.0001) %MON forcing_qsw_sd               =   2.5416404621245E+01
(PID.TID 0000.0001) %MON forcing_qsw_del2             =   2.6253799911937E-01
(PID.TID 0000.0001) %MON forcing_empmr_max            =   8.4743816405535E-03
(PID.TID 0000.0001) %MON forcing_empmr_min            =  -1.3129930198193E-01
(PID.TID 0000.0001) %MON forcing_empmr_mean           =  -4.1112874471176E-04
(PID.TID 0000.0001) %MON forcing_empmr_sd             =   5.9181096531933E-03
(PID.TID 0000.0001) %MON forcing_empmr_del2           =   2.3798724303686E-04
(PID.TID 0000.0001) %MON forcing_fu_max               =   4.6795874540153E-01
(PID.TID 0000.0001) %MON forcing_fu_min               =  -3.8374410183636E-01
(PID.TID 0000.0001) %MON forcing_fu_mean              =  -4.1698524480087E-03
(PID.TID 0000.0001) %MON forcing_fu_sd                =   6.9475723867646E-02
(PID.TID 0000.0001) %MON forcing_fu_del2              =   6.7453249178908E-04
(PID.TID 0000.0001) %MON forcing_fv_max               =   3.2005468774370E-01
(PID.TID 0000.0001) %MON forcing_fv_min               =  -3.1520944387813E-01
(PID.TID 0000.0001) %MON forcing_fv_mean              =  -1.1428651108641E-02
(PID.TID 0000.0001) %MON forcing_fv_sd                =   6.8592508875407E-02
(PID.TID 0000.0001) %MON forcing_fv_del2              =   6.0078777819987E-04
(PID.TID 0000.0001) %MON trAdv_CFL_u_max              =   2.1228942579388E-03
(PID.TID 0000.0001) %MON trAdv_CFL_v_max              =   4.1316098081066E-03
(PID.TID 0000.0001) %MON trAdv_CFL_w_max              =   2.2967650830205E-03
(PID.TID 0000.0001) %MON advcfl_uvel_max              =   2.1243248201382E-03
(PID.TID 0000.0001) %MON advcfl_vvel_max              =   3.1173855306035E-03
(PID.TID 0000.0001) %MON advcfl_wvel_max              =   4.5669322428496E-03
(PID.TID 0000.0001) %MON advcfl_W_hf_max              =   2.2967650830205E-03
(PID.TID 0000.0001) %MON pe_b_mean                    =   5.1632946379203E-04
(PID.TID 0000.0001) %MON ke_max                       =   3.9119189370584E-01
(PID.TID 0000.0001) %MON ke_mean                      =   1.6613802800618E-04
(PID.TID 0000.0001) %MON ke_vol                       =   1.3398095788319E+18
(PID.TID 0000.0001) %MON vort_r_min                   =  -5.4942076151181E-06
(PID.TID 0000.0001) %MON vort_r_max                   =   2.7074628779847E-06
(PID.TID 0000.0001) %MON vort_a_mean                  =  -2.0549865324846E-05
(PID.TID 0000.0001) %MON vort_a_sd                    =   7.5259504081664E-05
(PID.TID 0000.0001) %MON vort_p_mean                  =  -2.4783337767378E-05
(PID.TID 0000.0001) %MON vort_p_sd                    =   1.2811904284659E-04
(PID.TID 0000.0001) %MON surfExpan_theta_mean         =  -7.0956111797075E-06
(PID.TID 0000.0001) %MON surfExpan_salt_mean          =   1.2595502913600E-06
(PID.TID 0000.0001) // =======================================================
(PID.TID 0000.0001) // End MONITOR dynamic field statistics
(PID.TID 0000.0001) // =======================================================
 Computing Diagnostic #     81  oceTAUX      Counter:       1   Parms: UU      U1      
           Vector  Mate for  oceTAUX      Diagnostic #     82  oceTAUY  exists 
 Computing Diagnostic #     82  oceTAUY      Counter:       1   Parms: VV      U1      
           Vector  Mate for  oceTAUY      Diagnostic #     81  oceTAUX  exists 
 Computing Diagnostic #     85  oceFWflx     Counter:       1   Parms: SM      U1      
 Computing Diagnostic #     86  oceSflux     Counter:       1   Parms: SM      U1      
 Computing Diagnostic #     87  oceQnet      Counter:       1   Parms: SM      U1      
 Computing Diagnostic #     88  oceQsw       Counter:       1   Parms: SM      U1      
 Computing Diagnostic #     27  SALT         Counter:       1   Parms: SMR     MR      
 Computing Diagnostic #     26  THETA        Counter:       1   Parms: SMR     MR      
 Computing Diagnostic #     45  UVELMASS     Counter:       1   Parms: UUr     MR      
           Vector  Mate for  UVELMASS     Diagnostic #     46  VVELMASS exists 
 Computing Diagnostic #     46  VVELMASS     Counter:       1   Parms: VVr     MR      
           Vector  Mate for  VVELMASS     Diagnostic #     45  UVELMASS exists 
 Computing Diagnostic #     83  atmPload     Counter:       1   Parms: SM      U1      
 cg2d: Sum(rhs),rhsMax =  -2.51586530411555E+01  6.94816153865195E+01
(PID.TID 0000.0001)      cg2d_init_res =   2.14125173820792E-01
(PID.TID 0000.0001)      cg2d_iters(min,last) =      -1      10
(PID.TID 0000.0001)      cg2d_last_res =   7.24839184581201E-08
(PID.TID 0000.0001) // =======================================================
(PID.TID 0000.0001) // Begin MONITOR dynamic field statistics
(PID.TID 0000.0001) // =======================================================
(PID.TID 0000.0001) %MON time_tsnumber                =                 72028
(PID.TID 0000.0001) %MON time_secondsf                =   6.4825200000000E+07
(PID.TID 0000.0001) %MON dynstat_eta_max              =   2.8677438909221E+00
(PID.TID 0000.0001) %MON dynstat_eta_min              =  -3.9129159994927E+00
(PID.TID 0000.0001) %MON dynstat_eta_mean             =   2.0312270244357E-02
(PID.TID 0000.0001) %MON dynstat_eta_sd               =   6.2205956971211E-01
(PID.TID 0000.0001) %MON dynstat_eta_del2             =   3.3173396651053E-03
(PID.TID 0000.0001) %MON dynstat_uvel_max             =   4.0146615190826E-01
(PID.TID 0000.0001) %MON dynstat_uvel_min             =  -7.6699784701383E-01
(PID.TID 0000.0001) %MON dynstat_uvel_mean            =  -4.1546375765096E-05
(PID.TID 0000.0001) %MON dynstat_uvel_sd              =   1.2814048848960E-02
(PID.TID 0000.0001) %MON dynstat_uvel_del2            =   8.4750878340577E-05
(PID.TID 0000.0001) %MON dynstat_vvel_max             =   6.0853376703142E-01
(PID.TID 0000.0001) %MON dynstat_vvel_min             =  -9.4338859748740E-01
(PID.TID 0000.0001) %MON dynstat_vvel_mean            =  -4.4921095618702E-04
(PID.TID 0000.0001) %MON dynstat_vvel_sd              =   1.4000147904685E-02
(PID.TID 0000.0001) %MON dynstat_vvel_del2            =   1.1821490251610E-04
(PID.TID 0000.0001) %MON dynstat_wvel_max             =   1.6968560203927E-04
(PID.TID 0000.0001) %MON dynstat_wvel_min             =  -3.9295266951447E-04
(PID.TID 0000.0001) %MON dynstat_wvel_mean            =  -1.8302967934676E-07
(PID.TID 0000.0001) %MON dynstat_wvel_sd              =   8.5777364133026E-06
(PID.TID 0000.0001) %MON dynstat_wvel_del2            =   7.6217784684742E-08
(PID.TID 0000.0001) %MON dynstat_theta_max            =   3.0922768067333E+01
(PID.TID 0000.0001) %MON dynstat_theta_min            =  -3.0059382316497E+00
(PID.TID 0000.0001) %MON dynstat_theta_mean           =   3.9091204778602E+00
(PID.TID 0000.0001) %MON dynstat_theta_sd             =   4.5713375207237E+00
(PID.TID 0000.0001) %MON dynstat_theta_del2           =   2.6459666755902E-03
(PID.TID 0000.0001) %MON dynstat_salt_max             =   4.1358255309356E+01
(PID.TID 0000.0001) %MON dynstat_salt_min             =   1.8518649058951E+01
(PID.TID 0000.0001) %MON dynstat_salt_mean            =   3.4772039940359E+01
(PID.TID 0000.0001) %MON dynstat_salt_sd              =   5.3140136135208E-01
(PID.TID 0000.0001) %MON dynstat_salt_del2            =   9.1547404105841E-04
(PID.TID 0000.0001) %MON dynstat_sst_max              =   3.0922768067333E+01
(PID.TID 0000.0001) %MON dynstat_sst_min              =  -1.9038937547015E+00
(PID.TID 0000.0001) %MON dynstat_sst_mean             =   1.8108518051709E+01
(PID.TID 0000.0001) %MON dynstat_sst_sd               =   9.8085171897872E+00
(PID.TID 0000.0001) %MON dynstat_sst_del2             =   1.5110295088413E-02
(PID.TID 0000.0001) %MON dynstat_sss_max              =   4.1358255309356E+01
(PID.TID 0000.0001) %MON dynstat_sss_min              =   1.8751396556250E+01
(PID.TID 0000.0001) %MON dynstat_sss_mean             =   3.4630622773448E+01
(PID.TID 0000.0001) %MON dynstat_sss_sd               =   1.4685521518157E+00
(PID.TID 0000.0001) %MON dynstat_sss_del2             =   9.7330562523479E-03
(PID.TID 0000.0001) %MON forcing_qnet_max             =   2.9181254076896E+03
(PID.TID 0000.0001) %MON forcing_qnet_min             =  -2.3831467285156E+03
(PID.TID 0000.0001) %MON forcing_qnet_mean            =  -1.6943048210142E+01
(PID.TID 0000.0001) %MON forcing_qnet_sd              =   2.4969822774671E+02
(PID.TID 0000.0001) %MON forcing_qnet_del2            =   6.2158089224238E+00
(PID.TID 0000.0001) %MON forcing_qsw_max              =   0.0000000000000E+00
(PID.TID 0000.0001) %MON forcing_qsw_min              =  -1.0723723213805E+02
(PID.TID 0000.0001) %MON forcing_qsw_mean             =  -1.6930805813901E+01
(PID.TID 0000.0001) %MON forcing_qsw_sd               =   2.5135557692273E+01
(PID.TID 0000.0001) %MON forcing_qsw_del2             =   2.6018277927043E-01
(PID.TID 0000.0001) %MON forcing_empmr_max            =   8.3870477974415E-03
(PID.TID 0000.0001) %MON forcing_empmr_min            =  -1.2645635008812E-01
(PID.TID 0000.0001) %MON forcing_empmr_mean           =  -4.0390802038080E-04
(PID.TID 0000.0001) %MON forcing_empmr_sd             =   5.8085658791503E-03
(PID.TID 0000.0001) %MON forcing_empmr_del2           =   2.3288043062473E-04
(PID.TID 0000.0001) %MON forcing_fu_max               =   4.5290671136469E-01
(PID.TID 0000.0001) %MON forcing_fu_min               =  -3.7970173964843E-01
(PID.TID 0000.0001) %MON forcing_fu_mean              =  -4.1690961091113E-03
(PID.TID 0000.0001) %MON forcing_fu_sd                =   6.8815717999032E-02
(PID.TID 0000.0001) %MON forcing_fu_del2              =   6.6747030049171E-04
(PID.TID 0000.0001) %MON forcing_fv_max               =   3.1839792264090E-01
(PID.TID 0000.0001) %MON forcing_fv_min               =  -3.1028471400142E-01
(PID.TID 0000.0001) %MON forcing_fv_mean              =  -1.1504633904382E-02
(PID.TID 0000.0001) %MON forcing_fv_sd                =   6.8216805723058E-02
(PID.TID 0000.0001) %MON forcing_fv_del2              =   5.9670443252817E-04
(PID.TID 0000.0001) %MON trAdv_CFL_u_max              =   2.2568864223118E-03
(PID.TID 0000.0001) %MON trAdv_CFL_v_max              =   4.4937140243547E-03
(PID.TID 0000.0001) %MON trAdv_CFL_w_max              =   2.0775658070015E-03
(PID.TID 0000.0001) %MON advcfl_uvel_max              =   2.2574564790430E-03
(PID.TID 0000.0001) %MON advcfl_vvel_max              =   2.9547901365456E-03
(PID.TID 0000.0001) %MON advcfl_wvel_max              =   4.3984817421955E-03
(PID.TID 0000.0001) %MON advcfl_W_hf_max              =   2.0405534457118E-03
(PID.TID 0000.0001) %MON pe_b_mean                    =   5.1604655477473E-04
(PID.TID 0000.0001) %MON ke_max                       =   4.0057465108754E-01
(PID.TID 0000.0001) %MON ke_mean                      =   1.6646327991802E-04
(PID.TID 0000.0001) %MON ke_vol                       =   1.3398097089226E+18
(PID.TID 0000.0001) %MON vort_r_min                   =  -5.6131538787730E-06
(PID.TID 0000.0001) %MON vort_r_max                   =   2.6090455094882E-06
(PID.TID 0000.0001) %MON vort_a_mean                  =  -2.0549865324846E-05
(PID.TID 0000.0001) %MON vort_a_sd                    =   7.5259502001168E-05
(PID.TID 0000.0001) %MON vort_p_mean                  =  -2.4783335406147E-05
(PID.TID 0000.0001) %MON vort_p_sd                    =   1.2811902780761E-04
(PID.TID 0000.0001) %MON surfExpan_theta_mean         =  -7.0528308880253E-06
(PID.TID 0000.0001) %MON surfExpan_salt_mean          =   1.2209846496802E-06
(PID.TID 0000.0001) // =======================================================
(PID.TID 0000.0001) // End MONITOR dynamic field statistics
(PID.TID 0000.0001) // =======================================================
 cg2d: Sum(rhs),rhsMax =  -2.76043328589732E+01  6.43999135878030E+01
(PID.TID 0000.0001)      cg2d_init_res =   2.37002544931247E-01
(PID.TID 0000.0001)      cg2d_iters(min,last) =      -1      10
(PID.TID 0000.0001)      cg2d_last_res =   7.85156781492760E-08
(PID.TID 0000.0001) // =======================================================
(PID.TID 0000.0001) // Begin MONITOR dynamic field statistics
(PID.TID 0000.0001) // =======================================================
(PID.TID 0000.0001) %MON time_tsnumber                =                 72029
(PID.TID 0000.0001) %MON time_secondsf                =   6.4826100000000E+07
(PID.TID 0000.0001) %MON dynstat_eta_max              =   2.5839718874925E+00
(PID.TID 0000.0001) %MON dynstat_eta_min              =  -3.6262673106241E+00
(PID.TID 0000.0001) %MON dynstat_eta_mean             =   2.0656831808809E-02
(PID.TID 0000.0001) %MON dynstat_eta_sd               =   6.2173829878396E-01
(PID.TID 0000.0001) %MON dynstat_eta_del2             =   3.1486683158267E-03
(PID.TID 0000.0001) %MON dynstat_uvel_max             =   3.9250076078264E-01
(PID.TID 0000.0001) %MON dynstat_uvel_min             =  -8.0909685125708E-01
(PID.TID 0000.0001) %MON dynstat_uvel_mean            =  -6.9260507146465E-05
(PID.TID 0000.0001) %MON dynstat_uvel_sd              =   1.2810038817087E-02
(PID.TID 0000.0001) %MON dynstat_uvel_del2            =   8.4369316320981E-05
(PID.TID 0000.0001) %MON dynstat_vvel_max             =   7.2943463007426E-01
(PID.TID 0000.0001) %MON dynstat_vvel_min             =  -9.6388688185459E-01
(PID.TID 0000.0001) %MON dynstat_vvel_mean            =  -4.5008744627600E-04
(PID.TID 0000.0001) %MON dynstat_vvel_sd              =   1.4036657415553E-02
(PID.TID 0000.0001) %MON dynstat_vvel_del2            =   1.2123389537726E-04
(PID.TID 0000.0001) %MON dynstat_wvel_max             =   1.7658002560955E-04
(PID.TID 0000.0001) %MON dynstat_wvel_min             =  -3.6760516788215E-04
(PID.TID 0000.0001) %MON dynstat_wvel_mean            =  -1.5912888675254E-07
(PID.TID 0000.0001) %MON dynstat_wvel_sd              =   8.5320519694996E-06
(PID.TID 0000.0001) %MON dynstat_wvel_del2            =   7.5584801523867E-08
(PID.TID 0000.0001) %MON dynstat_theta_max            =   3.0922915535796E+01
(PID.TID 0000.0001) %MON dynstat_theta_min            =  -3.0059089390919E+00
(PID.TID 0000.0001) %MON dynstat_theta_mean           =   3.9091231959476E+00
(PID.TID 0000.0001) %MON dynstat_theta_sd             =   4.5713486093068E+00
(PID.TID 0000.0001) %MON dynstat_theta_del2           =   2.6458290937358E-03
(PID.TID 0000.0001) %MON dynstat_salt_max             =   4.1357886768330E+01
(PID.TID 0000.0001) %MON dynstat_salt_min             =   1.8518659197618E+01
(PID.TID 0000.0001) %MON dynstat_salt_mean            =   3.4772035883237E+01
(PID.TID 0000.0001) %MON dynstat_salt_sd              =   5.3142138239628E-01
(PID.TID 0000.0001) %MON dynstat_salt_del2            =   9.2096642290888E-04
(PID.TID 0000.0001) %MON dynstat_sst_max              =   3.0922915535796E+01
(PID.TID 0000.0001) %MON dynstat_sst_min              =  -1.8987641764485E+00
(PID.TID 0000.0001) %MON dynstat_sst_mean             =   1.8108594894227E+01
(PID.TID 0000.0001) %MON dynstat_sst_sd               =   9.8086756903968E+00
(PID.TID 0000.0001) %MON dynstat_sst_del2             =   1.5107421292549E-02
(PID.TID 0000.0001) %MON dynstat_sss_max              =   4.1357886768330E+01
(PID.TID 0000.0001) %MON dynstat_sss_min              =   1.8751397156485E+01
(PID.TID 0000.0001) %MON dynstat_sss_mean             =   3.4630330184845E+01
(PID.TID 0000.0001) %MON dynstat_sss_sd               =   1.4690571402167E+00
(PID.TID 0000.0001) %MON dynstat_sss_del2             =   9.8145639672646E-03
(PID.TID 0000.0001) %MON forcing_qnet_max             =   2.8765983975586E+03
(PID.TID 0000.0001) %MON forcing_qnet_min             =  -2.2657458496094E+03
(PID.TID 0000.0001) %MON forcing_qnet_mean            =  -1.1362252721813E+01
(PID.TID 0000.0001) %MON forcing_qnet_sd              =   2.4821858821042E+02
(PID.TID 0000.0001) %MON forcing_qnet_del2            =   6.2299206404008E+00
(PID.TID 0000.0001) %MON forcing_qsw_max              =   0.0000000000000E+00
(PID.TID 0000.0001) %MON forcing_qsw_min              =  -1.0509526039325E+02
(PID.TID 0000.0001) %MON forcing_qsw_mean             =  -1.6407327305803E+01
(PID.TID 0000.0001) %MON forcing_qsw_sd               =   2.4806286892433E+01
(PID.TID 0000.0001) %MON forcing_qsw_del2             =   2.5657924958288E-01
(PID.TID 0000.0001) %MON forcing_empmr_max            =   8.3005512133241E-03
(PID.TID 0000.0001) %MON forcing_empmr_min            =  -1.2159850448370E-01
(PID.TID 0000.0001) %MON forcing_empmr_mean           =  -3.9624579912006E-04
(PID.TID 0000.0001) %MON forcing_empmr_sd             =   5.6896571672357E-03
(PID.TID 0000.0001) %MON forcing_empmr_del2           =   2.2712369025452E-04
(PID.TID 0000.0001) %MON forcing_fu_max               =   4.3819300126463E-01
(PID.TID 0000.0001) %MON forcing_fu_min               =  -3.7612614525044E-01
(PID.TID 0000.0001) %MON forcing_fu_mean              =  -4.1764072141424E-03
(PID.TID 0000.0001) %MON forcing_fu_sd                =   6.8194462543211E-02
(PID.TID 0000.0001) %MON forcing_fu_del2              =   6.6090376397771E-04
(PID.TID 0000.0001) %MON forcing_fv_max               =   3.1746301561428E-01
(PID.TID 0000.0001) %MON forcing_fv_min               =  -3.0656134069879E-01
(PID.TID 0000.0001) %MON forcing_fv_mean              =  -1.1611968639799E-02
(PID.TID 0000.0001) %MON forcing_fv_sd                =   6.7781401323132E-02
(PID.TID 0000.0001) %MON forcing_fv_del2              =   5.9200398987572E-04
(PID.TID 0000.0001) %MON trAdv_CFL_u_max              =   2.3822332175658E-03
(PID.TID 0000.0001) %MON trAdv_CFL_v_max              =   4.7937208709814E-03
(PID.TID 0000.0001) %MON trAdv_CFL_w_max              =   2.0260096476703E-03
(PID.TID 0000.0001) %MON advcfl_uvel_max              =   2.3813638280143E-03
(PID.TID 0000.0001) %MON advcfl_vvel_max              =   3.1455144927453E-03
(PID.TID 0000.0001) %MON advcfl_wvel_max              =   4.2295131994330E-03
(PID.TID 0000.0001) %MON advcfl_W_hf_max              =   1.9923708771262E-03
(PID.TID 0000.0001) %MON pe_b_mean                    =   5.1553297816233E-04
(PID.TID 0000.0001) %MON ke_max                       =   4.0557321486984E-01
(PID.TID 0000.0001) %MON ke_mean                      =   1.6689282810787E-04
(PID.TID 0000.0001) %MON ke_vol                       =   1.3398098367285E+18
(PID.TID 0000.0001) %MON vort_r_min                   =  -5.6918905084599E-06
(PID.TID 0000.0001) %MON vort_r_max                   =   2.4974849158702E-06
(PID.TID 0000.0001) %MON vort_a_mean                  =  -2.0549865324846E-05
(PID.TID 0000.0001) %MON vort_a_sd                    =   7.5259500256562E-05
(PID.TID 0000.0001) %MON vort_p_mean                  =  -2.4783333123391E-05
(PID.TID 0000.0001) %MON vort_p_sd                    =   1.2811901713247E-04
(PID.TID 0000.0001) %MON surfExpan_theta_mean         =  -7.0207509099780E-06
(PID.TID 0000.0001) %MON surfExpan_salt_mean          =   1.1818842471992E-06
(PID.TID 0000.0001) // =======================================================
(PID.TID 0000.0001) // End MONITOR dynamic field statistics
(PID.TID 0000.0001) // =======================================================
 cg2d: Sum(rhs),rhsMax =  -3.09688234919230E+01  5.83392902120236E+01
(PID.TID 0000.0001)      cg2d_init_res =   2.69223495692507E-01
(PID.TID 0000.0001)      cg2d_iters(min,last) =      -1      10
(PID.TID 0000.0001)      cg2d_last_res =   8.67364065990464E-08
(PID.TID 0000.0001) // =======================================================
(PID.TID 0000.0001) // Begin MONITOR dynamic field statistics
(PID.TID 0000.0001) // =======================================================
(PID.TID 0000.0001) %MON time_tsnumber                =                 72030
(PID.TID 0000.0001) %MON time_secondsf                =   6.4827000000000E+07
(PID.TID 0000.0001) %MON dynstat_eta_max              =   2.2865715046861E+00
(PID.TID 0000.0001) %MON dynstat_eta_min              =  -3.2846827654491E+00
(PID.TID 0000.0001) %MON dynstat_eta_mean             =   2.0993604970444E-02
(PID.TID 0000.0001) %MON dynstat_eta_sd               =   6.2131748423077E-01
(PID.TID 0000.0001) %MON dynstat_eta_del2             =   2.9714996665625E-03
(PID.TID 0000.0001) %MON dynstat_uvel_max             =   3.7968162642546E-01
(PID.TID 0000.0001) %MON dynstat_uvel_min             =  -8.4728131589555E-01
(PID.TID 0000.0001) %MON dynstat_uvel_mean            =  -1.0046539459190E-04
(PID.TID 0000.0001) %MON dynstat_uvel_sd              =   1.2821471739281E-02
(PID.TID 0000.0001) %MON dynstat_uvel_del2            =   8.4350057806288E-05
(PID.TID 0000.0001) %MON dynstat_vvel_max             =   8.3543685423977E-01
(PID.TID 0000.0001) %MON dynstat_vvel_min             =  -1.0414753798409E+00
(PID.TID 0000.0001) %MON dynstat_vvel_mean            =  -4.4867059258198E-04
(PID.TID 0000.0001) %MON dynstat_vvel_sd              =   1.4061780595349E-02
(PID.TID 0000.0001) %MON dynstat_vvel_del2            =   1.2379072321271E-04
(PID.TID 0000.0001) %MON dynstat_wvel_max             =   1.8211462105183E-04
(PID.TID 0000.0001) %MON dynstat_wvel_min             =  -3.4086565584601E-04
(PID.TID 0000.0001) %MON dynstat_wvel_mean            =  -1.3483155785071E-07
(PID.TID 0000.0001) %MON dynstat_wvel_sd              =   8.5081423918001E-06
(PID.TID 0000.0001) %MON dynstat_wvel_del2            =   7.5097278882256E-08
(PID.TID 0000.0001) %MON dynstat_theta_max            =   3.0923077908700E+01
(PID.TID 0000.0001) %MON dynstat_theta_min            =  -3.0058740815852E+00
(PID.TID 0000.0001) %MON dynstat_theta_mean           =   3.9091256338377E+00
(PID.TID 0000.0001) %MON dynstat_theta_sd             =   4.5713587584435E+00
(PID.TID 0000.0001) %MON dynstat_theta_del2           =   2.6456944874306E-03
(PID.TID 0000.0001) %MON dynstat_salt_max             =   4.1357536297358E+01
(PID.TID 0000.0001) %MON dynstat_salt_min             =   1.8518669387443E+01
(PID.TID 0000.0001) %MON dynstat_salt_mean            =   3.4772031896755E+01
(PID.TID 0000.0001) %MON dynstat_salt_sd              =   5.3144128029939E-01
(PID.TID 0000.0001) %MON dynstat_salt_del2            =   9.2643432128980E-04
(PID.TID 0000.0001) %MON dynstat_sst_max              =   3.0923077908700E+01
(PID.TID 0000.0001) %MON dynstat_sst_min              =  -1.9005643250321E+00
(PID.TID 0000.0001) %MON dynstat_sst_mean             =   1.8108652972873E+01
(PID.TID 0000.0001) %MON dynstat_sst_sd               =   9.8088327856888E+00
(PID.TID 0000.0001) %MON dynstat_sst_del2             =   1.5104645429381E-02
(PID.TID 0000.0001) %MON dynstat_sss_max              =   4.1357536297358E+01
(PID.TID 0000.0001) %MON dynstat_sss_min              =   1.8751398455434E+01
(PID.TID 0000.0001) %MON dynstat_sss_mean             =   3.4630042776934E+01
(PID.TID 0000.0001) %MON dynstat_sss_sd               =   1.4695590761152E+00
(PID.TID 0000.0001) %MON dynstat_sss_del2             =   9.8955195538557E-03
(PID.TID 0000.0001) %MON forcing_qnet_max             =   3.8990610351562E+03
(PID.TID 0000.0001) %MON forcing_qnet_min             =  -2.0403322753906E+03
(PID.TID 0000.0001) %MON forcing_qnet_mean            =  -7.2850142670931E+00
(PID.TID 0000.0001) %MON forcing_qnet_sd              =   2.5068885295071E+02
(PID.TID 0000.0001) %MON forcing_qnet_del2            =   6.5546593404113E+00
(PID.TID 0000.0001) %MON forcing_qsw_max              =   0.0000000000000E+00
(PID.TID 0000.0001) %MON forcing_qsw_min              =  -1.0286615524401E+02
(PID.TID 0000.0001) %MON forcing_qsw_mean             =  -1.6215170112390E+01
(PID.TID 0000.0001) %MON forcing_qsw_sd               =   2.4738328078020E+01
(PID.TID 0000.0001) %MON forcing_qsw_del2             =   2.5369641412334E-01
(PID.TID 0000.0001) %MON forcing_empmr_max            =   8.2149896770716E-03
(PID.TID 0000.0001) %MON forcing_empmr_min            =  -1.1807624995708E-01
(PID.TID 0000.0001) %MON forcing_empmr_mean           =  -3.8728913587992E-04
(PID.TID 0000.0001) %MON forcing_empmr_sd             =   5.5640647647461E-03
(PID.TID 0000.0001) %MON forcing_empmr_del2           =   2.2089244442339E-04
(PID.TID 0000.0001) %MON forcing_fu_max               =   4.2695269718163E-01
(PID.TID 0000.0001) %MON forcing_fu_min               =  -3.7580179808659E-01
(PID.TID 0000.0001) %MON forcing_fu_mean              =  -4.1358588402916E-03
(PID.TID 0000.0001) %MON forcing_fu_sd                =   6.7721074411240E-02
(PID.TID 0000.0001) %MON forcing_fu_del2              =   6.5559954967265E-04
(PID.TID 0000.0001) %MON forcing_fv_max               =   3.1582253819796E-01
(PID.TID 0000.0001) %MON forcing_fv_min               =  -3.0417067898858E-01
(PID.TID 0000.0001) %MON forcing_fv_mean              =  -1.1715221773869E-02
(PID.TID 0000.0001) %MON forcing_fv_sd                =   6.7375992751221E-02
(PID.TID 0000.0001) %MON forcing_fv_del2              =   5.8730613991809E-04
(PID.TID 0000.0001) %MON trAdv_CFL_u_max              =   2.4966974782954E-03
(PID.TID 0000.0001) %MON trAdv_CFL_v_max              =   5.0285592272808E-03
(PID.TID 0000.0001) %MON trAdv_CFL_w_max              =   1.9701185045743E-03
(PID.TID 0000.0001) %MON advcfl_uvel_max              =   2.4937497589950E-03
(PID.TID 0000.0001) %MON advcfl_vvel_max              =   3.3987140636499E-03
(PID.TID 0000.0001) %MON advcfl_wvel_max              =   4.1069999985073E-03
(PID.TID 0000.0001) %MON advcfl_W_hf_max              =   2.1429817497017E-03
(PID.TID 0000.0001) %MON pe_b_mean                    =   5.1485475945485E-04
(PID.TID 0000.0001) %MON ke_max                       =   4.0612660351961E-01
(PID.TID 0000.0001) %MON ke_mean                      =   1.6735686264380E-04
(PID.TID 0000.0001) %MON ke_vol                       =   1.3398099621099E+18
(PID.TID 0000.0001) %MON vort_r_min                   =  -5.7283831463332E-06
(PID.TID 0000.0001) %MON vort_r_max                   =   2.7575019231585E-06
(PID.TID 0000.0001) %MON vort_a_mean                  =  -2.0549865324846E-05
(PID.TID 0000.0001) %MON vort_a_sd                    =   7.5259499040318E-05
(PID.TID 0000.0001) %MON vort_p_mean                  =  -2.4783330919481E-05
(PID.TID 0000.0001) %MON vort_p_sd                    =   1.2811901151756E-04
(PID.TID 0000.0001) %MON surfExpan_theta_mean         =  -6.9785164889141E-06
(PID.TID 0000.0001) %MON surfExpan_salt_mean          =   1.1428522112349E-06
(PID.TID 0000.0001) // =======================================================
(PID.TID 0000.0001) // End MONITOR dynamic field statistics
(PID.TID 0000.0001) // =======================================================
 cg2d: Sum(rhs),rhsMax =  -3.56764065014672E+01  5.14317939095465E+01
(PID.TID 0000.0001)      cg2d_init_res =   3.13075611553752E-01
(PID.TID 0000.0001)      cg2d_iters(min,last) =      -1      10
(PID.TID 0000.0001)      cg2d_last_res =   9.87256156064745E-08
(PID.TID 0000.0001) // =======================================================
(PID.TID 0000.0001) // Begin MONITOR dynamic field statistics
(PID.TID 0000.0001) // =======================================================
(PID.TID 0000.0001) %MON time_tsnumber                =                 72031
(PID.TID 0000.0001) %MON time_secondsf                =   6.4827900000000E+07
(PID.TID 0000.0001) %MON dynstat_eta_max              =   1.9803390722796E+00
(PID.TID 0000.0001) %MON dynstat_eta_min              =  -2.8955997676073E+00
(PID.TID 0000.0001) %MON dynstat_eta_mean             =   2.1321313182338E-02
(PID.TID 0000.0001) %MON dynstat_eta_sd               =   6.2083956354483E-01
(PID.TID 0000.0001) %MON dynstat_eta_del2             =   2.7929704688327E-03
(PID.TID 0000.0001) %MON dynstat_uvel_max             =   3.6316975506052E-01
(PID.TID 0000.0001) %MON dynstat_uvel_min             =  -8.8080436821973E-01
(PID.TID 0000.0001) %MON dynstat_uvel_mean            =  -1.3439681364389E-04
(PID.TID 0000.0001) %MON dynstat_uvel_sd              =   1.2844511163337E-02
(PID.TID 0000.0001) %MON dynstat_uvel_del2            =   8.4573801809882E-05
(PID.TID 0000.0001) %MON dynstat_vvel_max             =   9.2568975191811E-01
(PID.TID 0000.0001) %MON dynstat_vvel_min             =  -1.1011512146938E+00
(PID.TID 0000.0001) %MON dynstat_vvel_mean            =  -4.4434456186608E-04
(PID.TID 0000.0001) %MON dynstat_vvel_sd              =   1.4073765679038E-02
(PID.TID 0000.0001) %MON dynstat_vvel_del2            =   1.2580437926401E-04
(PID.TID 0000.0001) %MON dynstat_wvel_max             =   1.8647292959074E-04
(PID.TID 0000.0001) %MON dynstat_wvel_min             =  -3.1438418567256E-04
(PID.TID 0000.0001) %MON dynstat_wvel_mean            =  -1.1056957943020E-07
(PID.TID 0000.0001) %MON dynstat_wvel_sd              =   8.4948212168440E-06
(PID.TID 0000.0001) %MON dynstat_wvel_del2            =   7.4765043684097E-08
(PID.TID 0000.0001) %MON dynstat_theta_max            =   3.0923252939890E+01
(PID.TID 0000.0001) %MON dynstat_theta_min            =  -3.0058267229271E+00
(PID.TID 0000.0001) %MON dynstat_theta_mean           =   3.9091279155004E+00
(PID.TID 0000.0001) %MON dynstat_theta_sd             =   4.5713684960102E+00
(PID.TID 0000.0001) %MON dynstat_theta_del2           =   2.6455641723396E-03
(PID.TID 0000.0001) %MON dynstat_salt_max             =   4.1357200525375E+01
(PID.TID 0000.0001) %MON dynstat_salt_min             =   1.8518679628369E+01
(PID.TID 0000.0001) %MON dynstat_salt_mean            =   3.4772028018842E+01
(PID.TID 0000.0001) %MON dynstat_salt_sd              =   5.3146106937963E-01
(PID.TID 0000.0001) %MON dynstat_salt_del2            =   9.3187184707668E-04
(PID.TID 0000.0001) %MON dynstat_sst_max              =   3.0923252939890E+01
(PID.TID 0000.0001) %MON dynstat_sst_min              =  -1.8999081581051E+00
(PID.TID 0000.0001) %MON dynstat_sst_mean             =   1.8108703728574E+01
(PID.TID 0000.0001) %MON dynstat_sst_sd               =   9.8089891226030E+00
(PID.TID 0000.0001) %MON dynstat_sst_del2             =   1.5102011218735E-02
(PID.TID 0000.0001) %MON dynstat_sss_max              =   4.1357200525375E+01
(PID.TID 0000.0001) %MON dynstat_sss_min              =   1.8751400625895E+01
(PID.TID 0000.0001) %MON dynstat_sss_mean             =   3.4629763761694E+01
(PID.TID 0000.0001) %MON dynstat_sss_sd               =   1.4700584223241E+00
(PID.TID 0000.0001) %MON dynstat_sss_del2             =   9.9758410601280E-03
(PID.TID 0000.0001) %MON forcing_qnet_max             =   2.7978235660398E+03
(PID.TID 0000.0001) %MON forcing_qnet_min             =  -1.7620771177954E+03
(PID.TID 0000.0001) %MON forcing_qnet_mean            =  -5.0604641099238E+00
(PID.TID 0000.0001) %MON forcing_qnet_sd              =   2.4042805333997E+02
(PID.TID 0000.0001) %MON forcing_qnet_del2            =   5.7252268532922E+00
(PID.TID 0000.0001) %MON forcing_qsw_max              =   0.0000000000000E+00
(PID.TID 0000.0001) %MON forcing_qsw_min              =  -1.0021057112088E+02
(PID.TID 0000.0001) %MON forcing_qsw_mean             =  -1.5979551314092E+01
(PID.TID 0000.0001) %MON forcing_qsw_sd               =   2.4662882620351E+01
(PID.TID 0000.0001) %MON forcing_qsw_del2             =   2.5016326165039E-01
(PID.TID 0000.0001) %MON forcing_empmr_max            =   8.1302635371685E-03
(PID.TID 0000.0001) %MON forcing_empmr_min            =  -1.1686041206121E-01
(PID.TID 0000.0001) %MON forcing_empmr_mean           =  -3.7686444367895E-04
(PID.TID 0000.0001) %MON forcing_empmr_sd             =   5.4479328749947E-03
(PID.TID 0000.0001) %MON forcing_empmr_del2           =   2.1519199818770E-04
(PID.TID 0000.0001) %MON forcing_fu_max               =   4.1717066033391E-01
(PID.TID 0000.0001) %MON forcing_fu_min               =  -3.7414880795137E-01
(PID.TID 0000.0001) %MON forcing_fu_mean              =  -4.0847424995962E-03
(PID.TID 0000.0001) %MON forcing_fu_sd                =   6.7175498177229E-02
(PID.TID 0000.0001) %MON forcing_fu_del2              =   6.4954278966629E-04
(PID.TID 0000.0001) %MON forcing_fv_max               =   3.1599525380953E-01
(PID.TID 0000.0001) %MON forcing_fv_min               =  -3.0004981426256E-01
(PID.TID 0000.0001) %MON forcing_fv_mean              =  -1.1813235442982E-02
(PID.TID 0000.0001) %MON forcing_fv_sd                =   6.7085852534331E-02
(PID.TID 0000.0001) %MON forcing_fv_del2              =   5.8374783864833E-04
(PID.TID 0000.0001) %MON trAdv_CFL_u_max              =   2.5981121908409E-03
(PID.TID 0000.0001) %MON trAdv_CFL_v_max              =   5.1961771746084E-03
(PID.TID 0000.0001) %MON trAdv_CFL_w_max              =   1.9102059787060E-03
(PID.TID 0000.0001) %MON advcfl_uvel_max              =   2.5924160485565E-03
(PID.TID 0000.0001) %MON advcfl_vvel_max              =   3.5934580807439E-03
(PID.TID 0000.0001) %MON advcfl_wvel_max              =   4.0647099847379E-03
(PID.TID 0000.0001) %MON advcfl_W_hf_max              =   2.2868176835833E-03
(PID.TID 0000.0001) %MON pe_b_mean                    =   5.1408233520284E-04
(PID.TID 0000.0001) %MON ke_max                       =   4.0229255252078E-01
(PID.TID 0000.0001) %MON ke_mean                      =   1.6778687360635E-04
(PID.TID 0000.0001) %MON ke_vol                       =   1.3398100846572E+18
(PID.TID 0000.0001) %MON vort_r_min                   =  -5.7211904376945E-06
(PID.TID 0000.0001) %MON vort_r_max                   =   3.0553970155950E-06
(PID.TID 0000.0001) %MON vort_a_mean                  =  -2.0549865324846E-05
(PID.TID 0000.0001) %MON vort_a_sd                    =   7.5259498533628E-05
(PID.TID 0000.0001) %MON vort_p_mean                  =  -2.4783328800068E-05
(PID.TID 0000.0001) %MON vort_p_sd                    =   1.2811901121723E-04
(PID.TID 0000.0001) %MON surfExpan_theta_mean         =  -6.9245141224945E-06
(PID.TID 0000.0001) %MON surfExpan_salt_mean          =   1.1042171555525E-06
(PID.TID 0000.0001) // =======================================================
(PID.TID 0000.0001) // End MONITOR dynamic field statistics
(PID.TID 0000.0001) // =======================================================
 Computing Diagnostic #     81  oceTAUX      Counter:       1   Parms: UU      U1      
           Vector  Mate for  oceTAUX      Diagnostic #     82  oceTAUY  exists 
 Computing Diagnostic #     82  oceTAUY      Counter:       1   Parms: VV      U1      
           Vector  Mate for  oceTAUY      Diagnostic #     81  oceTAUX  exists 
 Computing Diagnostic #     85  oceFWflx     Counter:       1   Parms: SM      U1      
 Computing Diagnostic #     86  oceSflux     Counter:       1   Parms: SM      U1      
 Computing Diagnostic #     87  oceQnet      Counter:       1   Parms: SM      U1      
 Computing Diagnostic #     88  oceQsw       Counter:       1   Parms: SM      U1      
 Computing Diagnostic #     27  SALT         Counter:       1   Parms: SMR     MR      
 Computing Diagnostic #     26  THETA        Counter:       1   Parms: SMR     MR      
 Computing Diagnostic #     45  UVELMASS     Counter:       1   Parms: UUr     MR      
           Vector  Mate for  UVELMASS     Diagnostic #     46  VVELMASS exists 
 Computing Diagnostic #     46  VVELMASS     Counter:       1   Parms: VVr     MR      
           Vector  Mate for  VVELMASS     Diagnostic #     45  UVELMASS exists 
 Computing Diagnostic #     83  atmPload     Counter:       1   Parms: SM      U1      
 cg2d: Sum(rhs),rhsMax =  -4.24984762595904E+01  4.38217599414784E+01
(PID.TID 0000.0001)      cg2d_init_res =   3.73613941340748E-01
(PID.TID 0000.0001)      cg2d_iters(min,last) =      -1      11
(PID.TID 0000.0001)      cg2d_last_res =   3.19101267397397E-08
(PID.TID 0000.0001) // =======================================================
(PID.TID 0000.0001) // Begin MONITOR dynamic field statistics
(PID.TID 0000.0001) // =======================================================
(PID.TID 0000.0001) %MON time_tsnumber                =                 72032
(PID.TID 0000.0001) %MON time_secondsf                =   6.4828800000000E+07
(PID.TID 0000.0001) %MON dynstat_eta_max              =   1.8833190068393E+00
(PID.TID 0000.0001) %MON dynstat_eta_min              =  -2.4671312729047E+00
(PID.TID 0000.0001) %MON dynstat_eta_mean             =   2.1640353350931E-02
(PID.TID 0000.0001) %MON dynstat_eta_sd               =   6.2034060137242E-01
(PID.TID 0000.0001) %MON dynstat_eta_del2             =   2.6200918438832E-03
(PID.TID 0000.0001) %MON dynstat_uvel_max             =   3.4318877399841E-01
(PID.TID 0000.0001) %MON dynstat_uvel_min             =  -9.0896915000411E-01
(PID.TID 0000.0001) %MON dynstat_uvel_mean            =  -1.7026358034127E-04
(PID.TID 0000.0001) %MON dynstat_uvel_sd              =   1.2875014565372E-02
(PID.TID 0000.0001) %MON dynstat_uvel_del2            =   8.4936784805181E-05
(PID.TID 0000.0001) %MON dynstat_vvel_max             =   9.9965697103737E-01
(PID.TID 0000.0001) %MON dynstat_vvel_min             =  -1.1423178536114E+00
(PID.TID 0000.0001) %MON dynstat_vvel_mean            =  -4.3656090804080E-04
(PID.TID 0000.0001) %MON dynstat_vvel_sd              =   1.4071992175771E-02
(PID.TID 0000.0001) %MON dynstat_vvel_del2            =   1.2723056747335E-04
(PID.TID 0000.0001) %MON dynstat_wvel_max             =   1.8979507676735E-04
(PID.TID 0000.0001) %MON dynstat_wvel_min             =  -2.8940955186147E-04
(PID.TID 0000.0001) %MON dynstat_wvel_mean            =  -8.7049846800254E-08
(PID.TID 0000.0001) %MON dynstat_wvel_sd              =   8.4822784140924E-06
(PID.TID 0000.0001) %MON dynstat_wvel_del2            =   7.4603919588072E-08
(PID.TID 0000.0001) %MON dynstat_theta_max            =   3.0923440774118E+01
(PID.TID 0000.0001) %MON dynstat_theta_min            =  -3.0057627411360E+00
(PID.TID 0000.0001) %MON dynstat_theta_mean           =   3.9091300272168E+00
(PID.TID 0000.0001) %MON dynstat_theta_sd             =   4.5713777511615E+00
(PID.TID 0000.0001) %MON dynstat_theta_del2           =   2.6454315977760E-03
(PID.TID 0000.0001) %MON dynstat_salt_max             =   4.1356876137017E+01
(PID.TID 0000.0001) %MON dynstat_salt_min             =   1.8518689919537E+01
(PID.TID 0000.0001) %MON dynstat_salt_mean            =   3.4772024248775E+01
(PID.TID 0000.0001) %MON dynstat_salt_sd              =   5.3148069801010E-01
(PID.TID 0000.0001) %MON dynstat_salt_del2            =   9.3728722155535E-04
(PID.TID 0000.0001) %MON dynstat_sst_max              =   3.0923440774118E+01
(PID.TID 0000.0001) %MON dynstat_sst_min              =  -1.8990898715009E+00
(PID.TID 0000.0001) %MON dynstat_sst_mean             =   1.8108745389151E+01
(PID.TID 0000.0001) %MON dynstat_sst_sd               =   9.8091452282182E+00
(PID.TID 0000.0001) %MON dynstat_sst_del2             =   1.5099355549295E-02
(PID.TID 0000.0001) %MON dynstat_sss_max              =   4.1356876137017E+01
(PID.TID 0000.0001) %MON dynstat_sss_min              =   1.8751403768846E+01
(PID.TID 0000.0001) %MON dynstat_sss_mean             =   3.4629492999964E+01
(PID.TID 0000.0001) %MON dynstat_sss_sd               =   1.4705537608298E+00
(PID.TID 0000.0001) %MON dynstat_sss_del2             =   1.0055655531318E-02
(PID.TID 0000.0001) %MON forcing_qnet_max             =   2.7592301706638E+03
(PID.TID 0000.0001) %MON forcing_qnet_min             =  -4.7486254882812E+03
(PID.TID 0000.0001) %MON forcing_qnet_mean            =  -2.7279220105436E+00
(PID.TID 0000.0001) %MON forcing_qnet_sd              =   2.4961315193576E+02
(PID.TID 0000.0001) %MON forcing_qnet_del2            =   6.5102685155593E+00
(PID.TID 0000.0001) %MON forcing_qsw_max              =   0.0000000000000E+00
(PID.TID 0000.0001) %MON forcing_qsw_min              =  -9.7539620886855E+01
(PID.TID 0000.0001) %MON forcing_qsw_mean             =  -1.5703488009621E+01
(PID.TID 0000.0001) %MON forcing_qsw_sd               =   2.4577905229815E+01
(PID.TID 0000.0001) %MON forcing_qsw_del2             =   2.4599562429463E-01
(PID.TID 0000.0001) %MON forcing_empmr_max            =   8.0465711653233E-03
(PID.TID 0000.0001) %MON forcing_empmr_min            =  -1.1565632373095E-01
(PID.TID 0000.0001) %MON forcing_empmr_mean           =  -3.6689619388163E-04
(PID.TID 0000.0001) %MON forcing_empmr_sd             =   5.3608007289420E-03
(PID.TID 0000.0001) %MON forcing_empmr_del2           =   2.1141214284743E-04
(PID.TID 0000.0001) %MON forcing_fu_max               =   4.0461874807817E-01
(PID.TID 0000.0001) %MON forcing_fu_min               =  -3.7229427032166E-01
(PID.TID 0000.0001) %MON forcing_fu_mean              =  -4.0914573546424E-03
(PID.TID 0000.0001) %MON forcing_fu_sd                =   6.6469009093989E-02
(PID.TID 0000.0001) %MON forcing_fu_del2              =   6.4303543297998E-04
(PID.TID 0000.0001) %MON forcing_fv_max               =   3.1748888932197E-01
(PID.TID 0000.0001) %MON forcing_fv_min               =  -2.9559810310033E-01
(PID.TID 0000.0001) %MON forcing_fv_mean              =  -1.1888812534009E-02
(PID.TID 0000.0001) %MON forcing_fv_sd                =   6.6863177366099E-02
(PID.TID 0000.0001) %MON forcing_fv_del2              =   5.8058737871317E-04
(PID.TID 0000.0001) %MON trAdv_CFL_u_max              =   2.6844229334524E-03
(PID.TID 0000.0001) %MON trAdv_CFL_v_max              =   5.2955792252716E-03
(PID.TID 0000.0001) %MON trAdv_CFL_w_max              =   1.8528056549128E-03
(PID.TID 0000.0001) %MON advcfl_uvel_max              =   2.6753116777523E-03
(PID.TID 0000.0001) %MON advcfl_vvel_max              =   3.7277998398971E-03
(PID.TID 0000.0001) %MON advcfl_wvel_max              =   4.0228286515112E-03
(PID.TID 0000.0001) %MON advcfl_W_hf_max              =   2.4132328322376E-03
(PID.TID 0000.0001) %MON pe_b_mean                    =   5.1327552906263E-04
(PID.TID 0000.0001) %MON ke_max                       =   4.3924617688975E-01
(PID.TID 0000.0001) %MON ke_mean                      =   1.6812598929364E-04
(PID.TID 0000.0001) %MON ke_vol                       =   1.3398102039059E+18
(PID.TID 0000.0001) %MON vort_r_min                   =  -5.6694807137941E-06
(PID.TID 0000.0001) %MON vort_r_max                   =   3.2995384464368E-06
(PID.TID 0000.0001) %MON vort_a_mean                  =  -2.0549865324846E-05
(PID.TID 0000.0001) %MON vort_a_sd                    =   7.5259498900380E-05
(PID.TID 0000.0001) %MON vort_p_mean                  =  -2.4783326771422E-05
(PID.TID 0000.0001) %MON vort_p_sd                    =   1.2811901609372E-04
(PID.TID 0000.0001) %MON surfExpan_theta_mean         =  -6.8538196087558E-06
(PID.TID 0000.0001) %MON surfExpan_salt_mean          =   1.0667855348619E-06
(PID.TID 0000.0001) // =======================================================
(PID.TID 0000.0001) // End MONITOR dynamic field statistics
(PID.TID 0000.0001) // =======================================================
 cg2d: Sum(rhs),rhsMax =  -4.58321769613775E+01  4.12256459544347E+01
(PID.TID 0000.0001)      cg2d_init_res =   3.99953507822247E-01
(PID.TID 0000.0001)      cg2d_iters(min,last) =      -1      11
(PID.TID 0000.0001)      cg2d_last_res =   3.58927577842645E-08
(PID.TID 0000.0001) // =======================================================
(PID.TID 0000.0001) // Begin MONITOR dynamic field statistics
(PID.TID 0000.0001) // =======================================================
(PID.TID 0000.0001) %MON time_tsnumber                =                 72033
(PID.TID 0000.0001) %MON time_secondsf                =   6.4829700000000E+07
(PID.TID 0000.0001) %MON dynstat_eta_max              =   1.8613386931698E+00
(PID.TID 0000.0001) %MON dynstat_eta_min              =  -2.0078885304139E+00
(PID.TID 0000.0001) %MON dynstat_eta_mean             =   2.1955287503353E-02
(PID.TID 0000.0001) %MON dynstat_eta_sd               =   6.1984779005670E-01
(PID.TID 0000.0001) %MON dynstat_eta_del2             =   2.4593267697627E-03
(PID.TID 0000.0001) %MON dynstat_uvel_max             =   3.2001848493965E-01
(PID.TID 0000.0001) %MON dynstat_uvel_min             =  -9.3114452216654E-01
(PID.TID 0000.0001) %MON dynstat_uvel_mean            =  -2.0722864010115E-04
(PID.TID 0000.0001) %MON dynstat_uvel_sd              =   1.2909099363373E-02
(PID.TID 0000.0001) %MON dynstat_uvel_del2            =   8.5356207458339E-05
(PID.TID 0000.0001) %MON dynstat_vvel_max             =   1.0570955075287E+00
(PID.TID 0000.0001) %MON dynstat_vvel_min             =  -1.1647430553482E+00
(PID.TID 0000.0001) %MON dynstat_vvel_mean            =  -4.2490627335109E-04
(PID.TID 0000.0001) %MON dynstat_vvel_sd              =   1.4056972028759E-02
(PID.TID 0000.0001) %MON dynstat_vvel_del2            =   1.2804975839983E-04
(PID.TID 0000.0001) %MON dynstat_wvel_max             =   1.9651363506671E-04
(PID.TID 0000.0001) %MON dynstat_wvel_min             =  -2.6677948857597E-04
(PID.TID 0000.0001) %MON dynstat_wvel_mean            =  -6.6590496108712E-08
(PID.TID 0000.0001) %MON dynstat_wvel_sd              =   8.4637986810317E-06
(PID.TID 0000.0001) %MON dynstat_wvel_del2            =   7.4524190516475E-08
(PID.TID 0000.0001) %MON dynstat_theta_max            =   3.0923631259276E+01
(PID.TID 0000.0001) %MON dynstat_theta_min            =  -3.0056804148457E+00
(PID.TID 0000.0001) %MON dynstat_theta_mean           =   3.9091317940571E+00
(PID.TID 0000.0001) %MON dynstat_theta_sd             =   4.5713854805989E+00
(PID.TID 0000.0001) %MON dynstat_theta_del2           =   2.6453000825170E-03
(PID.TID 0000.0001) %MON dynstat_salt_max             =   4.1356558819836E+01
(PID.TID 0000.0001) %MON dynstat_salt_min             =   1.8518700260377E+01
(PID.TID 0000.0001) %MON dynstat_salt_mean            =   3.4772020521748E+01
(PID.TID 0000.0001) %MON dynstat_salt_sd              =   5.3150021270025E-01
(PID.TID 0000.0001) %MON dynstat_salt_del2            =   9.4264838410324E-04
(PID.TID 0000.0001) %MON dynstat_sst_max              =   3.0923631259276E+01
(PID.TID 0000.0001) %MON dynstat_sst_min              =  -1.8983412082060E+00
(PID.TID 0000.0001) %MON dynstat_sst_mean             =   1.8108763630994E+01
(PID.TID 0000.0001) %MON dynstat_sst_sd               =   9.8092851862265E+00
(PID.TID 0000.0001) %MON dynstat_sst_del2             =   1.5096749163098E-02
(PID.TID 0000.0001) %MON dynstat_sss_max              =   4.1356558819836E+01
(PID.TID 0000.0001) %MON dynstat_sss_min              =   1.8751407592787E+01
(PID.TID 0000.0001) %MON dynstat_sss_mean             =   3.4629225786159E+01
(PID.TID 0000.0001) %MON dynstat_sss_sd               =   1.4710458285585E+00
(PID.TID 0000.0001) %MON dynstat_sss_del2             =   1.0134497045437E-02
(PID.TID 0000.0001) %MON forcing_qnet_max             =   2.7227769633951E+03
(PID.TID 0000.0001) %MON forcing_qnet_min             =  -1.7145400308988E+03
(PID.TID 0000.0001) %MON forcing_qnet_mean            =   2.9625198595082E+00
(PID.TID 0000.0001) %MON forcing_qnet_sd              =   2.3403859847021E+02
(PID.TID 0000.0001) %MON forcing_qnet_del2            =   5.4003567826030E+00
(PID.TID 0000.0001) %MON forcing_qsw_max              =   0.0000000000000E+00
(PID.TID 0000.0001) %MON forcing_qsw_min              =  -9.9638591923804E+01
(PID.TID 0000.0001) %MON forcing_qsw_mean             =  -1.5174962224961E+01
(PID.TID 0000.0001) %MON forcing_qsw_sd               =   2.4497535559708E+01
(PID.TID 0000.0001) %MON forcing_qsw_del2             =   2.3707965208351E-01
(PID.TID 0000.0001) %MON forcing_empmr_max            =   7.9636173322797E-03
(PID.TID 0000.0001) %MON forcing_empmr_min            =  -1.1446481943130E-01
(PID.TID 0000.0001) %MON forcing_empmr_mean           =  -3.6217427528464E-04
(PID.TID 0000.0001) %MON forcing_empmr_sd             =   5.2886200790218E-03
(PID.TID 0000.0001) %MON forcing_empmr_del2           =   2.0849975547809E-04
(PID.TID 0000.0001) %MON forcing_fu_max               =   3.9151647167470E-01
(PID.TID 0000.0001) %MON forcing_fu_min               =  -3.7215765258752E-01
(PID.TID 0000.0001) %MON forcing_fu_mean              =  -4.1062842240894E-03
(PID.TID 0000.0001) %MON forcing_fu_sd                =   6.5762901326712E-02
(PID.TID 0000.0001) %MON forcing_fu_del2              =   6.3666762384899E-04
(PID.TID 0000.0001) %MON forcing_fv_max               =   3.1877693543229E-01
(PID.TID 0000.0001) %MON forcing_fv_min               =  -2.9027470134024E-01
(PID.TID 0000.0001) %MON forcing_fv_mean              =  -1.1985155951889E-02
(PID.TID 0000.0001) %MON forcing_fv_sd                =   6.6628926814266E-02
(PID.TID 0000.0001) %MON forcing_fv_del2              =   5.7709928181824E-04
(PID.TID 0000.0001) %MON trAdv_CFL_u_max              =   2.7537300393360E-03
(PID.TID 0000.0001) %MON trAdv_CFL_v_max              =   5.3268085295980E-03
(PID.TID 0000.0001) %MON trAdv_CFL_w_max              =   1.8043707322468E-03
(PID.TID 0000.0001) %MON advcfl_uvel_max              =   2.7405790546532E-03
(PID.TID 0000.0001) %MON advcfl_vvel_max              =   3.8009814532106E-03
(PID.TID 0000.0001) %MON advcfl_wvel_max              =   3.9813850236976E-03
(PID.TID 0000.0001) %MON advcfl_W_hf_max              =   2.5210343476643E-03
(PID.TID 0000.0001) %MON pe_b_mean                    =   5.1247957663552E-04
(PID.TID 0000.0001) %MON ke_max                       =   4.8418220302952E-01
(PID.TID 0000.0001) %MON ke_mean                      =   1.6833546838435E-04
(PID.TID 0000.0001) %MON ke_vol                       =   1.3398103200003E+18
(PID.TID 0000.0001) %MON vort_r_min                   =  -5.5730562944102E-06
(PID.TID 0000.0001) %MON vort_r_max                   =   3.4891241392804E-06
(PID.TID 0000.0001) %MON vort_a_mean                  =  -2.0549865324846E-05
(PID.TID 0000.0001) %MON vort_a_sd                    =   7.5259500278079E-05
(PID.TID 0000.0001) %MON vort_p_mean                  =  -2.4783324827025E-05
(PID.TID 0000.0001) %MON vort_p_sd                    =   1.2811902555831E-04
(PID.TID 0000.0001) %MON surfExpan_theta_mean         =  -6.8293233849894E-06
(PID.TID 0000.0001) %MON surfExpan_salt_mean          =   1.0327567070062E-06
(PID.TID 0000.0001) // =======================================================
(PID.TID 0000.0001) // End MONITOR dynamic field statistics
(PID.TID 0000.0001) // =======================================================
 cg2d: Sum(rhs),rhsMax =  -4.49561398378708E+01  4.26236307786182E+01
(PID.TID 0000.0001)      cg2d_init_res =   3.86315778772296E-01
(PID.TID 0000.0001)      cg2d_iters(min,last) =      -1      11
(PID.TID 0000.0001)      cg2d_last_res =   3.55702973978868E-08
(PID.TID 0000.0001) // =======================================================
(PID.TID 0000.0001) // Begin MONITOR dynamic field statistics
(PID.TID 0000.0001) // =======================================================
(PID.TID 0000.0001) %MON time_tsnumber                =                 72034
(PID.TID 0000.0001) %MON time_secondsf                =   6.4830600000000E+07
(PID.TID 0000.0001) %MON dynstat_eta_max              =   1.9047022586942E+00
(PID.TID 0000.0001) %MON dynstat_eta_min              =  -1.6073492210627E+00
(PID.TID 0000.0001) %MON dynstat_eta_mean             =   2.2265919152892E-02
(PID.TID 0000.0001) %MON dynstat_eta_sd               =   6.1938117175940E-01
(PID.TID 0000.0001) %MON dynstat_eta_del2             =   2.3167470747066E-03
(PID.TID 0000.0001) %MON dynstat_uvel_max             =   2.9738853380209E-01
(PID.TID 0000.0001) %MON dynstat_uvel_min             =  -9.4677818393417E-01
(PID.TID 0000.0001) %MON dynstat_uvel_mean            =  -2.4447926759555E-04
(PID.TID 0000.0001) %MON dynstat_uvel_sd              =   1.2943342983495E-02
(PID.TID 0000.0001) %MON dynstat_uvel_del2            =   8.5770134515561E-05
(PID.TID 0000.0001) %MON dynstat_vvel_max             =   1.0980408607114E+00
(PID.TID 0000.0001) %MON dynstat_vvel_min             =  -1.1685540590290E+00
(PID.TID 0000.0001) %MON dynstat_vvel_mean            =  -4.0907043305873E-04
(PID.TID 0000.0001) %MON dynstat_vvel_sd              =   1.4030206768612E-02
(PID.TID 0000.0001) %MON dynstat_vvel_del2            =   1.2825636484537E-04
(PID.TID 0000.0001) %MON dynstat_wvel_max             =   2.0427554440503E-04
(PID.TID 0000.0001) %MON dynstat_wvel_min             =  -2.4695076061672E-04
(PID.TID 0000.0001) %MON dynstat_wvel_mean            =  -4.7900669217175E-08
(PID.TID 0000.0001) %MON dynstat_wvel_sd              =   8.4345140813332E-06
(PID.TID 0000.0001) %MON dynstat_wvel_del2            =   7.4470806214408E-08
(PID.TID 0000.0001) %MON dynstat_theta_max            =   3.0923830210926E+01
(PID.TID 0000.0001) %MON dynstat_theta_min            =  -3.0055799751190E+00
(PID.TID 0000.0001) %MON dynstat_theta_mean           =   3.9091333709555E+00
(PID.TID 0000.0001) %MON dynstat_theta_sd             =   4.5713924705033E+00
(PID.TID 0000.0001) %MON dynstat_theta_del2           =   2.6451711816261E-03
(PID.TID 0000.0001) %MON dynstat_salt_max             =   4.1356245876078E+01
(PID.TID 0000.0001) %MON dynstat_salt_min             =   1.8518710645666E+01
(PID.TID 0000.0001) %MON dynstat_salt_mean            =   3.4772016872285E+01
(PID.TID 0000.0001) %MON dynstat_salt_sd              =   5.3151958766084E-01
(PID.TID 0000.0001) %MON dynstat_salt_del2            =   9.4796492400850E-04
(PID.TID 0000.0001) %MON dynstat_sst_max              =   3.0923830210926E+01
(PID.TID 0000.0001) %MON dynstat_sst_min              =  -1.8982220138463E+00
(PID.TID 0000.0001) %MON dynstat_sst_mean             =   1.8108771176538E+01
(PID.TID 0000.0001) %MON dynstat_sst_sd               =   9.8094190331855E+00
(PID.TID 0000.0001) %MON dynstat_sst_del2             =   1.5094230643288E-02
(PID.TID 0000.0001) %MON dynstat_sss_max              =   4.1356245876078E+01
(PID.TID 0000.0001) %MON dynstat_sss_min              =   1.8751412258681E+01
(PID.TID 0000.0001) %MON dynstat_sss_mean             =   3.4628964759069E+01
(PID.TID 0000.0001) %MON dynstat_sss_sd               =   1.4715341941020E+00
(PID.TID 0000.0001) %MON dynstat_sss_del2             =   1.0212513877372E-02
(PID.TID 0000.0001) %MON forcing_qnet_max             =   2.6851996034779E+03
(PID.TID 0000.0001) %MON forcing_qnet_min             =  -1.6920987005173E+03
(PID.TID 0000.0001) %MON forcing_qnet_mean            =   5.6453265054072E+00
(PID.TID 0000.0001) %MON forcing_qnet_sd              =   2.3276127352907E+02
(PID.TID 0000.0001) %MON forcing_qnet_del2            =   5.4452810876926E+00
(PID.TID 0000.0001) %MON forcing_qsw_max              =   0.0000000000000E+00
(PID.TID 0000.0001) %MON forcing_qsw_min              =  -1.0164113399915E+02
(PID.TID 0000.0001) %MON forcing_qsw_mean             =  -1.4979055277702E+01
(PID.TID 0000.0001) %MON forcing_qsw_sd               =   2.4562316591516E+01
(PID.TID 0000.0001) %MON forcing_qsw_del2             =   2.3337680435595E-01
(PID.TID 0000.0001) %MON forcing_empmr_max            =   7.8814504668117E-03
(PID.TID 0000.0001) %MON forcing_empmr_min            =  -1.1328506469727E-01
(PID.TID 0000.0001) %MON forcing_empmr_mean           =  -3.5722639697043E-04
(PID.TID 0000.0001) %MON forcing_empmr_sd             =   5.2189911837307E-03
(PID.TID 0000.0001) %MON forcing_empmr_del2           =   2.0576717330345E-04
(PID.TID 0000.0001) %MON forcing_fu_max               =   3.8517169056979E-01
(PID.TID 0000.0001) %MON forcing_fu_min               =  -3.7259020672989E-01
(PID.TID 0000.0001) %MON forcing_fu_mean              =  -4.1023210803534E-03
(PID.TID 0000.0001) %MON forcing_fu_sd                =   6.5259162346935E-02
(PID.TID 0000.0001) %MON forcing_fu_del2              =   6.3292978646934E-04
(PID.TID 0000.0001) %MON forcing_fv_max               =   3.2242811639170E-01
(PID.TID 0000.0001) %MON forcing_fv_min               =  -2.8433359689196E-01
(PID.TID 0000.0001) %MON forcing_fv_mean              =  -1.2124290681452E-02
(PID.TID 0000.0001) %MON forcing_fv_sd                =   6.6370157898120E-02
(PID.TID 0000.0001) %MON forcing_fv_del2              =   5.7370384393293E-04
(PID.TID 0000.0001) %MON trAdv_CFL_u_max              =   2.8043249249636E-03
(PID.TID 0000.0001) %MON trAdv_CFL_v_max              =   5.2909378726637E-03
(PID.TID 0000.0001) %MON trAdv_CFL_w_max              =   1.8261571265715E-03
(PID.TID 0000.0001) %MON advcfl_uvel_max              =   2.7865926271631E-03
(PID.TID 0000.0001) %MON advcfl_vvel_max              =   3.8134181483616E-03
(PID.TID 0000.0001) %MON advcfl_wvel_max              =   3.9403500764266E-03
(PID.TID 0000.0001) %MON advcfl_W_hf_max              =   2.6087958951021E-03
(PID.TID 0000.0001) %MON pe_b_mean                    =   5.1172750511058E-04
(PID.TID 0000.0001) %MON ke_max                       =   5.1475955400510E-01
(PID.TID 0000.0001) %MON ke_mean                      =   1.6839497722853E-04
(PID.TID 0000.0001) %MON ke_vol                       =   1.3398104346007E+18
(PID.TID 0000.0001) %MON vort_r_min                   =  -5.4323537008691E-06
(PID.TID 0000.0001) %MON vort_r_max                   =   3.6242712656883E-06
(PID.TID 0000.0001) %MON vort_a_mean                  =  -2.0549865324846E-05
(PID.TID 0000.0001) %MON vort_a_sd                    =   7.5259502773489E-05
(PID.TID 0000.0001) %MON vort_p_mean                  =  -2.4783322930270E-05
(PID.TID 0000.0001) %MON vort_p_sd                    =   1.2811903857537E-04
(PID.TID 0000.0001) %MON surfExpan_theta_mean         =  -6.7628007508335E-06
(PID.TID 0000.0001) %MON surfExpan_salt_mean          =   1.0031956995853E-06
(PID.TID 0000.0001) // =======================================================
(PID.TID 0000.0001) // End MONITOR dynamic field statistics
(PID.TID 0000.0001) // =======================================================
 cg2d: Sum(rhs),rhsMax =  -4.24965658334845E+01  4.57104328216551E+01
(PID.TID 0000.0001)      cg2d_init_res =   3.57339629031702E-01
(PID.TID 0000.0001)      cg2d_iters(min,last) =      -1      11
(PID.TID 0000.0001)      cg2d_last_res =   3.27033445296672E-08
(PID.TID 0000.0001) // =======================================================
(PID.TID 0000.0001) // Begin MONITOR dynamic field statistics
(PID.TID 0000.0001) // =======================================================
(PID.TID 0000.0001) %MON time_tsnumber                =                 72035
(PID.TID 0000.0001) %MON time_secondsf                =   6.4831500000000E+07
(PID.TID 0000.0001) %MON dynstat_eta_max              =   2.0416695556923E+00
(PID.TID 0000.0001) %MON dynstat_eta_min              =  -1.6074349774000E+00
(PID.TID 0000.0001) %MON dynstat_eta_mean             =   2.2572015650101E-02
(PID.TID 0000.0001) %MON dynstat_eta_sd               =   6.1895746237176E-01
(PID.TID 0000.0001) %MON dynstat_eta_del2             =   2.1978674975166E-03
(PID.TID 0000.0001) %MON dynstat_uvel_max             =   3.1048204183877E-01
(PID.TID 0000.0001) %MON dynstat_uvel_min             =  -9.5540872091548E-01
(PID.TID 0000.0001) %MON dynstat_uvel_mean            =  -2.8125172180751E-04
(PID.TID 0000.0001) %MON dynstat_uvel_sd              =   1.2974668723488E-02
(PID.TID 0000.0001) %MON dynstat_uvel_del2            =   8.6133606933995E-05
(PID.TID 0000.0001) %MON dynstat_vvel_max             =   1.1227894530038E+00
(PID.TID 0000.0001) %MON dynstat_vvel_min             =  -1.1542239850289E+00
(PID.TID 0000.0001) %MON dynstat_vvel_mean            =  -3.8884759009892E-04
(PID.TID 0000.0001) %MON dynstat_vvel_sd              =   1.3993912675026E-02
(PID.TID 0000.0001) %MON dynstat_vvel_del2            =   1.2785219917656E-04
(PID.TID 0000.0001) %MON dynstat_wvel_max             =   2.0907662430951E-04
(PID.TID 0000.0001) %MON dynstat_wvel_min             =  -2.3005849996899E-04
(PID.TID 0000.0001) %MON dynstat_wvel_mean            =  -3.2607819093324E-08
(PID.TID 0000.0001) %MON dynstat_wvel_sd              =   8.3944867246408E-06
(PID.TID 0000.0001) %MON dynstat_wvel_del2            =   7.4428687083640E-08
(PID.TID 0000.0001) %MON dynstat_theta_max            =   3.0924035431162E+01
(PID.TID 0000.0001) %MON dynstat_theta_min            =  -3.0054631094701E+00
(PID.TID 0000.0001) %MON dynstat_theta_mean           =   3.9091347705870E+00
(PID.TID 0000.0001) %MON dynstat_theta_sd             =   4.5713987200987E+00
(PID.TID 0000.0001) %MON dynstat_theta_del2           =   2.6450423204713E-03
(PID.TID 0000.0001) %MON dynstat_salt_max             =   4.1355934890450E+01
(PID.TID 0000.0001) %MON dynstat_salt_min             =   1.8518721065778E+01
(PID.TID 0000.0001) %MON dynstat_salt_mean            =   3.4772013289502E+01
(PID.TID 0000.0001) %MON dynstat_salt_sd              =   5.3153881199046E-01
(PID.TID 0000.0001) %MON dynstat_salt_del2            =   9.5323315386495E-04
(PID.TID 0000.0001) %MON dynstat_sst_max              =   3.0924035431162E+01
(PID.TID 0000.0001) %MON dynstat_sst_min              =  -1.8981004230984E+00
(PID.TID 0000.0001) %MON dynstat_sst_mean             =   1.8108767754913E+01
(PID.TID 0000.0001) %MON dynstat_sst_sd               =   9.8095459165460E+00
(PID.TID 0000.0001) %MON dynstat_sst_del2             =   1.5091725396434E-02
(PID.TID 0000.0001) %MON dynstat_sss_max              =   4.1355934890450E+01
(PID.TID 0000.0001) %MON dynstat_sss_min              =   1.8751417553243E+01
(PID.TID 0000.0001) %MON dynstat_sss_mean             =   3.4628708989662E+01
(PID.TID 0000.0001) %MON dynstat_sss_sd               =   1.4720183985110E+00
(PID.TID 0000.0001) %MON dynstat_sss_del2             =   1.0289660540578E-02
(PID.TID 0000.0001) %MON forcing_qnet_max             =   2.6494547676143E+03
(PID.TID 0000.0001) %MON forcing_qnet_min             =  -1.7355197753906E+03
(PID.TID 0000.0001) %MON forcing_qnet_mean            =   8.2637396595396E+00
(PID.TID 0000.0001) %MON forcing_qnet_sd              =   2.3191900044300E+02
(PID.TID 0000.0001) %MON forcing_qnet_del2            =   5.4048929151274E+00
(PID.TID 0000.0001) %MON forcing_qsw_max              =   0.0000000000000E+00
(PID.TID 0000.0001) %MON forcing_qsw_min              =  -1.0321408269934E+02
(PID.TID 0000.0001) %MON forcing_qsw_mean             =  -1.4750699802470E+01
(PID.TID 0000.0001) %MON forcing_qsw_sd               =   2.4597903197436E+01
(PID.TID 0000.0001) %MON forcing_qsw_del2             =   2.2925794393748E-01
(PID.TID 0000.0001) %MON forcing_empmr_max            =   7.8002670779824E-03
(PID.TID 0000.0001) %MON forcing_empmr_min            =  -1.1211789399385E-01
(PID.TID 0000.0001) %MON forcing_empmr_mean           =  -3.5201097179021E-04
(PID.TID 0000.0001) %MON forcing_empmr_sd             =   5.1321150241327E-03
(PID.TID 0000.0001) %MON forcing_empmr_del2           =   2.0238854650173E-04
(PID.TID 0000.0001) %MON forcing_fu_max               =   3.8186006009494E-01
(PID.TID 0000.0001) %MON forcing_fu_min               =  -3.7202734502942E-01
(PID.TID 0000.0001) %MON forcing_fu_mean              =  -4.0605737514842E-03
(PID.TID 0000.0001) %MON forcing_fu_sd                =   6.4883615065542E-02
(PID.TID 0000.0001) %MON forcing_fu_del2              =   6.2970156107209E-04
(PID.TID 0000.0001) %MON forcing_fv_max               =   3.2923901536363E-01
(PID.TID 0000.0001) %MON forcing_fv_min               =  -2.8162144005859E-01
(PID.TID 0000.0001) %MON forcing_fv_mean              =  -1.2292280898741E-02
(PID.TID 0000.0001) %MON forcing_fv_sd                =   6.6164125037543E-02
(PID.TID 0000.0001) %MON forcing_fv_del2              =   5.7035740984868E-04
(PID.TID 0000.0001) %MON trAdv_CFL_u_max              =   2.9826015079331E-03
(PID.TID 0000.0001) %MON trAdv_CFL_v_max              =   5.1900470442420E-03
(PID.TID 0000.0001) %MON trAdv_CFL_w_max              =   1.8726505645951E-03
(PID.TID 0000.0001) %MON advcfl_uvel_max              =   2.9692133605926E-03
(PID.TID 0000.0001) %MON advcfl_vvel_max              =   3.7666538897148E-03
(PID.TID 0000.0001) %MON advcfl_wvel_max              =   3.8997528345689E-03
(PID.TID 0000.0001) %MON advcfl_W_hf_max              =   2.6752150922787E-03
(PID.TID 0000.0001) %MON pe_b_mean                    =   5.1104675829763E-04
(PID.TID 0000.0001) %MON ke_max                       =   5.2882272431611E-01
(PID.TID 0000.0001) %MON ke_mean                      =   1.6829744214026E-04
(PID.TID 0000.0001) %MON ke_vol                       =   1.3398105476354E+18
(PID.TID 0000.0001) %MON vort_r_min                   =  -5.2484317109090E-06
(PID.TID 0000.0001) %MON vort_r_max                   =   3.7059582184431E-06
(PID.TID 0000.0001) %MON vort_a_mean                  =  -2.0549865324846E-05
(PID.TID 0000.0001) %MON vort_a_sd                    =   7.5259506462071E-05
(PID.TID 0000.0001) %MON vort_p_mean                  =  -2.4783321079372E-05
(PID.TID 0000.0001) %MON vort_p_sd                    =   1.2811905392648E-04
(PID.TID 0000.0001) %MON surfExpan_theta_mean         =  -6.7007130232973E-06
(PID.TID 0000.0001) %MON surfExpan_salt_mean          =   9.7633311477132E-07
(PID.TID 0000.0001) // =======================================================
(PID.TID 0000.0001) // End MONITOR dynamic field statistics
(PID.TID 0000.0001) // =======================================================
 Computing Diagnostic #     81  oceTAUX      Counter:       1   Parms: UU      U1      
           Vector  Mate for  oceTAUX      Diagnostic #     82  oceTAUY  exists 
 Computing Diagnostic #     82  oceTAUY      Counter:       1   Parms: VV      U1      
           Vector  Mate for  oceTAUY      Diagnostic #     81  oceTAUX  exists 
 Computing Diagnostic #     85  oceFWflx     Counter:       1   Parms: SM      U1      
 Computing Diagnostic #     86  oceSflux     Counter:       1   Parms: SM      U1      
 Computing Diagnostic #     87  oceQnet      Counter:       1   Parms: SM      U1      
 Computing Diagnostic #     88  oceQsw       Counter:       1   Parms: SM      U1      
 Computing Diagnostic #     27  SALT         Counter:       1   Parms: SMR     MR      
 Computing Diagnostic #     26  THETA        Counter:       1   Parms: SMR     MR      
 Computing Diagnostic #     45  UVELMASS     Counter:       1   Parms: UUr     MR      
           Vector  Mate for  UVELMASS     Diagnostic #     46  VVELMASS exists 
 Computing Diagnostic #     46  VVELMASS     Counter:       1   Parms: VVr     MR      
           Vector  Mate for  VVELMASS     Diagnostic #     45  UVELMASS exists 
 Computing Diagnostic #     83  atmPload     Counter:       1   Parms: SM      U1      
 cg2d: Sum(rhs),rhsMax =  -4.03901281115985E+01  4.87354174887487E+01
(PID.TID 0000.0001)      cg2d_init_res =   3.30558691912070E-01
(PID.TID 0000.0001)      cg2d_iters(min,last) =      -1      11
(PID.TID 0000.0001)      cg2d_last_res =   2.91088213197283E-08
(PID.TID 0000.0001) // =======================================================
(PID.TID 0000.0001) // Begin MONITOR dynamic field statistics
(PID.TID 0000.0001) // =======================================================
(PID.TID 0000.0001) %MON time_tsnumber                =                 72036
(PID.TID 0000.0001) %MON time_secondsf                =   6.4832400000000E+07
(PID.TID 0000.0001) %MON dynstat_eta_max              =   2.1758617457925E+00
(PID.TID 0000.0001) %MON dynstat_eta_min              =  -1.6076431871838E+00
(PID.TID 0000.0001) %MON dynstat_eta_mean             =   2.2872892807988E-02
(PID.TID 0000.0001) %MON dynstat_eta_sd               =   6.1858687999081E-01
(PID.TID 0000.0001) %MON dynstat_eta_del2             =   2.1074606606057E-03
(PID.TID 0000.0001) %MON dynstat_uvel_max             =   3.2241761601740E-01
(PID.TID 0000.0001) %MON dynstat_uvel_min             =  -9.5667536326306E-01
(PID.TID 0000.0001) %MON dynstat_uvel_mean            =  -3.1687895859049E-04
(PID.TID 0000.0001) %MON dynstat_uvel_sd              =   1.3000410425474E-02
(PID.TID 0000.0001) %MON dynstat_uvel_del2            =   8.6417768900925E-05
(PID.TID 0000.0001) %MON dynstat_vvel_max             =   1.1318755967801E+00
(PID.TID 0000.0001) %MON dynstat_vvel_min             =  -1.1225475071749E+00
(PID.TID 0000.0001) %MON dynstat_vvel_mean            =  -3.6414586253097E-04
(PID.TID 0000.0001) %MON dynstat_vvel_sd              =   1.3950743945881E-02
(PID.TID 0000.0001) %MON dynstat_vvel_del2            =   1.2684434382788E-04
(PID.TID 0000.0001) %MON dynstat_wvel_max             =   2.1148976453754E-04
(PID.TID 0000.0001) %MON dynstat_wvel_min             =  -2.1599237803596E-04
(PID.TID 0000.0001) %MON dynstat_wvel_mean            =  -2.1091753207507E-08
(PID.TID 0000.0001) %MON dynstat_wvel_sd              =   8.3459488774816E-06
(PID.TID 0000.0001) %MON dynstat_wvel_del2            =   7.4405086035301E-08
(PID.TID 0000.0001) %MON dynstat_theta_max            =   3.0924245904549E+01
(PID.TID 0000.0001) %MON dynstat_theta_min            =  -3.0053325158523E+00
(PID.TID 0000.0001) %MON dynstat_theta_mean           =   3.9091360300206E+00
(PID.TID 0000.0001) %MON dynstat_theta_sd             =   4.5714043811287E+00
(PID.TID 0000.0001) %MON dynstat_theta_del2           =   2.6449088589617E-03
(PID.TID 0000.0001) %MON dynstat_salt_max             =   4.1355623091752E+01
(PID.TID 0000.0001) %MON dynstat_salt_min             =   1.8518731522378E+01
(PID.TID 0000.0001) %MON dynstat_salt_mean            =   3.4772009787820E+01
(PID.TID 0000.0001) %MON dynstat_salt_sd              =   5.3155788164294E-01
(PID.TID 0000.0001) %MON dynstat_salt_del2            =   9.5844846909393E-04
(PID.TID 0000.0001) %MON dynstat_sst_max              =   3.0924245904549E+01
(PID.TID 0000.0001) %MON dynstat_sst_min              =  -1.8979767097887E+00
(PID.TID 0000.0001) %MON dynstat_sst_mean             =   1.8108760678780E+01
(PID.TID 0000.0001) %MON dynstat_sst_sd               =   9.8096672452003E+00
(PID.TID 0000.0001) %MON dynstat_sst_del2             =   1.5089097625781E-02
(PID.TID 0000.0001) %MON dynstat_sss_max              =   4.1355623091752E+01
(PID.TID 0000.0001) %MON dynstat_sss_min              =   1.8751423571360E+01
(PID.TID 0000.0001) %MON dynstat_sss_mean             =   3.4628460906331E+01
(PID.TID 0000.0001) %MON dynstat_sss_sd               =   1.4725003183318E+00
(PID.TID 0000.0001) %MON dynstat_sss_del2             =   1.0365867645605E-02
(PID.TID 0000.0001) %MON forcing_qnet_max             =   2.6128725852077E+03
(PID.TID 0000.0001) %MON forcing_qnet_min             =  -1.6451961517172E+03
(PID.TID 0000.0001) %MON forcing_qnet_mean            =   1.0151921604045E+01
(PID.TID 0000.0001) %MON forcing_qnet_sd              =   2.2969047098986E+02
(PID.TID 0000.0001) %MON forcing_qnet_del2            =   5.3040976369826E+00
(PID.TID 0000.0001) %MON forcing_qsw_max              =   0.0000000000000E+00
(PID.TID 0000.0001) %MON forcing_qsw_min              =  -1.0435073559765E+02
(PID.TID 0000.0001) %MON forcing_qsw_mean             =  -1.4491111788879E+01
(PID.TID 0000.0001) %MON forcing_qsw_sd               =   2.4602885598141E+01
(PID.TID 0000.0001) %MON forcing_qsw_del2             =   2.2477950595577E-01
(PID.TID 0000.0001) %MON forcing_empmr_max            =   7.7198715880513E-03
(PID.TID 0000.0001) %MON forcing_empmr_min            =  -1.1096247285604E-01
(PID.TID 0000.0001) %MON forcing_empmr_mean           =  -3.4600873156996E-04
(PID.TID 0000.0001) %MON forcing_empmr_sd             =   5.0396352153708E-03
(PID.TID 0000.0001) %MON forcing_empmr_del2           =   1.9879823599864E-04
(PID.TID 0000.0001) %MON forcing_fu_max               =   3.7615118037454E-01
(PID.TID 0000.0001) %MON forcing_fu_min               =  -3.7192679188722E-01
(PID.TID 0000.0001) %MON forcing_fu_mean              =  -4.0294381805750E-03
(PID.TID 0000.0001) %MON forcing_fu_sd                =   6.4452683440719E-02
(PID.TID 0000.0001) %MON forcing_fu_del2              =   6.2652691175510E-04
(PID.TID 0000.0001) %MON forcing_fv_max               =   3.2691994719743E-01
(PID.TID 0000.0001) %MON forcing_fv_min               =  -2.8270752623676E-01
(PID.TID 0000.0001) %MON forcing_fv_mean              =  -1.2466175029346E-02
(PID.TID 0000.0001) %MON forcing_fv_sd                =   6.5931398463792E-02
(PID.TID 0000.0001) %MON forcing_fv_del2              =   5.6746656153523E-04
(PID.TID 0000.0001) %MON trAdv_CFL_u_max              =   3.1284199045698E-03
(PID.TID 0000.0001) %MON trAdv_CFL_v_max              =   5.0271862433711E-03
(PID.TID 0000.0001) %MON trAdv_CFL_w_max              =   1.9035856050363E-03
(PID.TID 0000.0001) %MON advcfl_uvel_max              =   3.1035019871008E-03
(PID.TID 0000.0001) %MON advcfl_vvel_max              =   3.6632819878404E-03
(PID.TID 0000.0001) %MON advcfl_wvel_max              =   3.8595642732537E-03
(PID.TID 0000.0001) %MON advcfl_W_hf_max              =   2.7194080071947E-03
(PID.TID 0000.0001) %MON pe_b_mean                    =   5.1045397874920E-04
(PID.TID 0000.0001) %MON ke_max                       =   5.2563877884988E-01
(PID.TID 0000.0001) %MON ke_mean                      =   1.6804605378461E-04
(PID.TID 0000.0001) %MON ke_vol                       =   1.3398106590199E+18
(PID.TID 0000.0001) %MON vort_r_min                   =  -5.0229579779450E-06
(PID.TID 0000.0001) %MON vort_r_max                   =   3.7359485867275E-06
(PID.TID 0000.0001) %MON vort_a_mean                  =  -2.0549865324846E-05
(PID.TID 0000.0001) %MON vort_a_sd                    =   7.5259511374239E-05
(PID.TID 0000.0001) %MON vort_p_mean                  =  -2.4783319271277E-05
(PID.TID 0000.0001) %MON vort_p_sd                    =   1.2811907035013E-04
(PID.TID 0000.0001) %MON surfExpan_theta_mean         =  -6.6208441276326E-06
(PID.TID 0000.0001) %MON surfExpan_salt_mean          =   9.5374435110519E-07
(PID.TID 0000.0001) // =======================================================
(PID.TID 0000.0001) // End MONITOR dynamic field statistics
(PID.TID 0000.0001) // =======================================================
 cg2d: Sum(rhs),rhsMax =  -3.85912191154949E+01  5.16640476669176E+01
(PID.TID 0000.0001)      cg2d_init_res =   3.06295479484952E-01
(PID.TID 0000.0001)      cg2d_iters(min,last) =      -1      11
(PID.TID 0000.0001)      cg2d_last_res =   2.54518827856449E-08
(PID.TID 0000.0001) // =======================================================
(PID.TID 0000.0001) // Begin MONITOR dynamic field statistics
(PID.TID 0000.0001) // =======================================================
(PID.TID 0000.0001) %MON time_tsnumber                =                 72037
(PID.TID 0000.0001) %MON time_secondsf                =   6.4833300000000E+07
(PID.TID 0000.0001) %MON dynstat_eta_max              =   2.3057499852794E+00
(PID.TID 0000.0001) %MON dynstat_eta_min              =  -1.6079238278435E+00
(PID.TID 0000.0001) %MON dynstat_eta_mean             =   2.3167442828425E-02
(PID.TID 0000.0001) %MON dynstat_eta_sd               =   6.1827651871357E-01
(PID.TID 0000.0001) %MON dynstat_eta_del2             =   2.0489129170724E-03
(PID.TID 0000.0001) %MON dynstat_uvel_max             =   3.3307434398268E-01
(PID.TID 0000.0001) %MON dynstat_uvel_min             =  -9.5132008765792E-01
(PID.TID 0000.0001) %MON dynstat_uvel_mean            =  -3.5076955746833E-04
(PID.TID 0000.0001) %MON dynstat_uvel_sd              =   1.3018563066038E-02
(PID.TID 0000.0001) %MON dynstat_uvel_del2            =   8.6608808252975E-05
(PID.TID 0000.0001) %MON dynstat_vvel_max             =   1.1260466597909E+00
(PID.TID 0000.0001) %MON dynstat_vvel_min             =  -1.0746029569633E+00
(PID.TID 0000.0001) %MON dynstat_vvel_mean            =  -3.3498930767086E-04
(PID.TID 0000.0001) %MON dynstat_vvel_sd              =   1.3903517081577E-02
(PID.TID 0000.0001) %MON dynstat_vvel_del2            =   1.2524533901366E-04
(PID.TID 0000.0001) %MON dynstat_wvel_max             =   2.1318399672976E-04
(PID.TID 0000.0001) %MON dynstat_wvel_min             =  -2.0447534062135E-04
(PID.TID 0000.0001) %MON dynstat_wvel_mean            =  -1.3890336239096E-08
(PID.TID 0000.0001) %MON dynstat_wvel_sd              =   8.2911596165438E-06
(PID.TID 0000.0001) %MON dynstat_wvel_del2            =   7.4386918557201E-08
(PID.TID 0000.0001) %MON dynstat_theta_max            =   3.0924440403578E+01
(PID.TID 0000.0001) %MON dynstat_theta_min            =  -3.0051915710082E+00
(PID.TID 0000.0001) %MON dynstat_theta_mean           =   3.9091370797836E+00
(PID.TID 0000.0001) %MON dynstat_theta_sd             =   4.5714091178784E+00
(PID.TID 0000.0001) %MON dynstat_theta_del2           =   2.6447750784724E-03
(PID.TID 0000.0001) %MON dynstat_salt_max             =   4.1355308283443E+01
(PID.TID 0000.0001) %MON dynstat_salt_min             =   1.8518742008584E+01
(PID.TID 0000.0001) %MON dynstat_salt_mean            =   3.4772006355016E+01
(PID.TID 0000.0001) %MON dynstat_salt_sd              =   5.3157680721587E-01
(PID.TID 0000.0001) %MON dynstat_salt_del2            =   9.6360929867858E-04
(PID.TID 0000.0001) %MON dynstat_sst_max              =   3.0924440403578E+01
(PID.TID 0000.0001) %MON dynstat_sst_min              =  -1.8978524250881E+00
(PID.TID 0000.0001) %MON dynstat_sst_mean             =   1.8108737861454E+01
(PID.TID 0000.0001) %MON dynstat_sst_sd               =   9.8097772804775E+00
(PID.TID 0000.0001) %MON dynstat_sst_del2             =   1.5086457883391E-02
(PID.TID 0000.0001) %MON dynstat_sss_max              =   4.1355308283443E+01
(PID.TID 0000.0001) %MON dynstat_sss_min              =   1.8751430571696E+01
(PID.TID 0000.0001) %MON dynstat_sss_mean             =   3.4628217283033E+01
(PID.TID 0000.0001) %MON dynstat_sss_sd               =   1.4729768398433E+00
(PID.TID 0000.0001) %MON dynstat_sss_del2             =   1.0441135557283E-02
(PID.TID 0000.0001) %MON forcing_qnet_max             =   2.5785980035077E+03
(PID.TID 0000.0001) %MON forcing_qnet_min             =  -1.6217971314979E+03
(PID.TID 0000.0001) %MON forcing_qnet_mean            =   1.3284258401191E+01
(PID.TID 0000.0001) %MON forcing_qnet_sd              =   2.2643979975878E+02
(PID.TID 0000.0001) %MON forcing_qnet_del2            =   5.0427890989978E+00
(PID.TID 0000.0001) %MON forcing_qsw_max              =   0.0000000000000E+00
(PID.TID 0000.0001) %MON forcing_qsw_min              =  -1.0679126650249E+02
(PID.TID 0000.0001) %MON forcing_qsw_mean             =  -1.3896195411337E+01
(PID.TID 0000.0001) %MON forcing_qsw_sd               =   2.4546003893819E+01
(PID.TID 0000.0001) %MON forcing_qsw_del2             =   2.1181352223703E-01
(PID.TID 0000.0001) %MON forcing_empmr_max            =   7.6402621343732E-03
(PID.TID 0000.0001) %MON forcing_empmr_min            =  -1.0981963574886E-01
(PID.TID 0000.0001) %MON forcing_empmr_mean           =  -3.3873252350292E-04
(PID.TID 0000.0001) %MON forcing_empmr_sd             =   4.9289624579603E-03
(PID.TID 0000.0001) %MON forcing_empmr_del2           =   1.9452138294369E-04
(PID.TID 0000.0001) %MON forcing_fu_max               =   3.7242637652264E-01
(PID.TID 0000.0001) %MON forcing_fu_min               =  -3.7082614970159E-01
(PID.TID 0000.0001) %MON forcing_fu_mean              =  -3.9908980165179E-03
(PID.TID 0000.0001) %MON forcing_fu_sd                =   6.4141195067834E-02
(PID.TID 0000.0001) %MON forcing_fu_del2              =   6.2511142011828E-04
(PID.TID 0000.0001) %MON forcing_fv_max               =   3.3648856591069E-01
(PID.TID 0000.0001) %MON forcing_fv_min               =  -2.8341375676397E-01
(PID.TID 0000.0001) %MON forcing_fv_mean              =  -1.2633222144663E-02
(PID.TID 0000.0001) %MON forcing_fv_sd                =   6.5800263322996E-02
(PID.TID 0000.0001) %MON forcing_fv_del2              =   5.6577084964500E-04
(PID.TID 0000.0001) %MON trAdv_CFL_u_max              =   3.2092019651936E-03
(PID.TID 0000.0001) %MON trAdv_CFL_v_max              =   4.8063183187922E-03
(PID.TID 0000.0001) %MON trAdv_CFL_w_max              =   1.9188145462058E-03
(PID.TID 0000.0001) %MON advcfl_uvel_max              =   3.1724304855968E-03
(PID.TID 0000.0001) %MON advcfl_vvel_max              =   3.5068214317549E-03
(PID.TID 0000.0001) %MON advcfl_wvel_max              =   3.8198134173518E-03
(PID.TID 0000.0001) %MON advcfl_W_hf_max              =   2.7411636374369E-03
(PID.TID 0000.0001) %MON pe_b_mean                    =   5.0996061432323E-04
(PID.TID 0000.0001) %MON ke_max                       =   5.0582156997196E-01
(PID.TID 0000.0001) %MON ke_mean                      =   1.6765360492631E-04
(PID.TID 0000.0001) %MON ke_vol                       =   1.3398107685051E+18
(PID.TID 0000.0001) %MON vort_r_min                   =  -4.7581755634817E-06
(PID.TID 0000.0001) %MON vort_r_max                   =   3.7167091853581E-06
(PID.TID 0000.0001) %MON vort_a_mean                  =  -2.0549865324846E-05
(PID.TID 0000.0001) %MON vort_a_sd                    =   7.5259517505960E-05
(PID.TID 0000.0001) %MON vort_p_mean                  =  -2.4783317506768E-05
(PID.TID 0000.0001) %MON vort_p_sd                    =   1.2811908642425E-04
(PID.TID 0000.0001) %MON surfExpan_theta_mean         =  -6.5401904065674E-06
(PID.TID 0000.0001) %MON surfExpan_salt_mean          =   9.3495532146898E-07
(PID.TID 0000.0001) // =======================================================
(PID.TID 0000.0001) // End MONITOR dynamic field statistics
(PID.TID 0000.0001) // =======================================================
 cg2d: Sum(rhs),rhsMax =  -3.70585885956697E+01  5.44617553848994E+01
(PID.TID 0000.0001)      cg2d_init_res =   2.84590622354173E-01
(PID.TID 0000.0001)      cg2d_iters(min,last) =      -1      10
(PID.TID 0000.0001)      cg2d_last_res =   9.81532234045940E-08
(PID.TID 0000.0001) // =======================================================
(PID.TID 0000.0001) // Begin MONITOR dynamic field statistics
(PID.TID 0000.0001) // =======================================================
(PID.TID 0000.0001) %MON time_tsnumber                =                 72038
(PID.TID 0000.0001) %MON time_secondsf                =   6.4834200000000E+07
(PID.TID 0000.0001) %MON dynstat_eta_max              =   2.4298039213585E+00
(PID.TID 0000.0001) %MON dynstat_eta_min              =  -1.6082242154919E+00
(PID.TID 0000.0001) %MON dynstat_eta_mean             =   2.3452097080832E-02
(PID.TID 0000.0001) %MON dynstat_eta_sd               =   6.1803083831850E-01
(PID.TID 0000.0001) %MON dynstat_eta_del2             =   2.0238205573329E-03
(PID.TID 0000.0001) %MON dynstat_uvel_max             =   3.4234157903135E-01
(PID.TID 0000.0001) %MON dynstat_uvel_min             =  -9.5300861038020E-01
(PID.TID 0000.0001) %MON dynstat_uvel_mean            =  -3.8242567972799E-04
(PID.TID 0000.0001) %MON dynstat_uvel_sd              =   1.3027489378018E-02
(PID.TID 0000.0001) %MON dynstat_uvel_del2            =   8.6702695118188E-05
(PID.TID 0000.0001) %MON dynstat_vvel_max             =   1.1062364495767E+00
(PID.TID 0000.0001) %MON dynstat_vvel_min             =  -1.0117162531231E+00
(PID.TID 0000.0001) %MON dynstat_vvel_mean            =  -3.0151704533063E-04
(PID.TID 0000.0001) %MON dynstat_vvel_sd              =   1.3854844337679E-02
(PID.TID 0000.0001) %MON dynstat_vvel_del2            =   1.2307460521692E-04
(PID.TID 0000.0001) %MON dynstat_wvel_max             =   2.1317945927870E-04
(PID.TID 0000.0001) %MON dynstat_wvel_min             =  -1.9718080407450E-04
(PID.TID 0000.0001) %MON dynstat_wvel_mean            =  -1.0673518161617E-08
(PID.TID 0000.0001) %MON dynstat_wvel_sd              =   8.2317078362229E-06
(PID.TID 0000.0001) %MON dynstat_wvel_del2            =   7.4376016310614E-08
(PID.TID 0000.0001) %MON dynstat_theta_max            =   3.0924636514287E+01
(PID.TID 0000.0001) %MON dynstat_theta_min            =  -3.0050441364005E+00
(PID.TID 0000.0001) %MON dynstat_theta_mean           =   3.9091379812003E+00
(PID.TID 0000.0001) %MON dynstat_theta_sd             =   4.5714133035720E+00
(PID.TID 0000.0001) %MON dynstat_theta_del2           =   2.6446389188288E-03
(PID.TID 0000.0001) %MON dynstat_salt_max             =   4.1354988676409E+01
(PID.TID 0000.0001) %MON dynstat_salt_min             =   1.8518752516730E+01
(PID.TID 0000.0001) %MON dynstat_salt_mean            =   3.4772002984879E+01
(PID.TID 0000.0001) %MON dynstat_salt_sd              =   5.3159555216505E-01
(PID.TID 0000.0001) %MON dynstat_salt_del2            =   9.6871363290258E-04
(PID.TID 0000.0001) %MON dynstat_sst_max              =   3.0924636514287E+01
(PID.TID 0000.0001) %MON dynstat_sst_min              =  -1.8977303180955E+00
(PID.TID 0000.0001) %MON dynstat_sst_mean             =   1.8108706907360E+01
(PID.TID 0000.0001) %MON dynstat_sst_sd               =   9.8098817845587E+00
(PID.TID 0000.0001) %MON dynstat_sst_del2             =   1.5083699261516E-02
(PID.TID 0000.0001) %MON dynstat_sss_max              =   4.1354988676409E+01
(PID.TID 0000.0001) %MON dynstat_sss_min              =   1.8751438971661E+01
(PID.TID 0000.0001) %MON dynstat_sss_mean             =   3.4627978415481E+01
(PID.TID 0000.0001) %MON dynstat_sss_sd               =   1.4734482751612E+00
(PID.TID 0000.0001) %MON dynstat_sss_del2             =   1.0515433999531E-02
(PID.TID 0000.0001) %MON forcing_qnet_max             =   2.5455413390825E+03
(PID.TID 0000.0001) %MON forcing_qnet_min             =  -1.5990731050687E+03
(PID.TID 0000.0001) %MON forcing_qnet_mean            =   1.5238411490542E+01
(PID.TID 0000.0001) %MON forcing_qnet_sd              =   2.2680605467933E+02
(PID.TID 0000.0001) %MON forcing_qnet_del2            =   5.0648014109776E+00
(PID.TID 0000.0001) %MON forcing_qsw_max              =   0.0000000000000E+00
(PID.TID 0000.0001) %MON forcing_qsw_min              =  -1.0704004102325E+02
(PID.TID 0000.0001) %MON forcing_qsw_mean             =  -1.3743608219326E+01
(PID.TID 0000.0001) %MON forcing_qsw_sd               =   2.4623687522835E+01
(PID.TID 0000.0001) %MON forcing_qsw_del2             =   2.0877915235311E-01
(PID.TID 0000.0001) %MON forcing_empmr_max            =   7.5614410452545E-03
(PID.TID 0000.0001) %MON forcing_empmr_min            =  -1.0868771374226E-01
(PID.TID 0000.0001) %MON forcing_empmr_mean           =  -3.2735239026763E-04
(PID.TID 0000.0001) %MON forcing_empmr_sd             =   4.8048788717409E-03
(PID.TID 0000.0001) %MON forcing_empmr_del2           =   1.8973248629958E-04
(PID.TID 0000.0001) %MON forcing_fu_max               =   3.6876588791838E-01
(PID.TID 0000.0001) %MON forcing_fu_min               =  -3.6805072324687E-01
(PID.TID 0000.0001) %MON forcing_fu_mean              =  -3.9417371483264E-03
(PID.TID 0000.0001) %MON forcing_fu_sd                =   6.3828004918951E-02
(PID.TID 0000.0001) %MON forcing_fu_del2              =   6.2237845449640E-04
(PID.TID 0000.0001) %MON forcing_fv_max               =   3.3685437936230E-01
(PID.TID 0000.0001) %MON forcing_fv_min               =  -2.8415600536280E-01
(PID.TID 0000.0001) %MON forcing_fv_mean              =  -1.2837608846953E-02
(PID.TID 0000.0001) %MON forcing_fv_sd                =   6.5653418754026E-02
(PID.TID 0000.0001) %MON forcing_fv_del2              =   5.6372854085935E-04
(PID.TID 0000.0001) %MON trAdv_CFL_u_max              =   3.2261705068154E-03
(PID.TID 0000.0001) %MON trAdv_CFL_v_max              =   4.5322569491531E-03
(PID.TID 0000.0001) %MON trAdv_CFL_w_max              =   1.9187542714281E-03
(PID.TID 0000.0001) %MON advcfl_uvel_max              =   3.1780613148301E-03
(PID.TID 0000.0001) %MON advcfl_vvel_max              =   3.3151355521215E-03
(PID.TID 0000.0001) %MON advcfl_wvel_max              =   3.7804422171220E-03
(PID.TID 0000.0001) %MON advcfl_W_hf_max              =   2.7410775306115E-03
(PID.TID 0000.0001) %MON pe_b_mean                    =   5.0957362153349E-04
(PID.TID 0000.0001) %MON ke_max                       =   4.7115100320765E-01
(PID.TID 0000.0001) %MON ke_mean                      =   1.6713429785754E-04
(PID.TID 0000.0001) %MON ke_vol                       =   1.3398108756879E+18
(PID.TID 0000.0001) %MON vort_r_min                   =  -4.4568778939967E-06
(PID.TID 0000.0001) %MON vort_r_max                   =   3.6513222054965E-06
(PID.TID 0000.0001) %MON vort_a_mean                  =  -2.0549865324846E-05
(PID.TID 0000.0001) %MON vort_a_sd                    =   7.5259524814305E-05
(PID.TID 0000.0001) %MON vort_p_mean                  =  -2.4783315787713E-05
(PID.TID 0000.0001) %MON vort_p_sd                    =   1.2811910094501E-04
(PID.TID 0000.0001) %MON surfExpan_theta_mean         =  -6.4379624036353E-06
(PID.TID 0000.0001) %MON surfExpan_salt_mean          =   9.1809207839323E-07
(PID.TID 0000.0001) // =======================================================
(PID.TID 0000.0001) // End MONITOR dynamic field statistics
(PID.TID 0000.0001) // =======================================================
 cg2d: Sum(rhs),rhsMax =  -3.57682003271510E+01  5.70945050596576E+01
(PID.TID 0000.0001)      cg2d_init_res =   2.64030873262657E-01
(PID.TID 0000.0001)      cg2d_iters(min,last) =      -1      10
(PID.TID 0000.0001)      cg2d_last_res =   8.54452662037426E-08
(PID.TID 0000.0001) // =======================================================
(PID.TID 0000.0001) // Begin MONITOR dynamic field statistics
(PID.TID 0000.0001) // =======================================================
(PID.TID 0000.0001) %MON time_tsnumber                =                 72039
(PID.TID 0000.0001) %MON time_secondsf                =   6.4835100000000E+07
(PID.TID 0000.0001) %MON dynstat_eta_max              =   2.5465169988231E+00
(PID.TID 0000.0001) %MON dynstat_eta_min              =  -1.6084913686085E+00
(PID.TID 0000.0001) %MON dynstat_eta_mean             =   2.3729717879155E-02
(PID.TID 0000.0001) %MON dynstat_eta_sd               =   6.1784995532504E-01
(PID.TID 0000.0001) %MON dynstat_eta_del2             =   2.0310681565140E-03
(PID.TID 0000.0001) %MON dynstat_uvel_max             =   3.5012074215918E-01
(PID.TID 0000.0001) %MON dynstat_uvel_min             =  -9.3663081808971E-01
(PID.TID 0000.0001) %MON dynstat_uvel_mean            =  -4.1150400608927E-04
(PID.TID 0000.0001) %MON dynstat_uvel_sd              =   1.3026166730204E-02
(PID.TID 0000.0001) %MON dynstat_uvel_del2            =   8.6712862888043E-05
(PID.TID 0000.0001) %MON dynstat_vvel_max             =   1.0735377636350E+00
(PID.TID 0000.0001) %MON dynstat_vvel_min             =  -9.3541781640715E-01
(PID.TID 0000.0001) %MON dynstat_vvel_mean            =  -2.6398565725354E-04
(PID.TID 0000.0001) %MON dynstat_vvel_sd              =   1.3807308733006E-02
(PID.TID 0000.0001) %MON dynstat_vvel_del2            =   1.2036657165326E-04
(PID.TID 0000.0001) %MON dynstat_wvel_max             =   2.1158955888191E-04
(PID.TID 0000.0001) %MON dynstat_wvel_min             =  -1.9666978569742E-04
(PID.TID 0000.0001) %MON dynstat_wvel_mean            =  -1.2615933973531E-08
(PID.TID 0000.0001) %MON dynstat_wvel_sd              =   8.1715766959133E-06
(PID.TID 0000.0001) %MON dynstat_wvel_del2            =   7.4400556406937E-08
(PID.TID 0000.0001) %MON dynstat_theta_max            =   3.0924832135195E+01
(PID.TID 0000.0001) %MON dynstat_theta_min            =  -3.0048944891130E+00
(PID.TID 0000.0001) %MON dynstat_theta_mean           =   3.9091387711618E+00
(PID.TID 0000.0001) %MON dynstat_theta_sd             =   4.5714170735234E+00
(PID.TID 0000.0001) %MON dynstat_theta_del2           =   2.6443769167299E-03
(PID.TID 0000.0001) %MON dynstat_salt_max             =   4.1354663320968E+01
(PID.TID 0000.0001) %MON dynstat_salt_min             =   1.8518763038019E+01
(PID.TID 0000.0001) %MON dynstat_salt_mean            =   3.4771999681225E+01
(PID.TID 0000.0001) %MON dynstat_salt_sd              =   5.3161417601893E-01
(PID.TID 0000.0001) %MON dynstat_salt_del2            =   9.7375733657577E-04
(PID.TID 0000.0001) %MON dynstat_sst_max              =   3.0924832135195E+01
(PID.TID 0000.0001) %MON dynstat_sst_min              =  -1.8976109808437E+00
(PID.TID 0000.0001) %MON dynstat_sst_mean             =   1.8108691607622E+01
(PID.TID 0000.0001) %MON dynstat_sst_sd               =   9.8099373703273E+00
(PID.TID 0000.0001) %MON dynstat_sst_del2             =   1.5077058438173E-02
(PID.TID 0000.0001) %MON dynstat_sss_max              =   4.1354663320968E+01
(PID.TID 0000.0001) %MON dynstat_sss_min              =   1.8751448931265E+01
(PID.TID 0000.0001) %MON dynstat_sss_mean             =   3.4627745336180E+01
(PID.TID 0000.0001) %MON dynstat_sss_sd               =   1.4739160017867E+00
(PID.TID 0000.0001) %MON dynstat_sss_del2             =   1.0588708830542E-02
(PID.TID 0000.0001) %MON forcing_qnet_max             =   2.5116373760471E+03
(PID.TID 0000.0001) %MON forcing_qnet_min             =  -1.5780052367762E+03
(PID.TID 0000.0001) %MON forcing_qnet_mean            =   1.6782937388055E+01
(PID.TID 0000.0001) %MON forcing_qnet_sd              =   2.2172671747880E+02
(PID.TID 0000.0001) %MON forcing_qnet_del2            =   4.9755166758678E+00
(PID.TID 0000.0001) %MON forcing_qsw_max              =   0.0000000000000E+00
(PID.TID 0000.0001) %MON forcing_qsw_min              =  -1.0684698573008E+02
(PID.TID 0000.0001) %MON forcing_qsw_mean             =  -1.3567317538930E+01
(PID.TID 0000.0001) %MON forcing_qsw_sd               =   2.4650744403462E+01
(PID.TID 0000.0001) %MON forcing_qsw_del2             =   2.0555044962697E-01
(PID.TID 0000.0001) %MON forcing_empmr_max            =   7.4835051782429E-03
(PID.TID 0000.0001) %MON forcing_empmr_min            =  -1.0756836831570E-01
(PID.TID 0000.0001) %MON forcing_empmr_mean           =  -3.1926391807117E-04
(PID.TID 0000.0001) %MON forcing_empmr_sd             =   4.7374862355387E-03
(PID.TID 0000.0001) %MON forcing_empmr_del2           =   1.8708545682183E-04
(PID.TID 0000.0001) %MON forcing_fu_max               =   3.6175982809632E-01
(PID.TID 0000.0001) %MON forcing_fu_min               =  -3.6520897213952E-01
(PID.TID 0000.0001) %MON forcing_fu_mean              =  -3.9725097970260E-03
(PID.TID 0000.0001) %MON forcing_fu_sd                =   6.3268914969884E-02
(PID.TID 0000.0001) %MON forcing_fu_del2              =   6.1756609941115E-04
(PID.TID 0000.0001) %MON forcing_fv_max               =   3.2596168067234E-01
(PID.TID 0000.0001) %MON forcing_fv_min               =  -2.8435741220467E-01
(PID.TID 0000.0001) %MON forcing_fv_mean              =  -1.3078785755489E-02
(PID.TID 0000.0001) %MON forcing_fv_sd                =   6.5449957823698E-02
(PID.TID 0000.0001) %MON forcing_fv_del2              =   5.6198470989388E-04
(PID.TID 0000.0001) %MON trAdv_CFL_u_max              =   3.1815742030079E-03
(PID.TID 0000.0001) %MON trAdv_CFL_v_max              =   4.2105548186357E-03
(PID.TID 0000.0001) %MON trAdv_CFL_w_max              =   1.9322112388694E-03
(PID.TID 0000.0001) %MON advcfl_uvel_max              =   3.1234451995780E-03
(PID.TID 0000.0001) %MON advcfl_vvel_max              =   3.2171451303501E-03
(PID.TID 0000.0001) %MON advcfl_wvel_max              =   3.7415084631547E-03
(PID.TID 0000.0001) %MON advcfl_W_hf_max              =   2.7206087726514E-03
(PID.TID 0000.0001) %MON pe_b_mean                    =   5.0929322408217E-04
(PID.TID 0000.0001) %MON ke_max                       =   4.2433670355712E-01
(PID.TID 0000.0001) %MON ke_mean                      =   1.6650909719059E-04
(PID.TID 0000.0001) %MON ke_vol                       =   1.3398109792699E+18
(PID.TID 0000.0001) %MON vort_r_min                   =  -4.1223449036543E-06
(PID.TID 0000.0001) %MON vort_r_max                   =   3.8712129724599E-06
(PID.TID 0000.0001) %MON vort_a_mean                  =  -2.0549865324846E-05
(PID.TID 0000.0001) %MON vort_a_sd                    =   7.5259533215390E-05
(PID.TID 0000.0001) %MON vort_p_mean                  =  -2.4783314130392E-05
(PID.TID 0000.0001) %MON vort_p_sd                    =   1.2811911330349E-04
(PID.TID 0000.0001) %MON surfExpan_theta_mean         =  -6.3649520296113E-06
(PID.TID 0000.0001) %MON surfExpan_salt_mean          =   9.0822899530216E-07
(PID.TID 0000.0001) // =======================================================
(PID.TID 0000.0001) // End MONITOR dynamic field statistics
(PID.TID 0000.0001) // =======================================================
 Computing Diagnostic #     81  oceTAUX      Counter:       1   Parms: UU      U1      
           Vector  Mate for  oceTAUX      Diagnostic #     82  oceTAUY  exists 
 Computing Diagnostic #     82  oceTAUY      Counter:       1   Parms: VV      U1      
           Vector  Mate for  oceTAUY      Diagnostic #     81  oceTAUX  exists 
 Computing Diagnostic #     85  oceFWflx     Counter:       1   Parms: SM      U1      
 Computing Diagnostic #     86  oceSflux     Counter:       1   Parms: SM      U1      
 Computing Diagnostic #     87  oceQnet      Counter:       1   Parms: SM      U1      
 Computing Diagnostic #     88  oceQsw       Counter:       1   Parms: SM      U1      
 Computing Diagnostic #     27  SALT         Counter:       1   Parms: SMR     MR      
 Computing Diagnostic #     26  THETA        Counter:       1   Parms: SMR     MR      
 Computing Diagnostic #     45  UVELMASS     Counter:       1   Parms: UUr     MR      
           Vector  Mate for  UVELMASS     Diagnostic #     46  VVELMASS exists 
 Computing Diagnostic #     46  VVELMASS     Counter:       1   Parms: VVr     MR      
           Vector  Mate for  VVELMASS     Diagnostic #     45  UVELMASS exists 
 Computing Diagnostic #     83  atmPload     Counter:       1   Parms: SM      U1      
 cg2d: Sum(rhs),rhsMax =  -3.47022228244047E+01  5.95293665088510E+01
(PID.TID 0000.0001)      cg2d_init_res =   2.44092117839337E-01
(PID.TID 0000.0001)      cg2d_iters(min,last) =      -1      10
(PID.TID 0000.0001)      cg2d_last_res =   6.75693813873975E-08
(PID.TID 0000.0001) // =======================================================
(PID.TID 0000.0001) // Begin MONITOR dynamic field statistics
(PID.TID 0000.0001) // =======================================================
(PID.TID 0000.0001) %MON time_tsnumber                =                 72040
(PID.TID 0000.0001) %MON time_secondsf                =   6.4836000000000E+07
(PID.TID 0000.0001) %MON dynstat_eta_max              =   2.6544313979336E+00
(PID.TID 0000.0001) %MON dynstat_eta_min              =  -1.6086773944244E+00
(PID.TID 0000.0001) %MON dynstat_eta_mean             =   2.4004337719895E-02
(PID.TID 0000.0001) %MON dynstat_eta_sd               =   6.1772471582076E-01
(PID.TID 0000.0001) %MON dynstat_eta_del2             =   2.0656115621903E-03
(PID.TID 0000.0001) %MON dynstat_uvel_max             =   3.5632675764642E-01
(PID.TID 0000.0001) %MON dynstat_uvel_min             =  -9.0334285024135E-01
(PID.TID 0000.0001) %MON dynstat_uvel_mean            =  -4.3772864356634E-04
(PID.TID 0000.0001) %MON dynstat_uvel_sd              =   1.3014488712298E-02
(PID.TID 0000.0001) %MON dynstat_uvel_del2            =   8.6672147356424E-05
(PID.TID 0000.0001) %MON dynstat_vvel_max             =   1.0291741941491E+00
(PID.TID 0000.0001) %MON dynstat_vvel_min             =  -8.4740014839482E-01
(PID.TID 0000.0001) %MON dynstat_vvel_mean            =  -2.2276640760762E-04
(PID.TID 0000.0001) %MON dynstat_vvel_sd              =   1.3763337821522E-02
(PID.TID 0000.0001) %MON dynstat_vvel_del2            =   1.1717622670561E-04
(PID.TID 0000.0001) %MON dynstat_wvel_max             =   2.0858933835213E-04
(PID.TID 0000.0001) %MON dynstat_wvel_min             =  -1.9855512406430E-04
(PID.TID 0000.0001) %MON dynstat_wvel_mean            =  -1.8810819391127E-08
(PID.TID 0000.0001) %MON dynstat_wvel_sd              =   8.1122930717204E-06
(PID.TID 0000.0001) %MON dynstat_wvel_del2            =   7.4408789324637E-08
(PID.TID 0000.0001) %MON dynstat_theta_max            =   3.0925026385730E+01
(PID.TID 0000.0001) %MON dynstat_theta_min            =  -3.0047472593389E+00
(PID.TID 0000.0001) %MON dynstat_theta_mean           =   3.9091393901647E+00
(PID.TID 0000.0001) %MON dynstat_theta_sd             =   4.5714202338903E+00
(PID.TID 0000.0001) %MON dynstat_theta_del2           =   2.6442230667539E-03
(PID.TID 0000.0001) %MON dynstat_salt_max             =   4.1354331644800E+01
(PID.TID 0000.0001) %MON dynstat_salt_min             =   1.8518773566712E+01
(PID.TID 0000.0001) %MON dynstat_salt_mean            =   3.4771996433106E+01
(PID.TID 0000.0001) %MON dynstat_salt_sd              =   5.3163263626250E-01
(PID.TID 0000.0001) %MON dynstat_salt_del2            =   9.7873889144175E-04
(PID.TID 0000.0001) %MON dynstat_sst_max              =   3.0925026385730E+01
(PID.TID 0000.0001) %MON dynstat_sst_min              =  -1.8974972880242E+00
(PID.TID 0000.0001) %MON dynstat_sst_mean             =   1.8108645691917E+01
(PID.TID 0000.0001) %MON dynstat_sst_sd               =   9.8100297565545E+00
(PID.TID 0000.0001) %MON dynstat_sst_del2             =   1.5073742936270E-02
(PID.TID 0000.0001) %MON dynstat_sss_max              =   4.1354331644800E+01
(PID.TID 0000.0001) %MON dynstat_sss_min              =   1.8751460469301E+01
(PID.TID 0000.0001) %MON dynstat_sss_mean             =   3.4627516048591E+01
(PID.TID 0000.0001) %MON dynstat_sss_sd               =   1.4743795759935E+00
(PID.TID 0000.0001) %MON dynstat_sss_del2             =   1.0660953041060E-02
(PID.TID 0000.0001) %MON forcing_qnet_max             =   2.4781827501458E+03
(PID.TID 0000.0001) %MON forcing_qnet_min             =  -1.5558278583087E+03
(PID.TID 0000.0001) %MON forcing_qnet_mean            =   1.9250505586661E+01
(PID.TID 0000.0001) %MON forcing_qnet_sd              =   2.2037850439949E+02
(PID.TID 0000.0001) %MON forcing_qnet_del2            =   5.0227770431507E+00
(PID.TID 0000.0001) %MON forcing_qsw_max              =   0.0000000000000E+00
(PID.TID 0000.0001) %MON forcing_qsw_min              =  -1.0621299017075E+02
(PID.TID 0000.0001) %MON forcing_qsw_mean             =  -1.3367425234423E+01
(PID.TID 0000.0001) %MON forcing_qsw_sd               =   2.4626420206734E+01
(PID.TID 0000.0001) %MON forcing_qsw_del2             =   2.0216832976914E-01
(PID.TID 0000.0001) %MON forcing_empmr_max            =   7.4063567444682E-03
(PID.TID 0000.0001) %MON forcing_empmr_min            =  -1.0645993798971E-01
(PID.TID 0000.0001) %MON forcing_empmr_mean           =  -3.1581281685128E-04
(PID.TID 0000.0001) %MON forcing_empmr_sd             =   4.6885877447649E-03
(PID.TID 0000.0001) %MON forcing_empmr_del2           =   1.8514327129042E-04
(PID.TID 0000.0001) %MON forcing_fu_max               =   3.5803705820884E-01
(PID.TID 0000.0001) %MON forcing_fu_min               =  -3.6355144713586E-01
(PID.TID 0000.0001) %MON forcing_fu_mean              =  -4.0159329752432E-03
(PID.TID 0000.0001) %MON forcing_fu_sd                =   6.2860492344476E-02
(PID.TID 0000.0001) %MON forcing_fu_del2              =   6.1499509686458E-04
(PID.TID 0000.0001) %MON forcing_fv_max               =   3.3143360172444E-01
(PID.TID 0000.0001) %MON forcing_fv_min               =  -2.8497473657910E-01
(PID.TID 0000.0001) %MON forcing_fv_mean              =  -1.3272241376207E-02
(PID.TID 0000.0001) %MON forcing_fv_sd                =   6.5323342465837E-02
(PID.TID 0000.0001) %MON forcing_fv_del2              =   5.6124743501984E-04
(PID.TID 0000.0001) %MON trAdv_CFL_u_max              =   3.0785610086552E-03
(PID.TID 0000.0001) %MON trAdv_CFL_v_max              =   3.8474002187599E-03
(PID.TID 0000.0001) %MON trAdv_CFL_w_max              =   2.0025680970604E-03
(PID.TID 0000.0001) %MON advcfl_uvel_max              =   3.0124375951179E-03
(PID.TID 0000.0001) %MON advcfl_vvel_max              =   3.0841977424042E-03
(PID.TID 0000.0001) %MON advcfl_wvel_max              =   3.7029543648595E-03
(PID.TID 0000.0001) %MON advcfl_W_hf_max              =   2.6820086934001E-03
(PID.TID 0000.0001) %MON pe_b_mean                    =   5.0910450418175E-04
(PID.TID 0000.0001) %MON ke_max                       =   3.6873207439419E-01
(PID.TID 0000.0001) %MON ke_mean                      =   1.6580780558671E-04
(PID.TID 0000.0001) %MON ke_vol                       =   1.3398110802924E+18
(PID.TID 0000.0001) %MON vort_r_min                   =  -3.7582865907678E-06
(PID.TID 0000.0001) %MON vort_r_max                   =   4.0104766769383E-06
(PID.TID 0000.0001) %MON vort_a_mean                  =  -2.0549865324846E-05
(PID.TID 0000.0001) %MON vort_a_sd                    =   7.5259542598619E-05
(PID.TID 0000.0001) %MON vort_p_mean                  =  -2.4783312513807E-05
(PID.TID 0000.0001) %MON vort_p_sd                    =   1.2811912220835E-04
(PID.TID 0000.0001) %MON surfExpan_theta_mean         =  -6.2840355030551E-06
(PID.TID 0000.0001) %MON surfExpan_salt_mean          =   9.1147926844028E-07
(PID.TID 0000.0001) // =======================================================
(PID.TID 0000.0001) // End MONITOR dynamic field statistics
(PID.TID 0000.0001) // =======================================================
 cg2d: Sum(rhs),rhsMax =  -3.38416077343848E+01  6.17350382301914E+01
(PID.TID 0000.0001)      cg2d_init_res =   2.25677163330501E-01
(PID.TID 0000.0001)      cg2d_iters(min,last) =      -1      10
(PID.TID 0000.0001)      cg2d_last_res =   4.81724271901397E-08
(PID.TID 0000.0001) // =======================================================
(PID.TID 0000.0001) // Begin MONITOR dynamic field statistics
(PID.TID 0000.0001) // =======================================================
(PID.TID 0000.0001) %MON time_tsnumber                =                 72041
(PID.TID 0000.0001) %MON time_secondsf                =   6.4836900000000E+07
(PID.TID 0000.0001) %MON dynstat_eta_max              =   2.7521614274398E+00
(PID.TID 0000.0001) %MON dynstat_eta_min              =  -1.6087340395606E+00
(PID.TID 0000.0001) %MON dynstat_eta_mean             =   2.4276377478708E-02
(PID.TID 0000.0001) %MON dynstat_eta_sd               =   6.1764439936743E-01
(PID.TID 0000.0001) %MON dynstat_eta_del2             =   2.1203386090028E-03
(PID.TID 0000.0001) %MON dynstat_uvel_max             =   3.6088909522518E-01
(PID.TID 0000.0001) %MON dynstat_uvel_min             =  -8.5451111982524E-01
(PID.TID 0000.0001) %MON dynstat_uvel_mean            =  -4.6089025294209E-04
(PID.TID 0000.0001) %MON dynstat_uvel_sd              =   1.2993044624344E-02
(PID.TID 0000.0001) %MON dynstat_uvel_del2            =   8.6621231906238E-05
(PID.TID 0000.0001) %MON dynstat_vvel_max             =   9.7448712558590E-01
(PID.TID 0000.0001) %MON dynstat_vvel_min             =  -7.4948460493101E-01
(PID.TID 0000.0001) %MON dynstat_vvel_mean            =  -1.7836539828851E-04
(PID.TID 0000.0001) %MON dynstat_vvel_sd              =   1.3724936542926E-02
(PID.TID 0000.0001) %MON dynstat_vvel_del2            =   1.1358028399377E-04
(PID.TID 0000.0001) %MON dynstat_wvel_max             =   2.0440652149449E-04
(PID.TID 0000.0001) %MON dynstat_wvel_min             =  -2.0421580032115E-04
(PID.TID 0000.0001) %MON dynstat_wvel_mean            =  -2.9138974542379E-08
(PID.TID 0000.0001) %MON dynstat_wvel_sd              =   8.0567116190257E-06
(PID.TID 0000.0001) %MON dynstat_wvel_del2            =   7.4442358360635E-08
(PID.TID 0000.0001) %MON dynstat_theta_max            =   3.0925195307644E+01
(PID.TID 0000.0001) %MON dynstat_theta_min            =  -3.0046074058143E+00
(PID.TID 0000.0001) %MON dynstat_theta_mean           =   3.9091398957308E+00
(PID.TID 0000.0001) %MON dynstat_theta_sd             =   4.5714227809491E+00
(PID.TID 0000.0001) %MON dynstat_theta_del2           =   2.6441218545917E-03
(PID.TID 0000.0001) %MON dynstat_salt_max             =   4.1353993655563E+01
(PID.TID 0000.0001) %MON dynstat_salt_min             =   1.8518784095881E+01
(PID.TID 0000.0001) %MON dynstat_salt_mean            =   3.4771993252640E+01
(PID.TID 0000.0001) %MON dynstat_salt_sd              =   5.3165094280881E-01
(PID.TID 0000.0001) %MON dynstat_salt_del2            =   9.8366509378788E-04
(PID.TID 0000.0001) %MON dynstat_sst_max              =   3.0925195307644E+01
(PID.TID 0000.0001) %MON dynstat_sst_min              =  -1.8973909973265E+00
(PID.TID 0000.0001) %MON dynstat_sst_mean             =   1.8108591123599E+01
(PID.TID 0000.0001) %MON dynstat_sst_sd               =   9.8101200677269E+00
(PID.TID 0000.0001) %MON dynstat_sst_del2             =   1.5071584092731E-02
(PID.TID 0000.0001) %MON dynstat_sss_max              =   4.1353993655563E+01
(PID.TID 0000.0001) %MON dynstat_sss_min              =   1.8751473876347E+01
(PID.TID 0000.0001) %MON dynstat_sss_mean             =   3.4627292632158E+01
(PID.TID 0000.0001) %MON dynstat_sss_sd               =   1.4748399617932E+00
(PID.TID 0000.0001) %MON dynstat_sss_del2             =   1.0732228868576E-02
(PID.TID 0000.0001) %MON forcing_qnet_max             =   2.4481283541887E+03
(PID.TID 0000.0001) %MON forcing_qnet_min             =  -1.5348941003036E+03
(PID.TID 0000.0001) %MON forcing_qnet_mean            =   2.0883942006039E+01
(PID.TID 0000.0001) %MON forcing_qnet_sd              =   2.1522108014418E+02
(PID.TID 0000.0001) %MON forcing_qnet_del2            =   4.7573837238394E+00
(PID.TID 0000.0001) %MON forcing_qsw_max              =   0.0000000000000E+00
(PID.TID 0000.0001) %MON forcing_qsw_min              =  -1.0616263932523E+02
(PID.TID 0000.0001) %MON forcing_qsw_mean             =  -1.3054722914852E+01
(PID.TID 0000.0001) %MON forcing_qsw_sd               =   2.4658715686975E+01
(PID.TID 0000.0001) %MON forcing_qsw_del2             =   1.9800760981145E-01
(PID.TID 0000.0001) %MON forcing_empmr_max            =   7.3299957439303E-03
(PID.TID 0000.0001) %MON forcing_empmr_min            =  -1.0536324977875E-01
(PID.TID 0000.0001) %MON forcing_empmr_mean           =  -3.1284572263488E-04
(PID.TID 0000.0001) %MON forcing_empmr_sd             =   4.6402476009567E-03
(PID.TID 0000.0001) %MON forcing_empmr_del2           =   1.8322425483703E-04
(PID.TID 0000.0001) %MON forcing_fu_max               =   3.5545163075617E-01
(PID.TID 0000.0001) %MON forcing_fu_min               =  -3.6260407098754E-01
(PID.TID 0000.0001) %MON forcing_fu_mean              =  -3.9973275937581E-03
(PID.TID 0000.0001) %MON forcing_fu_sd                =   6.2666296805974E-02
(PID.TID 0000.0001) %MON forcing_fu_del2              =   6.1445124936355E-04
(PID.TID 0000.0001) %MON forcing_fv_max               =   3.3350927071220E-01
(PID.TID 0000.0001) %MON forcing_fv_min               =  -2.8629487474285E-01
(PID.TID 0000.0001) %MON forcing_fv_mean              =  -1.3470598257336E-02
(PID.TID 0000.0001) %MON forcing_fv_sd                =   6.5219190154156E-02
(PID.TID 0000.0001) %MON forcing_fv_del2              =   5.5992599089002E-04
(PID.TID 0000.0001) %MON trAdv_CFL_u_max              =   2.9211214906927E-03
(PID.TID 0000.0001) %MON trAdv_CFL_v_max              =   3.4495588877108E-03
(PID.TID 0000.0001) %MON trAdv_CFL_w_max              =   2.0567972794153E-03
(PID.TID 0000.0001) %MON advcfl_uvel_max              =   2.8495951698960E-03
(PID.TID 0000.0001) %MON advcfl_vvel_max              =   2.9203132082211E-03
(PID.TID 0000.0001) %MON advcfl_wvel_max              =   3.6648086879564E-03
(PID.TID 0000.0001) %MON advcfl_W_hf_max              =   2.6282057310532E-03
(PID.TID 0000.0001) %MON pe_b_mean                    =   5.0898978424177E-04
(PID.TID 0000.0001) %MON ke_max                       =   3.1395558601682E-01
(PID.TID 0000.0001) %MON ke_mean                      =   1.6506310322661E-04
(PID.TID 0000.0001) %MON ke_vol                       =   1.3398111802229E+18
(PID.TID 0000.0001) %MON vort_r_min                   =  -3.3688010010483E-06
(PID.TID 0000.0001) %MON vort_r_max                   =   4.0539933283823E-06
(PID.TID 0000.0001) %MON vort_a_mean                  =  -2.0549865324846E-05
(PID.TID 0000.0001) %MON vort_a_sd                    =   7.5259552827128E-05
(PID.TID 0000.0001) %MON vort_p_mean                  =  -2.4783310912328E-05
(PID.TID 0000.0001) %MON vort_p_sd                    =   1.2811912622199E-04
(PID.TID 0000.0001) %MON surfExpan_theta_mean         =  -6.2109401971059E-06
(PID.TID 0000.0001) %MON surfExpan_salt_mean          =   9.2023766114010E-07
(PID.TID 0000.0001) // =======================================================
(PID.TID 0000.0001) // End MONITOR dynamic field statistics
(PID.TID 0000.0001) // =======================================================
 cg2d: Sum(rhs),rhsMax =  -3.31717422395409E+01  6.36823530901588E+01
(PID.TID 0000.0001)      cg2d_init_res =   2.08632097712009E-01
(PID.TID 0000.0001)      cg2d_iters(min,last) =      -1      10
(PID.TID 0000.0001)      cg2d_last_res =   4.52676761800197E-08
(PID.TID 0000.0001) // =======================================================
(PID.TID 0000.0001) // Begin MONITOR dynamic field statistics
(PID.TID 0000.0001) // =======================================================
(PID.TID 0000.0001) %MON time_tsnumber                =                 72042
(PID.TID 0000.0001) %MON time_secondsf                =   6.4837800000000E+07
(PID.TID 0000.0001) %MON dynstat_eta_max              =   2.8384158251414E+00
(PID.TID 0000.0001) %MON dynstat_eta_min              =  -1.6086105295282E+00
(PID.TID 0000.0001) %MON dynstat_eta_mean             =   2.4546442424704E-02
(PID.TID 0000.0001) %MON dynstat_eta_sd               =   6.1759602993675E-01
(PID.TID 0000.0001) %MON dynstat_eta_del2             =   2.1874197265966E-03
(PID.TID 0000.0001) %MON dynstat_uvel_max             =   3.6375243595598E-01
(PID.TID 0000.0001) %MON dynstat_uvel_min             =  -8.0358255134372E-01
(PID.TID 0000.0001) %MON dynstat_uvel_mean            =  -4.8084830958818E-04
(PID.TID 0000.0001) %MON dynstat_uvel_sd              =   1.2963046274546E-02
(PID.TID 0000.0001) %MON dynstat_uvel_del2            =   8.6603136537037E-05
(PID.TID 0000.0001) %MON dynstat_vvel_max             =   9.1087006863128E-01
(PID.TID 0000.0001) %MON dynstat_vvel_min             =  -6.4358657353045E-01
(PID.TID 0000.0001) %MON dynstat_vvel_mean            =  -1.3136911223841E-04
(PID.TID 0000.0001) %MON dynstat_vvel_sd              =   1.3693669225345E-02
(PID.TID 0000.0001) %MON dynstat_vvel_del2            =   1.0968062194490E-04
(PID.TID 0000.0001) %MON dynstat_wvel_max             =   1.9930639207302E-04
(PID.TID 0000.0001) %MON dynstat_wvel_min             =  -2.0873620758109E-04
(PID.TID 0000.0001) %MON dynstat_wvel_mean            =  -4.3711413729961E-08
(PID.TID 0000.0001) %MON dynstat_wvel_sd              =   8.0063679564570E-06
(PID.TID 0000.0001) %MON dynstat_wvel_del2            =   7.4514886587540E-08
(PID.TID 0000.0001) %MON dynstat_theta_max            =   3.0925358865444E+01
(PID.TID 0000.0001) %MON dynstat_theta_min            =  -3.0044801695907E+00
(PID.TID 0000.0001) %MON dynstat_theta_mean           =   3.9091403936789E+00
(PID.TID 0000.0001) %MON dynstat_theta_sd             =   4.5714249683093E+00
(PID.TID 0000.0001) %MON dynstat_theta_del2           =   2.6439664658068E-03
(PID.TID 0000.0001) %MON dynstat_salt_max             =   4.1353649897114E+01
(PID.TID 0000.0001) %MON dynstat_salt_min             =   1.8518794618878E+01
(PID.TID 0000.0001) %MON dynstat_salt_mean            =   3.4771990147123E+01
(PID.TID 0000.0001) %MON dynstat_salt_sd              =   5.3166904129452E-01
(PID.TID 0000.0001) %MON dynstat_salt_del2            =   9.8852052477018E-04
(PID.TID 0000.0001) %MON dynstat_sst_max              =   3.0925358865444E+01
(PID.TID 0000.0001) %MON dynstat_sst_min              =  -1.8972926946775E+00
(PID.TID 0000.0001) %MON dynstat_sst_mean             =   1.8108533462202E+01
(PID.TID 0000.0001) %MON dynstat_sst_sd               =   9.8102012711420E+00
(PID.TID 0000.0001) %MON dynstat_sst_del2             =   1.5068261489089E-02
(PID.TID 0000.0001) %MON dynstat_sss_max              =   4.1353649897114E+01
(PID.TID 0000.0001) %MON dynstat_sss_min              =   1.8751489483971E+01
(PID.TID 0000.0001) %MON dynstat_sss_mean             =   3.4627074263500E+01
(PID.TID 0000.0001) %MON dynstat_sss_sd               =   1.4752943444184E+00
(PID.TID 0000.0001) %MON dynstat_sss_del2             =   1.0802394754688E-02
(PID.TID 0000.0001) %MON forcing_qnet_max             =   2.4167386914211E+03
(PID.TID 0000.0001) %MON forcing_qnet_min             =  -1.0642572265625E+04
(PID.TID 0000.0001) %MON forcing_qnet_mean            =   2.0875422548362E+01
(PID.TID 0000.0001) %MON forcing_qnet_sd              =   2.5583289744330E+02
(PID.TID 0000.0001) %MON forcing_qnet_del2            =   8.8069678452989E+00
(PID.TID 0000.0001) %MON forcing_qsw_max              =   0.0000000000000E+00
(PID.TID 0000.0001) %MON forcing_qsw_min              =  -1.0621287247855E+02
(PID.TID 0000.0001) %MON forcing_qsw_mean             =  -1.2987629224149E+01
(PID.TID 0000.0001) %MON forcing_qsw_sd               =   2.4625837982906E+01
(PID.TID 0000.0001) %MON forcing_qsw_del2             =   1.9658739415401E-01
(PID.TID 0000.0001) %MON forcing_empmr_max            =   7.2544217109680E-03
(PID.TID 0000.0001) %MON forcing_empmr_min            =  -1.0427747666836E-01
(PID.TID 0000.0001) %MON forcing_empmr_mean           =  -3.1057468789551E-04
(PID.TID 0000.0001) %MON forcing_empmr_sd             =   4.5924643437445E-03
(PID.TID 0000.0001) %MON forcing_empmr_del2           =   1.8133044618065E-04
(PID.TID 0000.0001) %MON forcing_fu_max               =   3.5804008188523E-01
(PID.TID 0000.0001) %MON forcing_fu_min               =  -3.6159891121528E-01
(PID.TID 0000.0001) %MON forcing_fu_mean              =  -3.9257762665394E-03
(PID.TID 0000.0001) %MON forcing_fu_sd                =   6.2683543902424E-02
(PID.TID 0000.0001) %MON forcing_fu_del2              =   6.1526833867685E-04
(PID.TID 0000.0001) %MON forcing_fv_max               =   3.3239202509076E-01
(PID.TID 0000.0001) %MON forcing_fv_min               =  -2.8800262060957E-01
(PID.TID 0000.0001) %MON forcing_fv_mean              =  -1.3674840131303E-02
(PID.TID 0000.0001) %MON forcing_fv_sd                =   6.5040140433358E-02
(PID.TID 0000.0001) %MON forcing_fv_del2              =   5.5882245110338E-04
(PID.TID 0000.0001) %MON trAdv_CFL_u_max              =   2.7139897126632E-03
(PID.TID 0000.0001) %MON trAdv_CFL_v_max              =   3.0241210023624E-03
(PID.TID 0000.0001) %MON trAdv_CFL_w_max              =   2.0944222196509E-03
(PID.TID 0000.0001) %MON advcfl_uvel_max              =   2.6400461027908E-03
(PID.TID 0000.0001) %MON advcfl_vvel_max              =   2.7296675579966E-03
(PID.TID 0000.0001) %MON advcfl_wvel_max              =   3.6270426667255E-03
(PID.TID 0000.0001) %MON advcfl_W_hf_max              =   2.5626110342173E-03
(PID.TID 0000.0001) %MON pe_b_mean                    =   5.0892771713085E-04
(PID.TID 0000.0001) %MON ke_max                       =   2.7052061511111E-01
(PID.TID 0000.0001) %MON ke_mean                      =   1.6430949021086E-04
(PID.TID 0000.0001) %MON ke_vol                       =   1.3398112792146E+18
(PID.TID 0000.0001) %MON vort_r_min                   =  -2.9582998900411E-06
(PID.TID 0000.0001) %MON vort_r_max                   =   4.0045987049431E-06
(PID.TID 0000.0001) %MON vort_a_mean                  =  -2.0549865324846E-05
(PID.TID 0000.0001) %MON vort_a_sd                    =   7.5259563745953E-05
(PID.TID 0000.0001) %MON vort_p_mean                  =  -2.4783309317140E-05
(PID.TID 0000.0001) %MON vort_p_sd                    =   1.2811912517614E-04
(PID.TID 0000.0001) %MON surfExpan_theta_mean         =  -6.1668046323676E-06
(PID.TID 0000.0001) %MON surfExpan_salt_mean          =   9.3516823865274E-07
(PID.TID 0000.0001) // =======================================================
(PID.TID 0000.0001) // End MONITOR dynamic field statistics
(PID.TID 0000.0001) // =======================================================
 cg2d: Sum(rhs),rhsMax =  -3.26798653862683E+01  6.53447158377823E+01
(PID.TID 0000.0001)      cg2d_init_res =   1.92816906843199E-01
(PID.TID 0000.0001)      cg2d_iters(min,last) =      -1      10
(PID.TID 0000.0001)      cg2d_last_res =   3.38333109954337E-08
(PID.TID 0000.0001) // =======================================================
(PID.TID 0000.0001) // Begin MONITOR dynamic field statistics
(PID.TID 0000.0001) // =======================================================
(PID.TID 0000.0001) %MON time_tsnumber                =                 72043
(PID.TID 0000.0001) %MON time_secondsf                =   6.4838700000000E+07
(PID.TID 0000.0001) %MON dynstat_eta_max              =   2.9120169081945E+00
(PID.TID 0000.0001) %MON dynstat_eta_min              =  -1.6082570217239E+00
(PID.TID 0000.0001) %MON dynstat_eta_mean             =   2.4813721631907E-02
(PID.TID 0000.0001) %MON dynstat_eta_sd               =   6.1756324908805E-01
(PID.TID 0000.0001) %MON dynstat_eta_del2             =   2.2591513551404E-03
(PID.TID 0000.0001) %MON dynstat_uvel_max             =   3.6487697130597E-01
(PID.TID 0000.0001) %MON dynstat_uvel_min             =  -7.5271212378384E-01
(PID.TID 0000.0001) %MON dynstat_uvel_mean            =  -4.9753230441107E-04
(PID.TID 0000.0001) %MON dynstat_uvel_sd              =   1.2926312764003E-02
(PID.TID 0000.0001) %MON dynstat_uvel_del2            =   8.6659076666200E-05
(PID.TID 0000.0001) %MON dynstat_vvel_max             =   8.3977159458478E-01
(PID.TID 0000.0001) %MON dynstat_vvel_min             =  -5.3168758779662E-01
(PID.TID 0000.0001) %MON dynstat_vvel_mean            =  -8.2428164845211E-05
(PID.TID 0000.0001) %MON dynstat_vvel_sd              =   1.3670680070961E-02
(PID.TID 0000.0001) %MON dynstat_vvel_del2            =   1.0560504872457E-04
(PID.TID 0000.0001) %MON dynstat_wvel_max             =   1.9357200999762E-04
(PID.TID 0000.0001) %MON dynstat_wvel_min             =  -2.1203631513260E-04
(PID.TID 0000.0001) %MON dynstat_wvel_mean            =  -6.1452601845346E-08
(PID.TID 0000.0001) %MON dynstat_wvel_sd              =   7.9625652895623E-06
(PID.TID 0000.0001) %MON dynstat_wvel_del2            =   7.4634803384671E-08
(PID.TID 0000.0001) %MON dynstat_theta_max            =   3.0925516383865E+01
(PID.TID 0000.0001) %MON dynstat_theta_min            =  -3.0043709588551E+00
(PID.TID 0000.0001) %MON dynstat_theta_mean           =   3.9091406891458E+00
(PID.TID 0000.0001) %MON dynstat_theta_sd             =   4.5714265305345E+00
(PID.TID 0000.0001) %MON dynstat_theta_del2           =   2.6438557143988E-03
(PID.TID 0000.0001) %MON dynstat_salt_max             =   4.1353301138567E+01
(PID.TID 0000.0001) %MON dynstat_salt_min             =   1.8518805130282E+01
(PID.TID 0000.0001) %MON dynstat_salt_mean            =   3.4771987067719E+01
(PID.TID 0000.0001) %MON dynstat_salt_sd              =   5.3168700201163E-01
(PID.TID 0000.0001) %MON dynstat_salt_del2            =   9.9331079825025E-04
(PID.TID 0000.0001) %MON dynstat_sst_max              =   3.0925516383865E+01
(PID.TID 0000.0001) %MON dynstat_sst_min              =  -1.8972051415702E+00
(PID.TID 0000.0001) %MON dynstat_sst_mean             =   1.8108464628105E+01
(PID.TID 0000.0001) %MON dynstat_sst_sd               =   9.8102839426489E+00
(PID.TID 0000.0001) %MON dynstat_sst_del2             =   1.5066120413245E-02
(PID.TID 0000.0001) %MON dynstat_sss_max              =   4.1353301138567E+01
(PID.TID 0000.0001) %MON dynstat_sss_min              =   1.8751507418975E+01
(PID.TID 0000.0001) %MON dynstat_sss_mean             =   3.4626859120539E+01
(PID.TID 0000.0001) %MON dynstat_sss_sd               =   1.4757449579056E+00
(PID.TID 0000.0001) %MON dynstat_sss_del2             =   1.0871498789272E-02
(PID.TID 0000.0001) %MON forcing_qnet_max             =   2.3857567915084E+03
(PID.TID 0000.0001) %MON forcing_qnet_min             =  -1.4919276094110E+03
(PID.TID 0000.0001) %MON forcing_qnet_mean            =   2.4068933678841E+01
(PID.TID 0000.0001) %MON forcing_qnet_sd              =   2.0770140695834E+02
(PID.TID 0000.0001) %MON forcing_qnet_del2            =   4.4540515049117E+00
(PID.TID 0000.0001) %MON forcing_qsw_max              =   0.0000000000000E+00
(PID.TID 0000.0001) %MON forcing_qsw_min              =  -1.0713853425897E+02
(PID.TID 0000.0001) %MON forcing_qsw_mean             =  -1.2905777646193E+01
(PID.TID 0000.0001) %MON forcing_qsw_sd               =   2.4531857671600E+01
(PID.TID 0000.0001) %MON forcing_qsw_del2             =   1.9507018819128E-01
(PID.TID 0000.0001) %MON forcing_empmr_max            =   7.1797329001129E-03
(PID.TID 0000.0001) %MON forcing_empmr_min            =  -1.0320343822241E-01
(PID.TID 0000.0001) %MON forcing_empmr_mean           =  -3.0737108828318E-04
(PID.TID 0000.0001) %MON forcing_empmr_sd             =   4.5451952095939E-03
(PID.TID 0000.0001) %MON forcing_empmr_del2           =   1.7946159331948E-04
(PID.TID 0000.0001) %MON forcing_fu_max               =   3.6139962188167E-01
(PID.TID 0000.0001) %MON forcing_fu_min               =  -3.6153293891722E-01
(PID.TID 0000.0001) %MON forcing_fu_mean              =  -3.8471930945881E-03
(PID.TID 0000.0001) %MON forcing_fu_sd                =   6.2727289870311E-02
(PID.TID 0000.0001) %MON forcing_fu_del2              =   6.1599539943784E-04
(PID.TID 0000.0001) %MON forcing_fv_max               =   3.3228082013096E-01
(PID.TID 0000.0001) %MON forcing_fv_min               =  -2.8910825727325E-01
(PID.TID 0000.0001) %MON forcing_fv_mean              =  -1.3885318151547E-02
(PID.TID 0000.0001) %MON forcing_fv_sd                =   6.4910621971908E-02
(PID.TID 0000.0001) %MON forcing_fv_del2              =   5.5772855237860E-04
(PID.TID 0000.0001) %MON trAdv_CFL_u_max              =   2.4625778935011E-03
(PID.TID 0000.0001) %MON trAdv_CFL_v_max              =   2.5784360604005E-03
(PID.TID 0000.0001) %MON trAdv_CFL_w_max              =   2.1147719391740E-03
(PID.TID 0000.0001) %MON advcfl_uvel_max              =   2.3893998465674E-03
(PID.TID 0000.0001) %MON advcfl_vvel_max              =   2.5166018258890E-03
(PID.TID 0000.0001) %MON advcfl_wvel_max              =   3.5896848077359E-03
(PID.TID 0000.0001) %MON advcfl_W_hf_max              =   2.4888641260926E-03
(PID.TID 0000.0001) %MON pe_b_mean                    =   5.0889131589684E-04
(PID.TID 0000.0001) %MON ke_max                       =   2.2601540460114E-01
(PID.TID 0000.0001) %MON ke_mean                      =   1.6358335205679E-04
(PID.TID 0000.0001) %MON ke_vol                       =   1.3398113774876E+18
(PID.TID 0000.0001) %MON vort_r_min                   =  -2.5314250810160E-06
(PID.TID 0000.0001) %MON vort_r_max                   =   3.8668781019574E-06
(PID.TID 0000.0001) %MON vort_a_mean                  =  -2.0549865324846E-05
(PID.TID 0000.0001) %MON vort_a_sd                    =   7.5259575188118E-05
(PID.TID 0000.0001) %MON vort_p_mean                  =  -2.4783307716273E-05
(PID.TID 0000.0001) %MON vort_p_sd                    =   1.2811911933546E-04
(PID.TID 0000.0001) %MON surfExpan_theta_mean         =  -6.1286844749639E-06
(PID.TID 0000.0001) %MON surfExpan_salt_mean          =   9.5440814720752E-07
(PID.TID 0000.0001) // =======================================================
(PID.TID 0000.0001) // End MONITOR dynamic field statistics
(PID.TID 0000.0001) // =======================================================
 Computing Diagnostic #     81  oceTAUX      Counter:       1   Parms: UU      U1      
           Vector  Mate for  oceTAUX      Diagnostic #     82  oceTAUY  exists 
 Computing Diagnostic #     82  oceTAUY      Counter:       1   Parms: VV      U1      
           Vector  Mate for  oceTAUY      Diagnostic #     81  oceTAUX  exists 
 Computing Diagnostic #     85  oceFWflx     Counter:       1   Parms: SM      U1      
 Computing Diagnostic #     86  oceSflux     Counter:       1   Parms: SM      U1      
 Computing Diagnostic #     87  oceQnet      Counter:       1   Parms: SM      U1      
 Computing Diagnostic #     88  oceQsw       Counter:       1   Parms: SM      U1      
 Computing Diagnostic #     27  SALT         Counter:       1   Parms: SMR     MR      
 Computing Diagnostic #     26  THETA        Counter:       1   Parms: SMR     MR      
 Computing Diagnostic #     45  UVELMASS     Counter:       1   Parms: UUr     MR      
           Vector  Mate for  UVELMASS     Diagnostic #     46  VVELMASS exists 
 Computing Diagnostic #     46  VVELMASS     Counter:       1   Parms: VVr     MR      
           Vector  Mate for  VVELMASS     Diagnostic #     45  UVELMASS exists 
 Computing Diagnostic #     83  atmPload     Counter:       1   Parms: SM      U1      
 cg2d: Sum(rhs),rhsMax =  -3.23581188702897E+01  6.66985810213046E+01
(PID.TID 0000.0001)      cg2d_init_res =   1.78248691547867E-01
(PID.TID 0000.0001)      cg2d_iters(min,last) =      -1      10
(PID.TID 0000.0001)      cg2d_last_res =   5.74498732951123E-08
(PID.TID 0000.0001) // =======================================================
(PID.TID 0000.0001) // Begin MONITOR dynamic field statistics
(PID.TID 0000.0001) // =======================================================
(PID.TID 0000.0001) %MON time_tsnumber                =                 72044
(PID.TID 0000.0001) %MON time_secondsf                =   6.4839600000000E+07
(PID.TID 0000.0001) %MON dynstat_eta_max              =   2.9719217289672E+00
(PID.TID 0000.0001) %MON dynstat_eta_min              =  -1.6076344567025E+00
(PID.TID 0000.0001) %MON dynstat_eta_mean             =   2.5078469805580E-02
(PID.TID 0000.0001) %MON dynstat_eta_sd               =   6.1752818285756E-01
(PID.TID 0000.0001) %MON dynstat_eta_del2             =   2.3285403425540E-03
(PID.TID 0000.0001) %MON dynstat_uvel_max             =   3.6423840455196E-01
(PID.TID 0000.0001) %MON dynstat_uvel_min             =  -6.9566825832246E-01
(PID.TID 0000.0001) %MON dynstat_uvel_mean            =  -5.1091877985030E-04
(PID.TID 0000.0001) %MON dynstat_uvel_sd              =   1.2885064501314E-02
(PID.TID 0000.0001) %MON dynstat_uvel_del2            =   8.6825330693535E-05
(PID.TID 0000.0001) %MON dynstat_vvel_max             =   7.6267038505318E-01
(PID.TID 0000.0001) %MON dynstat_vvel_min             =  -4.1580425957021E-01
(PID.TID 0000.0001) %MON dynstat_vvel_mean            =  -3.2229518498792E-05
(PID.TID 0000.0001) %MON dynstat_vvel_sd              =   1.3656709106112E-02
(PID.TID 0000.0001) %MON dynstat_vvel_del2            =   1.0150618545975E-04
(PID.TID 0000.0001) %MON dynstat_wvel_max             =   1.8748411544400E-04
(PID.TID 0000.0001) %MON dynstat_wvel_min             =  -2.1401409758246E-04
(PID.TID 0000.0001) %MON dynstat_wvel_mean            =  -8.2217020128231E-08
(PID.TID 0000.0001) %MON dynstat_wvel_sd              =   7.9261985875615E-06
(PID.TID 0000.0001) %MON dynstat_wvel_del2            =   7.4808000930935E-08
(PID.TID 0000.0001) %MON dynstat_theta_max            =   3.0925666027532E+01
(PID.TID 0000.0001) %MON dynstat_theta_min            =  -3.0042851193215E+00
(PID.TID 0000.0001) %MON dynstat_theta_mean           =   3.9091409135055E+00
(PID.TID 0000.0001) %MON dynstat_theta_sd             =   4.5714277811500E+00
(PID.TID 0000.0001) %MON dynstat_theta_del2           =   2.6437375394691E-03
(PID.TID 0000.0001) %MON dynstat_salt_max             =   4.1352948517973E+01
(PID.TID 0000.0001) %MON dynstat_salt_min             =   1.8518815626570E+01
(PID.TID 0000.0001) %MON dynstat_salt_mean            =   3.4771984041574E+01
(PID.TID 0000.0001) %MON dynstat_salt_sd              =   5.3170479125447E-01
(PID.TID 0000.0001) %MON dynstat_salt_del2            =   9.9803210614230E-04
(PID.TID 0000.0001) %MON dynstat_sst_max              =   3.0925666027532E+01
(PID.TID 0000.0001) %MON dynstat_sst_min              =  -1.8971287383083E+00
(PID.TID 0000.0001) %MON dynstat_sst_mean             =   1.8108387311322E+01
(PID.TID 0000.0001) %MON dynstat_sst_sd               =   9.8103641507080E+00
(PID.TID 0000.0001) %MON dynstat_sst_del2             =   1.5063889501373E-02
(PID.TID 0000.0001) %MON dynstat_sss_max              =   4.1352948517973E+01
(PID.TID 0000.0001) %MON dynstat_sss_min              =   1.8751527872216E+01
(PID.TID 0000.0001) %MON dynstat_sss_mean             =   3.4626646903133E+01
(PID.TID 0000.0001) %MON dynstat_sss_sd               =   1.4761908620401E+00
(PID.TID 0000.0001) %MON dynstat_sss_del2             =   1.0939515770520E-02
(PID.TID 0000.0001) %MON forcing_qnet_max             =   2.3576234266023E+03
(PID.TID 0000.0001) %MON forcing_qnet_min             =  -1.4708432325309E+03
(PID.TID 0000.0001) %MON forcing_qnet_mean            =   2.5149812759494E+01
(PID.TID 0000.0001) %MON forcing_qnet_sd              =   2.0574629298297E+02
(PID.TID 0000.0001) %MON forcing_qnet_del2            =   4.3699572532929E+00
(PID.TID 0000.0001) %MON forcing_qsw_max              =   0.0000000000000E+00
(PID.TID 0000.0001) %MON forcing_qsw_min              =  -1.0798538525194E+02
(PID.TID 0000.0001) %MON forcing_qsw_mean             =  -1.2810145861873E+01
(PID.TID 0000.0001) %MON forcing_qsw_sd               =   2.4377921865598E+01
(PID.TID 0000.0001) %MON forcing_qsw_del2             =   1.9346707789436E-01
(PID.TID 0000.0001) %MON forcing_empmr_max            =   7.1056350134313E-03
(PID.TID 0000.0001) %MON forcing_empmr_min            =  -1.0213948041201E-01
(PID.TID 0000.0001) %MON forcing_empmr_mean           =  -3.0446039972403E-04
(PID.TID 0000.0001) %MON forcing_empmr_sd             =   4.4984106200013E-03
(PID.TID 0000.0001) %MON forcing_empmr_del2           =   1.7760317987093E-04
(PID.TID 0000.0001) %MON forcing_fu_max               =   3.6372056662142E-01
(PID.TID 0000.0001) %MON forcing_fu_min               =  -3.6126215176071E-01
(PID.TID 0000.0001) %MON forcing_fu_mean              =  -3.8403699883460E-03
(PID.TID 0000.0001) %MON forcing_fu_sd                =   6.2625876390717E-02
(PID.TID 0000.0001) %MON forcing_fu_del2              =   6.1552047274878E-04
(PID.TID 0000.0001) %MON forcing_fv_max               =   3.3400806908846E-01
(PID.TID 0000.0001) %MON forcing_fv_min               =  -2.8939502251522E-01
(PID.TID 0000.0001) %MON forcing_fv_mean              =  -1.4068986883782E-02
(PID.TID 0000.0001) %MON forcing_fv_sd                =   6.4796838336631E-02
(PID.TID 0000.0001) %MON forcing_fv_del2              =   5.5667536147562E-04
(PID.TID 0000.0001) %MON trAdv_CFL_u_max              =   2.1728869567842E-03
(PID.TID 0000.0001) %MON trAdv_CFL_v_max              =   2.3065717127206E-03
(PID.TID 0000.0001) %MON trAdv_CFL_w_max              =   2.1170999717339E-03
(PID.TID 0000.0001) %MON advcfl_uvel_max              =   2.1036524019534E-03
(PID.TID 0000.0001) %MON advcfl_vvel_max              =   2.2855472797045E-03
(PID.TID 0000.0001) %MON advcfl_wvel_max              =   3.5526775795480E-03
(PID.TID 0000.0001) %MON advcfl_W_hf_max              =   2.4105745627008E-03
(PID.TID 0000.0001) %MON pe_b_mean                    =   5.0885117895232E-04
(PID.TID 0000.0001) %MON ke_max                       =   1.8244793676914E-01
(PID.TID 0000.0001) %MON ke_mean                      =   1.6292062730605E-04
(PID.TID 0000.0001) %MON ke_vol                       =   1.3398114747470E+18
(PID.TID 0000.0001) %MON vort_r_min                   =  -2.6097048534066E-06
(PID.TID 0000.0001) %MON vort_r_max                   =   3.6470064402786E-06
(PID.TID 0000.0001) %MON vort_a_mean                  =  -2.0549865324846E-05
(PID.TID 0000.0001) %MON vort_a_sd                    =   7.5259586979746E-05
(PID.TID 0000.0001) %MON vort_p_mean                  =  -2.4783306107152E-05
(PID.TID 0000.0001) %MON vort_p_sd                    =   1.2811910931653E-04
(PID.TID 0000.0001) %MON surfExpan_theta_mean         =  -6.1209735792049E-06
(PID.TID 0000.0001) %MON surfExpan_salt_mean          =   9.7831498005796E-07
(PID.TID 0000.0001) // =======================================================
(PID.TID 0000.0001) // End MONITOR dynamic field statistics
(PID.TID 0000.0001) // =======================================================
 cg2d: Sum(rhs),rhsMax =  -3.22025248430191E+01  6.77237642210970E+01
(PID.TID 0000.0001)      cg2d_init_res =   1.65146956713864E-01
(PID.TID 0000.0001)      cg2d_iters(min,last) =      -1      10
(PID.TID 0000.0001)      cg2d_last_res =   6.90079981882456E-08
(PID.TID 0000.0001) // =======================================================
(PID.TID 0000.0001) // Begin MONITOR dynamic field statistics
(PID.TID 0000.0001) // =======================================================
(PID.TID 0000.0001) %MON time_tsnumber                =                 72045
(PID.TID 0000.0001) %MON time_secondsf                =   6.4840500000000E+07
(PID.TID 0000.0001) %MON dynstat_eta_max              =   3.0172360461814E+00
(PID.TID 0000.0001) %MON dynstat_eta_min              =  -1.6067197646440E+00
(PID.TID 0000.0001) %MON dynstat_eta_mean             =   2.5341492321354E-02
(PID.TID 0000.0001) %MON dynstat_eta_sd               =   6.1747192940730E-01
(PID.TID 0000.0001) %MON dynstat_eta_del2             =   2.3896195285359E-03
(PID.TID 0000.0001) %MON dynstat_uvel_max             =   3.6182777114361E-01
(PID.TID 0000.0001) %MON dynstat_uvel_min             =  -6.3307044662257E-01
(PID.TID 0000.0001) %MON dynstat_uvel_mean            =  -5.2098172778368E-04
(PID.TID 0000.0001) %MON dynstat_uvel_sd              =   1.2841959336071E-02
(PID.TID 0000.0001) %MON dynstat_uvel_del2            =   8.7130415303945E-05
(PID.TID 0000.0001) %MON dynstat_vvel_max             =   6.8104490488784E-01
(PID.TID 0000.0001) %MON dynstat_vvel_min             =  -4.0298661394199E-01
(PID.TID 0000.0001) %MON dynstat_vvel_mean            =   1.8527370783941E-05
(PID.TID 0000.0001) %MON dynstat_vvel_sd              =   1.3651984526553E-02
(PID.TID 0000.0001) %MON dynstat_vvel_del2            =   9.7557184032477E-05
(PID.TID 0000.0001) %MON dynstat_wvel_max             =   1.8130327228252E-04
(PID.TID 0000.0001) %MON dynstat_wvel_min             =  -2.1455565000903E-04
(PID.TID 0000.0001) %MON dynstat_wvel_mean            =  -1.0593818806075E-07
(PID.TID 0000.0001) %MON dynstat_wvel_sd              =   7.8985428506461E-06
(PID.TID 0000.0001) %MON dynstat_wvel_del2            =   7.5037469175613E-08
(PID.TID 0000.0001) %MON dynstat_theta_max            =   3.0925787424441E+01
(PID.TID 0000.0001) %MON dynstat_theta_min            =  -3.0042276439112E+00
(PID.TID 0000.0001) %MON dynstat_theta_mean           =   3.9091411766990E+00
(PID.TID 0000.0001) %MON dynstat_theta_sd             =   4.5714290411360E+00
(PID.TID 0000.0001) %MON dynstat_theta_del2           =   2.6436089830169E-03
(PID.TID 0000.0001) %MON dynstat_salt_max             =   4.1352593678669E+01
(PID.TID 0000.0001) %MON dynstat_salt_min             =   1.8518826103811E+01
(PID.TID 0000.0001) %MON dynstat_salt_mean            =   3.4771981061351E+01
(PID.TID 0000.0001) %MON dynstat_salt_sd              =   5.3172239649031E-01
(PID.TID 0000.0001) %MON dynstat_salt_del2            =   1.0026838526415E-03
(PID.TID 0000.0001) %MON dynstat_sst_max              =   3.0925787424441E+01
(PID.TID 0000.0001) %MON dynstat_sst_min              =  -1.8970648679498E+00
(PID.TID 0000.0001) %MON dynstat_sst_mean             =   1.8108311119709E+01
(PID.TID 0000.0001) %MON dynstat_sst_sd               =   9.8104420447984E+00
(PID.TID 0000.0001) %MON dynstat_sst_del2             =   1.5061495699956E-02
(PID.TID 0000.0001) %MON dynstat_sss_max              =   4.1352593678669E+01
(PID.TID 0000.0001) %MON dynstat_sss_min              =   1.8751551034947E+01
(PID.TID 0000.0001) %MON dynstat_sss_mean             =   3.4626437830234E+01
(PID.TID 0000.0001) %MON dynstat_sss_sd               =   1.4766320284803E+00
(PID.TID 0000.0001) %MON dynstat_sss_del2             =   1.1006440966472E-02
(PID.TID 0000.0001) %MON forcing_qnet_max             =   2.3277096902100E+03
(PID.TID 0000.0001) %MON forcing_qnet_min             =  -1.4497444749939E+03
(PID.TID 0000.0001) %MON forcing_qnet_mean            =   2.4450385099133E+01
(PID.TID 0000.0001) %MON forcing_qnet_sd              =   2.0455530396175E+02
(PID.TID 0000.0001) %MON forcing_qnet_del2            =   4.3535613422833E+00
(PID.TID 0000.0001) %MON forcing_qsw_max              =   0.0000000000000E+00
(PID.TID 0000.0001) %MON forcing_qsw_min              =  -1.0997555929473E+02
(PID.TID 0000.0001) %MON forcing_qsw_mean             =  -1.2819122187159E+01
(PID.TID 0000.0001) %MON forcing_qsw_sd               =   2.4240352038489E+01
(PID.TID 0000.0001) %MON forcing_qsw_del2             =   1.9219203253580E-01
(PID.TID 0000.0001) %MON forcing_empmr_max            =   7.0324228145182E-03
(PID.TID 0000.0001) %MON forcing_empmr_min            =  -1.0108726471663E-01
(PID.TID 0000.0001) %MON forcing_empmr_mean           =  -3.0247589314055E-04
(PID.TID 0000.0001) %MON forcing_empmr_sd             =   4.4520069595711E-03
(PID.TID 0000.0001) %MON forcing_empmr_del2           =   1.7575462005607E-04
(PID.TID 0000.0001) %MON forcing_fu_max               =   3.6466307093069E-01
(PID.TID 0000.0001) %MON forcing_fu_min               =  -3.6185214096962E-01
(PID.TID 0000.0001) %MON forcing_fu_mean              =  -3.8312295139709E-03
(PID.TID 0000.0001) %MON forcing_fu_sd                =   6.2518402163510E-02
(PID.TID 0000.0001) %MON forcing_fu_del2              =   6.1517067400342E-04
(PID.TID 0000.0001) %MON forcing_fv_max               =   3.3228801820791E-01
(PID.TID 0000.0001) %MON forcing_fv_min               =  -2.9021309942988E-01
(PID.TID 0000.0001) %MON forcing_fv_mean              =  -1.4219906110245E-02
(PID.TID 0000.0001) %MON forcing_fv_sd                =   6.4620921948648E-02
(PID.TID 0000.0001) %MON forcing_fv_del2              =   5.5516310177805E-04
(PID.TID 0000.0001) %MON trAdv_CFL_u_max              =   1.9163529223482E-03
(PID.TID 0000.0001) %MON trAdv_CFL_v_max              =   2.0655387437326E-03
(PID.TID 0000.0001) %MON trAdv_CFL_w_max              =   2.1006684569961E-03
(PID.TID 0000.0001) %MON advcfl_uvel_max              =   1.8632763924733E-03
(PID.TID 0000.0001) %MON advcfl_vvel_max              =   2.0409345376830E-03
(PID.TID 0000.0001) %MON advcfl_wvel_max              =   3.5160787727522E-03
(PID.TID 0000.0001) %MON advcfl_W_hf_max              =   2.3310923854193E-03
(PID.TID 0000.0001) %MON pe_b_mean                    =   5.0877625885853E-04
(PID.TID 0000.0001) %MON ke_max                       =   1.4158534289371E-01
(PID.TID 0000.0001) %MON ke_mean                      =   1.6235575544197E-04
(PID.TID 0000.0001) %MON ke_vol                       =   1.3398115710853E+18
(PID.TID 0000.0001) %MON vort_r_min                   =  -2.6849108300301E-06
(PID.TID 0000.0001) %MON vort_r_max                   =   3.3525724218916E-06
(PID.TID 0000.0001) %MON vort_a_mean                  =  -2.0549865324846E-05
(PID.TID 0000.0001) %MON vort_a_sd                    =   7.5259598958744E-05
(PID.TID 0000.0001) %MON vort_p_mean                  =  -2.4783304478875E-05
(PID.TID 0000.0001) %MON vort_p_sd                    =   1.2811909588868E-04
(PID.TID 0000.0001) %MON surfExpan_theta_mean         =  -6.1508080802634E-06
(PID.TID 0000.0001) %MON surfExpan_salt_mean          =   1.0053842410658E-06
(PID.TID 0000.0001) // =======================================================
(PID.TID 0000.0001) // End MONITOR dynamic field statistics
(PID.TID 0000.0001) // =======================================================
 cg2d: Sum(rhs),rhsMax =  -3.22094111412713E+01  6.84037837923611E+01
(PID.TID 0000.0001)      cg2d_init_res =   1.53904694834826E-01
(PID.TID 0000.0001)      cg2d_iters(min,last) =      -1      10
(PID.TID 0000.0001)      cg2d_last_res =   7.35551060973228E-08
(PID.TID 0000.0001) // =======================================================
(PID.TID 0000.0001) // Begin MONITOR dynamic field statistics
(PID.TID 0000.0001) // =======================================================
(PID.TID 0000.0001) %MON time_tsnumber                =                 72046
(PID.TID 0000.0001) %MON time_secondsf                =   6.4841400000000E+07
(PID.TID 0000.0001) %MON dynstat_eta_max              =   3.0472292619824E+00
(PID.TID 0000.0001) %MON dynstat_eta_min              =  -1.6055094027616E+00
(PID.TID 0000.0001) %MON dynstat_eta_mean             =   2.5601421737280E-02
(PID.TID 0000.0001) %MON dynstat_eta_sd               =   6.1737661764042E-01
(PID.TID 0000.0001) %MON dynstat_eta_del2             =   2.4376098799485E-03
(PID.TID 0000.0001) %MON dynstat_uvel_max             =   3.5765114419775E-01
(PID.TID 0000.0001) %MON dynstat_uvel_min             =  -5.6562086658506E-01
(PID.TID 0000.0001) %MON dynstat_uvel_mean            =  -5.2771430378099E-04
(PID.TID 0000.0001) %MON dynstat_uvel_sd              =   1.2799761303767E-02
(PID.TID 0000.0001) %MON dynstat_uvel_del2            =   8.7591633671086E-05
(PID.TID 0000.0001) %MON dynstat_vvel_max             =   5.9634495222613E-01
(PID.TID 0000.0001) %MON dynstat_vvel_min             =  -3.9808076957159E-01
(PID.TID 0000.0001) %MON dynstat_vvel_mean            =   6.9138694655337E-05
(PID.TID 0000.0001) %MON dynstat_vvel_sd              =   1.3656261587089E-02
(PID.TID 0000.0001) %MON dynstat_vvel_del2            =   9.3942594436281E-05
(PID.TID 0000.0001) %MON dynstat_wvel_max             =   1.7525272982201E-04
(PID.TID 0000.0001) %MON dynstat_wvel_min             =  -2.1355215772116E-04
(PID.TID 0000.0001) %MON dynstat_wvel_mean            =  -1.3061656537442E-07
(PID.TID 0000.0001) %MON dynstat_wvel_sd              =   7.8806257957994E-06
(PID.TID 0000.0001) %MON dynstat_wvel_del2            =   7.5322063463155E-08
(PID.TID 0000.0001) %MON dynstat_theta_max            =   3.0925898265862E+01
(PID.TID 0000.0001) %MON dynstat_theta_min            =  -3.0042027674284E+00
(PID.TID 0000.0001) %MON dynstat_theta_mean           =   3.9091414526593E+00
(PID.TID 0000.0001) %MON dynstat_theta_sd             =   4.5714303016738E+00
(PID.TID 0000.0001) %MON dynstat_theta_del2           =   2.6434691093683E-03
(PID.TID 0000.0001) %MON dynstat_salt_max             =   4.1352238441766E+01
(PID.TID 0000.0001) %MON dynstat_salt_min             =   1.8518836559804E+01
(PID.TID 0000.0001) %MON dynstat_salt_mean            =   3.4771978148636E+01
(PID.TID 0000.0001) %MON dynstat_salt_sd              =   5.3173981972041E-01
(PID.TID 0000.0001) %MON dynstat_salt_del2            =   1.0072661443626E-03
(PID.TID 0000.0001) %MON dynstat_sst_max              =   3.0925898265862E+01
(PID.TID 0000.0001) %MON dynstat_sst_min              =  -1.8970158634633E+00
(PID.TID 0000.0001) %MON dynstat_sst_mean             =   1.8108235660474E+01
(PID.TID 0000.0001) %MON dynstat_sst_sd               =   9.8105197238959E+00
(PID.TID 0000.0001) %MON dynstat_sst_del2             =   1.5058877168299E-02
(PID.TID 0000.0001) %MON dynstat_sss_max              =   4.1352238441766E+01
(PID.TID 0000.0001) %MON dynstat_sss_min              =   1.8751577104897E+01
(PID.TID 0000.0001) %MON dynstat_sss_mean             =   3.4626233465770E+01
(PID.TID 0000.0001) %MON dynstat_sss_sd               =   1.4770691606010E+00
(PID.TID 0000.0001) %MON dynstat_sss_del2             =   1.1072273302870E-02
(PID.TID 0000.0001) %MON forcing_qnet_max             =   2.8841276697716E+03
(PID.TID 0000.0001) %MON forcing_qnet_min             =  -2.1408869628906E+03
(PID.TID 0000.0001) %MON forcing_qnet_mean            =   2.4000851949996E+01
(PID.TID 0000.0001) %MON forcing_qnet_sd              =   2.0841749701734E+02
(PID.TID 0000.0001) %MON forcing_qnet_del2            =   4.8109534542693E+00
(PID.TID 0000.0001) %MON forcing_qsw_max              =   0.0000000000000E+00
(PID.TID 0000.0001) %MON forcing_qsw_min              =  -1.1048290901007E+02
(PID.TID 0000.0001) %MON forcing_qsw_mean             =  -1.2856888040237E+01
(PID.TID 0000.0001) %MON forcing_qsw_sd               =   2.4097281747188E+01
(PID.TID 0000.0001) %MON forcing_qsw_del2             =   1.9233865570174E-01
(PID.TID 0000.0001) %MON forcing_empmr_max            =   6.9598988629878E-03
(PID.TID 0000.0001) %MON forcing_empmr_min            =  -1.0004595667124E-01
(PID.TID 0000.0001) %MON forcing_empmr_mean           =  -2.9891882831535E-04
(PID.TID 0000.0001) %MON forcing_empmr_sd             =   4.4060220738047E-03
(PID.TID 0000.0001) %MON forcing_empmr_del2           =   1.7390472086697E-04
(PID.TID 0000.0001) %MON forcing_fu_max               =   3.6712880963528E-01
(PID.TID 0000.0001) %MON forcing_fu_min               =  -3.6217871769051E-01
(PID.TID 0000.0001) %MON forcing_fu_mean              =  -3.7795910760768E-03
(PID.TID 0000.0001) %MON forcing_fu_sd                =   6.2507422025535E-02
(PID.TID 0000.0001) %MON forcing_fu_del2              =   6.1547152862451E-04
(PID.TID 0000.0001) %MON forcing_fv_max               =   3.3056883310808E-01
(PID.TID 0000.0001) %MON forcing_fv_min               =  -2.9155986699010E-01
(PID.TID 0000.0001) %MON forcing_fv_mean              =  -1.4371191635349E-02
(PID.TID 0000.0001) %MON forcing_fv_sd                =   6.4414011492533E-02
(PID.TID 0000.0001) %MON forcing_fv_del2              =   5.5344176948434E-04
(PID.TID 0000.0001) %MON trAdv_CFL_u_max              =   1.7150525625563E-03
(PID.TID 0000.0001) %MON trAdv_CFL_v_max              =   1.8716184177193E-03
(PID.TID 0000.0001) %MON trAdv_CFL_w_max              =   2.0649243419702E-03
(PID.TID 0000.0001) %MON advcfl_uvel_max              =   1.6647562896370E-03
(PID.TID 0000.0001) %MON advcfl_vvel_max              =   1.7871083105330E-03
(PID.TID 0000.0001) %MON advcfl_wvel_max              =   3.4798593624778E-03
(PID.TID 0000.0001) %MON advcfl_W_hf_max              =   2.2532878065384E-03
(PID.TID 0000.0001) %MON pe_b_mean                    =   5.0863707139420E-04
(PID.TID 0000.0001) %MON ke_max                       =   1.2582459785753E-01
(PID.TID 0000.0001) %MON ke_mean                      =   1.6191817420887E-04
(PID.TID 0000.0001) %MON ke_vol                       =   1.3398116667957E+18
(PID.TID 0000.0001) %MON vort_r_min                   =  -2.7518914273581E-06
(PID.TID 0000.0001) %MON vort_r_max                   =   2.9923596673621E-06
(PID.TID 0000.0001) %MON vort_a_mean                  =  -2.0549865324846E-05
(PID.TID 0000.0001) %MON vort_a_sd                    =   7.5259610971853E-05
(PID.TID 0000.0001) %MON vort_p_mean                  =  -2.4783302816733E-05
(PID.TID 0000.0001) %MON vort_p_sd                    =   1.2811907983545E-04
(PID.TID 0000.0001) %MON surfExpan_theta_mean         =  -6.1803676643807E-06
(PID.TID 0000.0001) %MON surfExpan_salt_mean          =   1.0348604822994E-06
(PID.TID 0000.0001) // =======================================================
(PID.TID 0000.0001) // End MONITOR dynamic field statistics
(PID.TID 0000.0001) // =======================================================
 cg2d: Sum(rhs),rhsMax =  -3.23805006020736E+01  6.87260831657801E+01
(PID.TID 0000.0001)      cg2d_init_res =   1.44944450258924E-01
(PID.TID 0000.0001)      cg2d_iters(min,last) =      -1      10
(PID.TID 0000.0001)      cg2d_last_res =   7.53954590347389E-08
(PID.TID 0000.0001) // =======================================================
(PID.TID 0000.0001) // Begin MONITOR dynamic field statistics
(PID.TID 0000.0001) // =======================================================
(PID.TID 0000.0001) %MON time_tsnumber                =                 72047
(PID.TID 0000.0001) %MON time_secondsf                =   6.4842300000000E+07
(PID.TID 0000.0001) %MON dynstat_eta_max              =   3.0687059216755E+00
(PID.TID 0000.0001) %MON dynstat_eta_min              =  -1.6040311359942E+00
(PID.TID 0000.0001) %MON dynstat_eta_mean             =   2.5858678415753E-02
(PID.TID 0000.0001) %MON dynstat_eta_sd               =   6.1722808677771E-01
(PID.TID 0000.0001) %MON dynstat_eta_del2             =   2.4689406972988E-03
(PID.TID 0000.0001) %MON dynstat_uvel_max             =   3.5172935161124E-01
(PID.TID 0000.0001) %MON dynstat_uvel_min             =  -5.6511566685926E-01
(PID.TID 0000.0001) %MON dynstat_uvel_mean            =  -5.3117929184623E-04
(PID.TID 0000.0001) %MON dynstat_uvel_sd              =   1.2761012583737E-02
(PID.TID 0000.0001) %MON dynstat_uvel_del2            =   8.8212317956551E-05
(PID.TID 0000.0001) %MON dynstat_vvel_max             =   5.0998442290786E-01
(PID.TID 0000.0001) %MON dynstat_vvel_min             =  -4.0018812607484E-01
(PID.TID 0000.0001) %MON dynstat_vvel_mean            =   1.1896549500132E-04
(PID.TID 0000.0001) %MON dynstat_vvel_sd              =   1.3668868489821E-02
(PID.TID 0000.0001) %MON dynstat_vvel_del2            =   9.0844417019256E-05
(PID.TID 0000.0001) %MON dynstat_wvel_max             =   1.6956714831100E-04
(PID.TID 0000.0001) %MON dynstat_wvel_min             =  -2.1090895681125E-04
(PID.TID 0000.0001) %MON dynstat_wvel_mean            =  -1.5634592986667E-07
(PID.TID 0000.0001) %MON dynstat_wvel_sd              =   7.8741959951805E-06
(PID.TID 0000.0001) %MON dynstat_wvel_del2            =   7.5667352241056E-08
(PID.TID 0000.0001) %MON dynstat_theta_max            =   3.0925998162745E+01
(PID.TID 0000.0001) %MON dynstat_theta_min            =  -3.0042137199074E+00
(PID.TID 0000.0001) %MON dynstat_theta_mean           =   3.9091419801028E+00
(PID.TID 0000.0001) %MON dynstat_theta_sd             =   4.5714322622206E+00
(PID.TID 0000.0001) %MON dynstat_theta_del2           =   2.6433141553371E-03
(PID.TID 0000.0001) %MON dynstat_salt_max             =   4.1351884634617E+01
(PID.TID 0000.0001) %MON dynstat_salt_min             =   1.8518846993536E+01
(PID.TID 0000.0001) %MON dynstat_salt_mean            =   3.4771975365766E+01
(PID.TID 0000.0001) %MON dynstat_salt_sd              =   5.3175707271544E-01
(PID.TID 0000.0001) %MON dynstat_salt_del2            =   1.0117820124932E-03
(PID.TID 0000.0001) %MON dynstat_sst_max              =   3.0925998162745E+01
(PID.TID 0000.0001) %MON dynstat_sst_min              =  -1.8969816072733E+00
(PID.TID 0000.0001) %MON dynstat_sst_mean             =   1.8108181148008E+01
(PID.TID 0000.0001) %MON dynstat_sst_sd               =   9.8105955234756E+00
(PID.TID 0000.0001) %MON dynstat_sst_del2             =   1.5055822616910E-02
(PID.TID 0000.0001) %MON dynstat_sss_max              =   4.1351884634617E+01
(PID.TID 0000.0001) %MON dynstat_sss_min              =   1.8751606300664E+01
(PID.TID 0000.0001) %MON dynstat_sss_mean             =   3.4626039222597E+01
(PID.TID 0000.0001) %MON dynstat_sss_sd               =   1.4775027071926E+00
(PID.TID 0000.0001) %MON dynstat_sss_del2             =   1.1137068819976E-02
(PID.TID 0000.0001) %MON forcing_qnet_max             =   4.4952094215093E+03
(PID.TID 0000.0001) %MON forcing_qnet_min             =  -1.7959763671875E+04
(PID.TID 0000.0001) %MON forcing_qnet_mean            =   1.9570250191292E+01
(PID.TID 0000.0001) %MON forcing_qnet_sd              =   3.5040640935334E+02
(PID.TID 0000.0001) %MON forcing_qnet_del2            =   1.1982783360568E+01
(PID.TID 0000.0001) %MON forcing_qsw_max              =   0.0000000000000E+00
(PID.TID 0000.0001) %MON forcing_qsw_min              =  -1.1053236492617E+02
(PID.TID 0000.0001) %MON forcing_qsw_mean             =  -1.2873938711802E+01
(PID.TID 0000.0001) %MON forcing_qsw_sd               =   2.3911547747224E+01
(PID.TID 0000.0001) %MON forcing_qsw_del2             =   1.9222768316697E-01
(PID.TID 0000.0001) %MON forcing_empmr_max            =   6.8881628103554E-03
(PID.TID 0000.0001) %MON forcing_empmr_min            =  -9.9015563726425E-02
(PID.TID 0000.0001) %MON forcing_empmr_mean           =  -2.9584518024307E-04
(PID.TID 0000.0001) %MON forcing_empmr_sd             =   4.3608902465281E-03
(PID.TID 0000.0001) %MON forcing_empmr_del2           =   1.7209834500358E-04
(PID.TID 0000.0001) %MON forcing_fu_max               =   3.6753643787614E-01
(PID.TID 0000.0001) %MON forcing_fu_min               =  -3.6159631748122E-01
(PID.TID 0000.0001) %MON forcing_fu_mean              =  -3.7750523220305E-03
(PID.TID 0000.0001) %MON forcing_fu_sd                =   6.2413602118426E-02
(PID.TID 0000.0001) %MON forcing_fu_del2              =   6.1503193218292E-04
(PID.TID 0000.0001) %MON forcing_fv_max               =   3.2852656694032E-01
(PID.TID 0000.0001) %MON forcing_fv_min               =  -2.9244316954941E-01
(PID.TID 0000.0001) %MON forcing_fv_mean              =  -1.4491440931207E-02
(PID.TID 0000.0001) %MON forcing_fv_sd                =   6.4233509410777E-02
(PID.TID 0000.0001) %MON forcing_fv_del2              =   5.5177280321447E-04
(PID.TID 0000.0001) %MON trAdv_CFL_u_max              =   1.6043166425356E-03
(PID.TID 0000.0001) %MON trAdv_CFL_v_max              =   1.7704852400311E-03
(PID.TID 0000.0001) %MON trAdv_CFL_w_max              =   2.0095391262635E-03
(PID.TID 0000.0001) %MON advcfl_uvel_max              =   1.6075834570043E-03
(PID.TID 0000.0001) %MON advcfl_vvel_max              =   1.5283057180559E-03
(PID.TID 0000.0001) %MON advcfl_wvel_max              =   3.4440196078757E-03
(PID.TID 0000.0001) %MON advcfl_W_hf_max              =   2.1793961099323E-03
(PID.TID 0000.0001) %MON pe_b_mean                    =   5.0841038120976E-04
(PID.TID 0000.0001) %MON ke_max                       =   1.3722004187487E-01
(PID.TID 0000.0001) %MON ke_mean                      =   1.6162904491406E-04
(PID.TID 0000.0001) %MON ke_vol                       =   1.3398117613806E+18
(PID.TID 0000.0001) %MON vort_r_min                   =  -2.8797597491497E-06
(PID.TID 0000.0001) %MON vort_r_max                   =   2.5761634172732E-06
(PID.TID 0000.0001) %MON vort_a_mean                  =  -2.0549865324846E-05
(PID.TID 0000.0001) %MON vort_a_sd                    =   7.5259622872893E-05
(PID.TID 0000.0001) %MON vort_p_mean                  =  -2.4783301122570E-05
(PID.TID 0000.0001) %MON vort_p_sd                    =   1.2811906222366E-04
(PID.TID 0000.0001) %MON surfExpan_theta_mean         =  -6.2356560461117E-06
(PID.TID 0000.0001) %MON surfExpan_salt_mean          =   1.0670098083582E-06
(PID.TID 0000.0001) // =======================================================
(PID.TID 0000.0001) // End MONITOR dynamic field statistics
(PID.TID 0000.0001) // =======================================================
 Computing Diagnostic #     81  oceTAUX      Counter:       1   Parms: UU      U1      
           Vector  Mate for  oceTAUX      Diagnostic #     82  oceTAUY  exists 
 Computing Diagnostic #     82  oceTAUY      Counter:       1   Parms: VV      U1      
           Vector  Mate for  oceTAUY      Diagnostic #     81  oceTAUX  exists 
 Computing Diagnostic #     85  oceFWflx     Counter:       1   Parms: SM      U1      
 Computing Diagnostic #     86  oceSflux     Counter:       1   Parms: SM      U1      
 Computing Diagnostic #     87  oceQnet      Counter:       1   Parms: SM      U1      
 Computing Diagnostic #     88  oceQsw       Counter:       1   Parms: SM      U1      
 Computing Diagnostic #     27  SALT         Counter:       1   Parms: SMR     MR      
 Computing Diagnostic #     26  THETA        Counter:       1   Parms: SMR     MR      
 Computing Diagnostic #     45  UVELMASS     Counter:       1   Parms: UUr     MR      
           Vector  Mate for  UVELMASS     Diagnostic #     46  VVELMASS exists 
 Computing Diagnostic #     46  VVELMASS     Counter:       1   Parms: VVr     MR      
           Vector  Mate for  VVELMASS     Diagnostic #     45  UVELMASS exists 
 Computing Diagnostic #     83  atmPload     Counter:       1   Parms: SM      U1      
 cg2d: Sum(rhs),rhsMax =  -3.27215277544957E+01  6.86822263205499E+01
(PID.TID 0000.0001)      cg2d_init_res =   1.38745463283840E-01
(PID.TID 0000.0001)      cg2d_iters(min,last) =      -1      10
(PID.TID 0000.0001)      cg2d_last_res =   7.61099503528997E-08
(PID.TID 0000.0001) // =======================================================
(PID.TID 0000.0001) // Begin MONITOR dynamic field statistics
(PID.TID 0000.0001) // =======================================================
(PID.TID 0000.0001) %MON time_tsnumber                =                 72048
(PID.TID 0000.0001) %MON time_secondsf                =   6.4843200000000E+07
(PID.TID 0000.0001) %MON dynstat_eta_max              =   3.1053325946038E+00
(PID.TID 0000.0001) %MON dynstat_eta_min              =  -1.6023400797101E+00
(PID.TID 0000.0001) %MON dynstat_eta_mean             =   2.6114343357374E-02
(PID.TID 0000.0001) %MON dynstat_eta_sd               =   6.1701727769941E-01
(PID.TID 0000.0001) %MON dynstat_eta_del2             =   2.4812291623999E-03
(PID.TID 0000.0001) %MON dynstat_uvel_max             =   3.4409767411880E-01
(PID.TID 0000.0001) %MON dynstat_uvel_min             =  -5.6667173653908E-01
(PID.TID 0000.0001) %MON dynstat_uvel_mean            =  -5.3144815950698E-04
(PID.TID 0000.0001) %MON dynstat_uvel_sd              =   1.2727999022155E-02
(PID.TID 0000.0001) %MON dynstat_uvel_del2            =   8.8982918649901E-05
(PID.TID 0000.0001) %MON dynstat_vvel_max             =   4.2332085694233E-01
(PID.TID 0000.0001) %MON dynstat_vvel_min             =  -4.3192163560737E-01
(PID.TID 0000.0001) %MON dynstat_vvel_mean            =   1.6740882859355E-04
(PID.TID 0000.0001) %MON dynstat_vvel_sd              =   1.3688669749325E-02
(PID.TID 0000.0001) %MON dynstat_vvel_del2            =   8.8423263415668E-05
(PID.TID 0000.0001) %MON dynstat_wvel_max             =   1.6418146724864E-04
(PID.TID 0000.0001) %MON dynstat_wvel_min             =  -2.0656140215072E-04
(PID.TID 0000.0001) %MON dynstat_wvel_mean            =  -1.8290643793013E-07
(PID.TID 0000.0001) %MON dynstat_wvel_sd              =   7.8794365476143E-06
(PID.TID 0000.0001) %MON dynstat_wvel_del2            =   7.6064579911103E-08
(PID.TID 0000.0001) %MON dynstat_theta_max            =   3.0926085604005E+01
(PID.TID 0000.0001) %MON dynstat_theta_min            =  -3.0042623300911E+00
(PID.TID 0000.0001) %MON dynstat_theta_mean           =   3.9091422173825E+00
(PID.TID 0000.0001) %MON dynstat_theta_sd             =   4.5714334737545E+00
(PID.TID 0000.0001) %MON dynstat_theta_del2           =   2.6431914381144E-03
(PID.TID 0000.0001) %MON dynstat_salt_max             =   4.1351534523204E+01
(PID.TID 0000.0001) %MON dynstat_salt_min             =   1.8518857405066E+01
(PID.TID 0000.0001) %MON dynstat_salt_mean            =   3.4771972538466E+01
(PID.TID 0000.0001) %MON dynstat_salt_sd              =   5.3177413616610E-01
(PID.TID 0000.0001) %MON dynstat_salt_del2            =   1.0162273483735E-03
(PID.TID 0000.0001) %MON dynstat_sst_max              =   3.0926085604005E+01
(PID.TID 0000.0001) %MON dynstat_sst_min              =  -1.8969628771556E+00
(PID.TID 0000.0001) %MON dynstat_sst_mean             =   1.8108104563385E+01
(PID.TID 0000.0001) %MON dynstat_sst_sd               =   9.8106776092002E+00
(PID.TID 0000.0001) %MON dynstat_sst_del2             =   1.5053658514649E-02
(PID.TID 0000.0001) %MON dynstat_sss_max              =   4.1351534523204E+01
(PID.TID 0000.0001) %MON dynstat_sss_min              =   1.8751638972945E+01
(PID.TID 0000.0001) %MON dynstat_sss_mean             =   3.4625841326727E+01
(PID.TID 0000.0001) %MON dynstat_sss_sd               =   1.4779314891991E+00
(PID.TID 0000.0001) %MON dynstat_sss_del2             =   1.1200755679264E-02
(PID.TID 0000.0001) %MON forcing_qnet_max             =   7.5279123839004E+03
(PID.TID 0000.0001) %MON forcing_qnet_min             =  -1.3902223751461E+03
(PID.TID 0000.0001) %MON forcing_qnet_mean            =   2.4435662524436E+01
(PID.TID 0000.0001) %MON forcing_qnet_sd              =   2.2977690473153E+02
(PID.TID 0000.0001) %MON forcing_qnet_del2            =   6.9597488138810E+00
(PID.TID 0000.0001) %MON forcing_qsw_max              =   0.0000000000000E+00
(PID.TID 0000.0001) %MON forcing_qsw_min              =  -1.1012367431782E+02
(PID.TID 0000.0001) %MON forcing_qsw_mean             =  -1.2867541369298E+01
(PID.TID 0000.0001) %MON forcing_qsw_sd               =   2.3687438596838E+01
(PID.TID 0000.0001) %MON forcing_qsw_del2             =   1.9185553866537E-01
(PID.TID 0000.0001) %MON forcing_empmr_max            =   6.8172137252986E-03
(PID.TID 0000.0001) %MON forcing_empmr_min            =  -9.7996070981026E-02
(PID.TID 0000.0001) %MON forcing_empmr_mean           =  -2.9401468286391E-04
(PID.TID 0000.0001) %MON forcing_empmr_sd             =   4.3165846728317E-03
(PID.TID 0000.0001) %MON forcing_empmr_del2           =   1.7033590734689E-04
(PID.TID 0000.0001) %MON forcing_fu_max               =   3.6608217261881E-01
(PID.TID 0000.0001) %MON forcing_fu_min               =  -3.6260009409201E-01
(PID.TID 0000.0001) %MON forcing_fu_mean              =  -3.7682847066787E-03
(PID.TID 0000.0001) %MON forcing_fu_sd                =   6.2255126143123E-02
(PID.TID 0000.0001) %MON forcing_fu_del2              =   6.1397215602963E-04
(PID.TID 0000.0001) %MON forcing_fv_max               =   3.2690488947918E-01
(PID.TID 0000.0001) %MON forcing_fv_min               =  -2.9298943972527E-01
(PID.TID 0000.0001) %MON forcing_fv_mean              =  -1.4597976304751E-02
(PID.TID 0000.0001) %MON forcing_fv_sd                =   6.3984466661536E-02
(PID.TID 0000.0001) %MON forcing_fv_del2              =   5.4920476114991E-04
(PID.TID 0000.0001) %MON trAdv_CFL_u_max              =   1.6095004090529E-03
(PID.TID 0000.0001) %MON trAdv_CFL_v_max              =   1.6223376187574E-03
(PID.TID 0000.0001) %MON trAdv_CFL_w_max              =   1.9345603596762E-03
(PID.TID 0000.0001) %MON advcfl_uvel_max              =   1.6120100054473E-03
(PID.TID 0000.0001) %MON advcfl_vvel_max              =   1.2685949946244E-03
(PID.TID 0000.0001) %MON advcfl_wvel_max              =   3.4085589906444E-03
(PID.TID 0000.0001) %MON advcfl_W_hf_max              =   2.1109254076082E-03
(PID.TID 0000.0001) %MON pe_b_mean                    =   5.0808142830982E-04
(PID.TID 0000.0001) %MON ke_max                       =   1.4840262049743E-01
(PID.TID 0000.0001) %MON ke_mean                      =   1.6150039833588E-04
(PID.TID 0000.0001) %MON ke_vol                       =   1.3398118549929E+18
(PID.TID 0000.0001) %MON vort_r_min                   =  -3.0418271228544E-06
(PID.TID 0000.0001) %MON vort_r_max                   =   2.2632797934130E-06
(PID.TID 0000.0001) %MON vort_a_mean                  =  -2.0549865324846E-05
(PID.TID 0000.0001) %MON vort_a_sd                    =   7.5259634533548E-05
(PID.TID 0000.0001) %MON vort_p_mean                  =  -2.4783299386412E-05
(PID.TID 0000.0001) %MON vort_p_sd                    =   1.2811904406781E-04
(PID.TID 0000.0001) %MON surfExpan_theta_mean         =  -6.3337608792147E-06
(PID.TID 0000.0001) %MON surfExpan_salt_mean          =   1.0993945810068E-06
(PID.TID 0000.0001) // =======================================================
(PID.TID 0000.0001) // End MONITOR dynamic field statistics
(PID.TID 0000.0001) // =======================================================
 cg2d: Sum(rhs),rhsMax =  -3.32400412910972E+01  6.82680092729569E+01
(PID.TID 0000.0001)      cg2d_init_res =   1.35675872111091E-01
(PID.TID 0000.0001)      cg2d_iters(min,last) =      -1      10
(PID.TID 0000.0001)      cg2d_last_res =   7.64197784884091E-08
(PID.TID 0000.0001) // =======================================================
(PID.TID 0000.0001) // Begin MONITOR dynamic field statistics
(PID.TID 0000.0001) // =======================================================
(PID.TID 0000.0001) %MON time_tsnumber                =                 72049
(PID.TID 0000.0001) %MON time_secondsf                =   6.4844100000000E+07
(PID.TID 0000.0001) %MON dynstat_eta_max              =   3.0875857628456E+00
(PID.TID 0000.0001) %MON dynstat_eta_min              =  -1.6005104211898E+00
(PID.TID 0000.0001) %MON dynstat_eta_mean             =   2.6368168581682E-02
(PID.TID 0000.0001) %MON dynstat_eta_sd               =   6.1673933749964E-01
(PID.TID 0000.0001) %MON dynstat_eta_del2             =   2.4732640111419E-03
(PID.TID 0000.0001) %MON dynstat_uvel_max             =   3.3480563651461E-01
(PID.TID 0000.0001) %MON dynstat_uvel_min             =  -5.6571232043486E-01
(PID.TID 0000.0001) %MON dynstat_uvel_mean            =  -5.2864270791926E-04
(PID.TID 0000.0001) %MON dynstat_uvel_sd              =   1.2702574775882E-02
(PID.TID 0000.0001) %MON dynstat_uvel_del2            =   8.9882143509020E-05
(PID.TID 0000.0001) %MON dynstat_vvel_max             =   3.7553485516279E-01
(PID.TID 0000.0001) %MON dynstat_vvel_min             =  -4.6262390096499E-01
(PID.TID 0000.0001) %MON dynstat_vvel_mean            =   2.1395896012687E-04
(PID.TID 0000.0001) %MON dynstat_vvel_sd              =   1.3714126617890E-02
(PID.TID 0000.0001) %MON dynstat_vvel_del2            =   8.6798316268587E-05
(PID.TID 0000.0001) %MON dynstat_wvel_max             =   1.5933600125786E-04
(PID.TID 0000.0001) %MON dynstat_wvel_min             =  -2.0048974244863E-04
(PID.TID 0000.0001) %MON dynstat_wvel_mean            =  -2.0887555286902E-07
(PID.TID 0000.0001) %MON dynstat_wvel_sd              =   7.8950931607349E-06
(PID.TID 0000.0001) %MON dynstat_wvel_del2            =   7.6493632702677E-08
(PID.TID 0000.0001) %MON dynstat_theta_max            =   3.0926146875706E+01
(PID.TID 0000.0001) %MON dynstat_theta_min            =  -3.0043488969678E+00
(PID.TID 0000.0001) %MON dynstat_theta_mean           =   3.9091425310045E+00
(PID.TID 0000.0001) %MON dynstat_theta_sd             =   4.5714350541975E+00
(PID.TID 0000.0001) %MON dynstat_theta_del2           =   2.6430781142610E-03
(PID.TID 0000.0001) %MON dynstat_salt_max             =   4.1351189921828E+01
(PID.TID 0000.0001) %MON dynstat_salt_min             =   1.8518867795380E+01
(PID.TID 0000.0001) %MON dynstat_salt_mean            =   3.4771969742044E+01
(PID.TID 0000.0001) %MON dynstat_salt_sd              =   5.3179098365220E-01
(PID.TID 0000.0001) %MON dynstat_salt_del2            =   1.0206051215789E-03
(PID.TID 0000.0001) %MON dynstat_sst_max              =   3.0926146875706E+01
(PID.TID 0000.0001) %MON dynstat_sst_min              =  -1.8969613254304E+00
(PID.TID 0000.0001) %MON dynstat_sst_mean             =   1.8108032645880E+01
(PID.TID 0000.0001) %MON dynstat_sst_sd               =   9.8107647792652E+00
(PID.TID 0000.0001) %MON dynstat_sst_del2             =   1.5051731382295E-02
(PID.TID 0000.0001) %MON dynstat_sss_max              =   4.1351189921828E+01
(PID.TID 0000.0001) %MON dynstat_sss_min              =   1.8751675170128E+01
(PID.TID 0000.0001) %MON dynstat_sss_mean             =   3.4625645048333E+01
(PID.TID 0000.0001) %MON dynstat_sss_sd               =   1.4783547408806E+00
(PID.TID 0000.0001) %MON dynstat_sss_del2             =   1.1263399850409E-02
(PID.TID 0000.0001) %MON forcing_qnet_max             =   1.0884389214634E+04
(PID.TID 0000.0001) %MON forcing_qnet_min             =  -1.3822786865234E+03
(PID.TID 0000.0001) %MON forcing_qnet_mean            =   2.2978253373405E+01
(PID.TID 0000.0001) %MON forcing_qnet_sd              =   2.6159389365103E+02
(PID.TID 0000.0001) %MON forcing_qnet_del2            =   9.3414372787499E+00
(PID.TID 0000.0001) %MON forcing_qsw_max              =   0.0000000000000E+00
(PID.TID 0000.0001) %MON forcing_qsw_min              =  -1.0886822770439E+02
(PID.TID 0000.0001) %MON forcing_qsw_mean             =  -1.3027667739308E+01
(PID.TID 0000.0001) %MON forcing_qsw_sd               =   2.3395088952312E+01
(PID.TID 0000.0001) %MON forcing_qsw_del2             =   1.9034675448553E-01
(PID.TID 0000.0001) %MON forcing_empmr_max            =   6.7469533532858E-03
(PID.TID 0000.0001) %MON forcing_empmr_min            =  -9.6985809504986E-02
(PID.TID 0000.0001) %MON forcing_empmr_mean           =  -2.9189900795478E-04
(PID.TID 0000.0001) %MON forcing_empmr_sd             =   4.2729072677943E-03
(PID.TID 0000.0001) %MON forcing_empmr_del2           =   1.6859271615551E-04
(PID.TID 0000.0001) %MON forcing_fu_max               =   3.6543576082823E-01
(PID.TID 0000.0001) %MON forcing_fu_min               =  -3.6190979869487E-01
(PID.TID 0000.0001) %MON forcing_fu_mean              =  -3.7752068955740E-03
(PID.TID 0000.0001) %MON forcing_fu_sd                =   6.2067136959344E-02
(PID.TID 0000.0001) %MON forcing_fu_del2              =   6.1287068792816E-04
(PID.TID 0000.0001) %MON forcing_fv_max               =   3.2583173330041E-01
(PID.TID 0000.0001) %MON forcing_fv_min               =  -2.9315754886231E-01
(PID.TID 0000.0001) %MON forcing_fv_mean              =  -1.4671647375307E-02
(PID.TID 0000.0001) %MON forcing_fv_sd                =   6.3776567943055E-02
(PID.TID 0000.0001) %MON forcing_fv_del2              =   5.4793330071615E-04
(PID.TID 0000.0001) %MON trAdv_CFL_u_max              =   1.6075974075786E-03
(PID.TID 0000.0001) %MON trAdv_CFL_v_max              =   1.4320440057460E-03
(PID.TID 0000.0001) %MON trAdv_CFL_w_max              =   1.8405586356261E-03
(PID.TID 0000.0001) %MON advcfl_uvel_max              =   1.6092807562900E-03
(PID.TID 0000.0001) %MON advcfl_vvel_max              =   1.3525763833941E-03
(PID.TID 0000.0001) %MON advcfl_wvel_max              =   3.3734194610430E-03
(PID.TID 0000.0001) %MON advcfl_W_hf_max              =   2.0486204618019E-03
(PID.TID 0000.0001) %MON pe_b_mean                    =   5.0764232245658E-04
(PID.TID 0000.0001) %MON ke_max                       =   1.5929216898434E-01
(PID.TID 0000.0001) %MON ke_mean                      =   1.6153393314544E-04
(PID.TID 0000.0001) %MON ke_vol                       =   1.3398119480260E+18
(PID.TID 0000.0001) %MON vort_r_min                   =  -3.2023575529446E-06
(PID.TID 0000.0001) %MON vort_r_max                   =   2.3429282480340E-06
(PID.TID 0000.0001) %MON vort_a_mean                  =  -2.0549865324846E-05
(PID.TID 0000.0001) %MON vort_a_sd                    =   7.5259645845305E-05
(PID.TID 0000.0001) %MON vort_p_mean                  =  -2.4783297596009E-05
(PID.TID 0000.0001) %MON vort_p_sd                    =   1.2811902627541E-04
(PID.TID 0000.0001) %MON surfExpan_theta_mean         =  -6.4375895028952E-06
(PID.TID 0000.0001) %MON surfExpan_salt_mean          =   1.1317595991214E-06
(PID.TID 0000.0001) // =======================================================
(PID.TID 0000.0001) // End MONITOR dynamic field statistics
(PID.TID 0000.0001) // =======================================================
 cg2d: Sum(rhs),rhsMax =  -3.39480267360768E+01  6.74835277180501E+01
(PID.TID 0000.0001)      cg2d_init_res =   1.35841828109295E-01
(PID.TID 0000.0001)      cg2d_iters(min,last) =      -1      10
(PID.TID 0000.0001)      cg2d_last_res =   7.67194248821959E-08
(PID.TID 0000.0001) // =======================================================
(PID.TID 0000.0001) // Begin MONITOR dynamic field statistics
(PID.TID 0000.0001) // =======================================================
(PID.TID 0000.0001) %MON time_tsnumber                =                 72050
(PID.TID 0000.0001) %MON time_secondsf                =   6.4845000000000E+07
(PID.TID 0000.0001) %MON dynstat_eta_max              =   3.0176536810361E+00
(PID.TID 0000.0001) %MON dynstat_eta_min              =  -1.5986288108182E+00
(PID.TID 0000.0001) %MON dynstat_eta_mean             =   2.6620333138895E-02
(PID.TID 0000.0001) %MON dynstat_eta_sd               =   6.1639594947576E-01
(PID.TID 0000.0001) %MON dynstat_eta_del2             =   2.4448764681285E-03
(PID.TID 0000.0001) %MON dynstat_uvel_max             =   3.2391683042170E-01
(PID.TID 0000.0001) %MON dynstat_uvel_min             =  -5.6223066374427E-01
(PID.TID 0000.0001) %MON dynstat_uvel_mean            =  -5.2291500180313E-04
(PID.TID 0000.0001) %MON dynstat_uvel_sd              =   1.2686022746419E-02
(PID.TID 0000.0001) %MON dynstat_uvel_del2            =   9.0878493876933E-05
(PID.TID 0000.0001) %MON dynstat_vvel_max             =   4.2029003351321E-01
(PID.TID 0000.0001) %MON dynstat_vvel_min             =  -4.9199280229023E-01
(PID.TID 0000.0001) %MON dynstat_vvel_mean            =   2.5816471959156E-04
(PID.TID 0000.0001) %MON dynstat_vvel_sd              =   1.3743527447869E-02
(PID.TID 0000.0001) %MON dynstat_vvel_del2            =   8.6027420495005E-05
(PID.TID 0000.0001) %MON dynstat_wvel_max             =   1.5497140775309E-04
(PID.TID 0000.0001) %MON dynstat_wvel_min             =  -1.9272618856737E-04
(PID.TID 0000.0001) %MON dynstat_wvel_mean            =  -2.3380896778817E-07
(PID.TID 0000.0001) %MON dynstat_wvel_sd              =   7.9199647292888E-06
(PID.TID 0000.0001) %MON dynstat_wvel_del2            =   7.6929198063492E-08
(PID.TID 0000.0001) %MON dynstat_theta_max            =   3.0926195798787E+01
(PID.TID 0000.0001) %MON dynstat_theta_min            =  -3.0044720158306E+00
(PID.TID 0000.0001) %MON dynstat_theta_mean           =   3.9091428261640E+00
(PID.TID 0000.0001) %MON dynstat_theta_sd             =   4.5714366167927E+00
(PID.TID 0000.0001) %MON dynstat_theta_del2           =   2.6429738160101E-03
(PID.TID 0000.0001) %MON dynstat_salt_max             =   4.1350853216624E+01
(PID.TID 0000.0001) %MON dynstat_salt_min             =   1.8518878166178E+01
(PID.TID 0000.0001) %MON dynstat_salt_mean            =   3.4771966967375E+01
(PID.TID 0000.0001) %MON dynstat_salt_sd              =   5.3180758311077E-01
(PID.TID 0000.0001) %MON dynstat_salt_del2            =   1.0249151542058E-03
(PID.TID 0000.0001) %MON dynstat_sst_max              =   3.0926195798787E+01
(PID.TID 0000.0001) %MON dynstat_sst_min              =  -1.8969761010024E+00
(PID.TID 0000.0001) %MON dynstat_sst_mean             =   1.8107959140868E+01
(PID.TID 0000.0001) %MON dynstat_sst_sd               =   9.8108538589121E+00
(PID.TID 0000.0001) %MON dynstat_sst_del2             =   1.5050112390796E-02
(PID.TID 0000.0001) %MON dynstat_sss_max              =   4.1350853216624E+01
(PID.TID 0000.0001) %MON dynstat_sss_min              =   1.8751715250594E+01
(PID.TID 0000.0001) %MON dynstat_sss_mean             =   3.4625449908561E+01
(PID.TID 0000.0001) %MON dynstat_sss_sd               =   1.4787718957891E+00
(PID.TID 0000.0001) %MON dynstat_sss_del2             =   1.1324995893331E-02
(PID.TID 0000.0001) %MON forcing_qnet_max             =   1.2799651591893E+04
(PID.TID 0000.0001) %MON forcing_qnet_min             =  -1.3520936743254E+03
(PID.TID 0000.0001) %MON forcing_qnet_mean            =   2.3151917107286E+01
(PID.TID 0000.0001) %MON forcing_qnet_sd              =   2.9209617482277E+02
(PID.TID 0000.0001) %MON forcing_qnet_del2            =   1.1477494433282E+01
(PID.TID 0000.0001) %MON forcing_qsw_max              =   0.0000000000000E+00
(PID.TID 0000.0001) %MON forcing_qsw_min              =  -1.0776159408114E+02
(PID.TID 0000.0001) %MON forcing_qsw_mean             =  -1.3141018056768E+01
(PID.TID 0000.0001) %MON forcing_qsw_sd               =   2.3285647363234E+01
(PID.TID 0000.0001) %MON forcing_qsw_del2             =   1.9065043917210E-01
(PID.TID 0000.0001) %MON forcing_empmr_max            =   6.6773816943169E-03
(PID.TID 0000.0001) %MON forcing_empmr_min            =  -9.5987297594547E-02
(PID.TID 0000.0001) %MON forcing_empmr_mean           =  -2.8998924079466E-04
(PID.TID 0000.0001) %MON forcing_empmr_sd             =   4.2299288542102E-03
(PID.TID 0000.0001) %MON forcing_empmr_del2           =   1.6688427783071E-04
(PID.TID 0000.0001) %MON forcing_fu_max               =   3.6517650219765E-01
(PID.TID 0000.0001) %MON forcing_fu_min               =  -3.6167138907693E-01
(PID.TID 0000.0001) %MON forcing_fu_mean              =  -3.7645352130298E-03
(PID.TID 0000.0001) %MON forcing_fu_sd                =   6.1926812030844E-02
(PID.TID 0000.0001) %MON forcing_fu_del2              =   6.1238579543318E-04
(PID.TID 0000.0001) %MON forcing_fv_max               =   3.2860435168270E-01
(PID.TID 0000.0001) %MON forcing_fv_min               =  -2.9322165204878E-01
(PID.TID 0000.0001) %MON forcing_fv_mean              =  -1.4753697592948E-02
(PID.TID 0000.0001) %MON forcing_fv_sd                =   6.3622395311087E-02
(PID.TID 0000.0001) %MON forcing_fv_del2              =   5.4700807586581E-04
(PID.TID 0000.0001) %MON trAdv_CFL_u_max              =   1.5985675779426E-03
(PID.TID 0000.0001) %MON trAdv_CFL_v_max              =   1.4782112968903E-03
(PID.TID 0000.0001) %MON trAdv_CFL_w_max              =   1.7608525252368E-03
(PID.TID 0000.0001) %MON advcfl_uvel_max              =   1.5993764941593E-03
(PID.TID 0000.0001) %MON advcfl_vvel_max              =   1.4384424232936E-03
(PID.TID 0000.0001) %MON advcfl_wvel_max              =   3.3386886119843E-03
(PID.TID 0000.0001) %MON advcfl_W_hf_max              =   1.9924997038100E-03
(PID.TID 0000.0001) %MON pe_b_mean                    =   5.0709598627801E-04
(PID.TID 0000.0001) %MON ke_max                       =   1.6984307510279E-01
(PID.TID 0000.0001) %MON ke_mean                      =   1.6172238345896E-04
(PID.TID 0000.0001) %MON ke_vol                       =   1.3398120403896E+18
(PID.TID 0000.0001) %MON vort_r_min                   =  -3.3605101252197E-06
(PID.TID 0000.0001) %MON vort_r_max                   =   2.4101941439388E-06
(PID.TID 0000.0001) %MON vort_a_mean                  =  -2.0549865324846E-05
(PID.TID 0000.0001) %MON vort_a_sd                    =   7.5259656714501E-05
(PID.TID 0000.0001) %MON vort_p_mean                  =  -2.4783295750382E-05
(PID.TID 0000.0001) %MON vort_p_sd                    =   1.2811900967999E-04
(PID.TID 0000.0001) %MON surfExpan_theta_mean         =  -6.5588812069624E-06
(PID.TID 0000.0001) %MON surfExpan_salt_mean          =   1.1640596844968E-06
(PID.TID 0000.0001) // =======================================================
(PID.TID 0000.0001) // End MONITOR dynamic field statistics
(PID.TID 0000.0001) // =======================================================
 cg2d: Sum(rhs),rhsMax =  -3.48611969020692E+01  6.63331101964507E+01
(PID.TID 0000.0001)      cg2d_init_res =   1.39099343995307E-01
(PID.TID 0000.0001)      cg2d_iters(min,last) =      -1      10
(PID.TID 0000.0001)      cg2d_last_res =   7.71445423727665E-08
(PID.TID 0000.0001) // =======================================================
(PID.TID 0000.0001) // Begin MONITOR dynamic field statistics
(PID.TID 0000.0001) // =======================================================
(PID.TID 0000.0001) %MON time_tsnumber                =                 72051
(PID.TID 0000.0001) %MON time_secondsf                =   6.4845900000000E+07
(PID.TID 0000.0001) %MON dynstat_eta_max              =   2.9543482825377E+00
(PID.TID 0000.0001) %MON dynstat_eta_min              =  -1.5967780425310E+00
(PID.TID 0000.0001) %MON dynstat_eta_mean             =   2.6870381210983E-02
(PID.TID 0000.0001) %MON dynstat_eta_sd               =   6.1599250688970E-01
(PID.TID 0000.0001) %MON dynstat_eta_del2             =   2.3968373884507E-03
(PID.TID 0000.0001) %MON dynstat_uvel_max             =   3.1150882769117E-01
(PID.TID 0000.0001) %MON dynstat_uvel_min             =  -5.6711436980441E-01
(PID.TID 0000.0001) %MON dynstat_uvel_mean            =  -5.1446080764448E-04
(PID.TID 0000.0001) %MON dynstat_uvel_sd              =   1.2679167207669E-02
(PID.TID 0000.0001) %MON dynstat_uvel_del2            =   9.1935557456028E-05
(PID.TID 0000.0001) %MON dynstat_vvel_max             =   4.5797657514971E-01
(PID.TID 0000.0001) %MON dynstat_vvel_min             =  -5.1973929093702E-01
(PID.TID 0000.0001) %MON dynstat_vvel_mean            =   2.9966504958406E-04
(PID.TID 0000.0001) %MON dynstat_vvel_sd              =   1.3774965442371E-02
(PID.TID 0000.0001) %MON dynstat_vvel_del2            =   8.6096942630419E-05
(PID.TID 0000.0001) %MON dynstat_wvel_max             =   1.5103935420546E-04
(PID.TID 0000.0001) %MON dynstat_wvel_min             =  -1.9204677444757E-04
(PID.TID 0000.0001) %MON dynstat_wvel_mean            =  -2.5650418206021E-07
(PID.TID 0000.0001) %MON dynstat_wvel_sd              =   7.9509054120294E-06
(PID.TID 0000.0001) %MON dynstat_wvel_del2            =   7.7337282100187E-08
(PID.TID 0000.0001) %MON dynstat_theta_max            =   3.0926232324606E+01
(PID.TID 0000.0001) %MON dynstat_theta_min            =  -3.0046286343219E+00
(PID.TID 0000.0001) %MON dynstat_theta_mean           =   3.9091433364627E+00
(PID.TID 0000.0001) %MON dynstat_theta_sd             =   4.5714385751779E+00
(PID.TID 0000.0001) %MON dynstat_theta_del2           =   2.6428049344220E-03
(PID.TID 0000.0001) %MON dynstat_salt_max             =   4.1350526221157E+01
(PID.TID 0000.0001) %MON dynstat_salt_min             =   1.8518888519802E+01
(PID.TID 0000.0001) %MON dynstat_salt_mean            =   3.4771964284752E+01
(PID.TID 0000.0001) %MON dynstat_salt_sd              =   5.3182405143222E-01
(PID.TID 0000.0001) %MON dynstat_salt_del2            =   1.0291386201850E-03
(PID.TID 0000.0001) %MON dynstat_sst_max              =   3.0926232324606E+01
(PID.TID 0000.0001) %MON dynstat_sst_min              =  -1.8970072036659E+00
(PID.TID 0000.0001) %MON dynstat_sst_mean             =   1.8107910077348E+01
(PID.TID 0000.0001) %MON dynstat_sst_sd               =   9.8109346094425E+00
(PID.TID 0000.0001) %MON dynstat_sst_del2             =   1.5047123479757E-02
(PID.TID 0000.0001) %MON dynstat_sss_max              =   4.1350526221157E+01
(PID.TID 0000.0001) %MON dynstat_sss_min              =   1.8751759393580E+01
(PID.TID 0000.0001) %MON dynstat_sss_mean             =   3.4625263631895E+01
(PID.TID 0000.0001) %MON dynstat_sss_sd               =   1.4791890656819E+00
(PID.TID 0000.0001) %MON dynstat_sss_del2             =   1.1385312679076E-02
(PID.TID 0000.0001) %MON forcing_qnet_max             =   4.3944106534775E+03
(PID.TID 0000.0001) %MON forcing_qnet_min             =  -1.3328641753133E+03
(PID.TID 0000.0001) %MON forcing_qnet_mean            =   1.9198657847540E+01
(PID.TID 0000.0001) %MON forcing_qnet_sd              =   2.0818688257341E+02
(PID.TID 0000.0001) %MON forcing_qnet_del2            =   5.0488973874475E+00
(PID.TID 0000.0001) %MON forcing_qsw_max              =   0.0000000000000E+00
(PID.TID 0000.0001) %MON forcing_qsw_min              =  -1.0619866818889E+02
(PID.TID 0000.0001) %MON forcing_qsw_mean             =  -1.3225751587234E+01
(PID.TID 0000.0001) %MON forcing_qsw_sd               =   2.3162361916765E+01
(PID.TID 0000.0001) %MON forcing_qsw_del2             =   1.9068948762734E-01
(PID.TID 0000.0001) %MON forcing_empmr_max            =   6.6084996797144E-03
(PID.TID 0000.0001) %MON forcing_empmr_min            =  -9.4998851418495E-02
(PID.TID 0000.0001) %MON forcing_empmr_mean           =  -2.8755528290170E-04
(PID.TID 0000.0001) %MON forcing_empmr_sd             =   4.1877916817562E-03
(PID.TID 0000.0001) %MON forcing_empmr_del2           =   1.6523151106186E-04
(PID.TID 0000.0001) %MON forcing_fu_max               =   3.7063639884127E-01
(PID.TID 0000.0001) %MON forcing_fu_min               =  -3.5920469893745E-01
(PID.TID 0000.0001) %MON forcing_fu_mean              =  -3.7074811024517E-03
(PID.TID 0000.0001) %MON forcing_fu_sd                =   6.1984508023955E-02
(PID.TID 0000.0001) %MON forcing_fu_del2              =   6.1402760337119E-04
(PID.TID 0000.0001) %MON forcing_fv_max               =   3.2917767093990E-01
(PID.TID 0000.0001) %MON forcing_fv_min               =  -2.9290987619085E-01
(PID.TID 0000.0001) %MON forcing_fv_mean              =  -1.4822544988431E-02
(PID.TID 0000.0001) %MON forcing_fv_sd                =   6.3513697410695E-02
(PID.TID 0000.0001) %MON forcing_fv_del2              =   5.4666894478926E-04
(PID.TID 0000.0001) %MON trAdv_CFL_u_max              =   1.6490608685080E-03
(PID.TID 0000.0001) %MON trAdv_CFL_v_max              =   1.5648917888024E-03
(PID.TID 0000.0001) %MON trAdv_CFL_w_max              =   1.8037741438351E-03
(PID.TID 0000.0001) %MON advcfl_uvel_max              =   1.6480395502297E-03
(PID.TID 0000.0001) %MON advcfl_vvel_max              =   1.5195650051306E-03
(PID.TID 0000.0001) %MON advcfl_wvel_max              =   3.3043078754259E-03
(PID.TID 0000.0001) %MON advcfl_W_hf_max              =   1.9419415326367E-03
(PID.TID 0000.0001) %MON pe_b_mean                    =   5.0645141491594E-04
(PID.TID 0000.0001) %MON ke_max                       =   1.8003679778778E-01
(PID.TID 0000.0001) %MON ke_mean                      =   1.6205064314639E-04
(PID.TID 0000.0001) %MON ke_vol                       =   1.3398121321489E+18
(PID.TID 0000.0001) %MON vort_r_min                   =  -3.5153295523438E-06
(PID.TID 0000.0001) %MON vort_r_max                   =   2.4655494269423E-06
(PID.TID 0000.0001) %MON vort_a_mean                  =  -2.0549865324846E-05
(PID.TID 0000.0001) %MON vort_a_sd                    =   7.5259667068022E-05
(PID.TID 0000.0001) %MON vort_p_mean                  =  -2.4783293848321E-05
(PID.TID 0000.0001) %MON vort_p_sd                    =   1.2811899500228E-04
(PID.TID 0000.0001) %MON surfExpan_theta_mean         =  -6.6650373265346E-06
(PID.TID 0000.0001) %MON surfExpan_salt_mean          =   1.1934899513263E-06
(PID.TID 0000.0001) // =======================================================
(PID.TID 0000.0001) // End MONITOR dynamic field statistics
(PID.TID 0000.0001) // =======================================================
 Computing Diagnostic #     81  oceTAUX      Counter:       1   Parms: UU      U1      
           Vector  Mate for  oceTAUX      Diagnostic #     82  oceTAUY  exists 
 Computing Diagnostic #     82  oceTAUY      Counter:       1   Parms: VV      U1      
           Vector  Mate for  oceTAUY      Diagnostic #     81  oceTAUX  exists 
 Computing Diagnostic #     85  oceFWflx     Counter:       1   Parms: SM      U1      
 Computing Diagnostic #     86  oceSflux     Counter:       1   Parms: SM      U1      
 Computing Diagnostic #     87  oceQnet      Counter:       1   Parms: SM      U1      
 Computing Diagnostic #     88  oceQsw       Counter:       1   Parms: SM      U1      
 Computing Diagnostic #     27  SALT         Counter:       1   Parms: SMR     MR      
 Computing Diagnostic #     26  THETA        Counter:       1   Parms: SMR     MR      
 Computing Diagnostic #     45  UVELMASS     Counter:       1   Parms: UUr     MR      
           Vector  Mate for  UVELMASS     Diagnostic #     46  VVELMASS exists 
 Computing Diagnostic #     46  VVELMASS     Counter:       1   Parms: VVr     MR      
           Vector  Mate for  VVELMASS     Diagnostic #     45  UVELMASS exists 
 Computing Diagnostic #     83  atmPload     Counter:       1   Parms: SM      U1      
 cg2d: Sum(rhs),rhsMax =  -3.60006196299622E+01  6.48252891331872E+01
(PID.TID 0000.0001)      cg2d_init_res =   1.45134949881176E-01
(PID.TID 0000.0001)      cg2d_iters(min,last) =      -1      10
(PID.TID 0000.0001)      cg2d_last_res =   7.78275745895966E-08
(PID.TID 0000.0001) // =======================================================
(PID.TID 0000.0001) // Begin MONITOR dynamic field statistics
(PID.TID 0000.0001) // =======================================================
(PID.TID 0000.0001) %MON time_tsnumber                =                 72052
(PID.TID 0000.0001) %MON time_secondsf                =   6.4846800000000E+07
(PID.TID 0000.0001) %MON dynstat_eta_max              =   2.8872143756099E+00
(PID.TID 0000.0001) %MON dynstat_eta_min              =  -1.5950312438600E+00
(PID.TID 0000.0001) %MON dynstat_eta_mean             =   2.7117872311874E-02
(PID.TID 0000.0001) %MON dynstat_eta_sd               =   6.1553977711159E-01
(PID.TID 0000.0001) %MON dynstat_eta_del2             =   2.3306304782235E-03
(PID.TID 0000.0001) %MON dynstat_uvel_max             =   2.9767304514120E-01
(PID.TID 0000.0001) %MON dynstat_uvel_min             =  -5.8779472300089E-01
(PID.TID 0000.0001) %MON dynstat_uvel_mean            =  -5.0353463182604E-04
(PID.TID 0000.0001) %MON dynstat_uvel_sd              =   1.2682157371987E-02
(PID.TID 0000.0001) %MON dynstat_uvel_del2            =   9.3010721649935E-05
(PID.TID 0000.0001) %MON dynstat_vvel_max             =   4.8836137582351E-01
(PID.TID 0000.0001) %MON dynstat_vvel_min             =  -5.4558722260136E-01
(PID.TID 0000.0001) %MON dynstat_vvel_mean            =   3.3817465627873E-04
(PID.TID 0000.0001) %MON dynstat_vvel_sd              =   1.3806419813373E-02
(PID.TID 0000.0001) %MON dynstat_vvel_del2            =   8.6922170313682E-05
(PID.TID 0000.0001) %MON dynstat_wvel_max             =   1.4745038916674E-04
(PID.TID 0000.0001) %MON dynstat_wvel_min             =  -1.9179875290245E-04
(PID.TID 0000.0001) %MON dynstat_wvel_mean            =  -2.7651773942570E-07
(PID.TID 0000.0001) %MON dynstat_wvel_sd              =   7.9846882595797E-06
(PID.TID 0000.0001) %MON dynstat_wvel_del2            =   7.7686785801706E-08
(PID.TID 0000.0001) %MON dynstat_theta_max            =   3.0926255388622E+01
(PID.TID 0000.0001) %MON dynstat_theta_min            =  -3.0048142248780E+00
(PID.TID 0000.0001) %MON dynstat_theta_mean           =   3.9091439436226E+00
(PID.TID 0000.0001) %MON dynstat_theta_sd             =   4.5714406480289E+00
(PID.TID 0000.0001) %MON dynstat_theta_del2           =   2.6426525743681E-03
(PID.TID 0000.0001) %MON dynstat_salt_max             =   4.1350210815050E+01
(PID.TID 0000.0001) %MON dynstat_salt_min             =   1.8518898858670E+01
(PID.TID 0000.0001) %MON dynstat_salt_mean            =   3.4771961664388E+01
(PID.TID 0000.0001) %MON dynstat_salt_sd              =   5.3184034351226E-01
(PID.TID 0000.0001) %MON dynstat_salt_del2            =   1.0332954011234E-03
(PID.TID 0000.0001) %MON dynstat_sst_max              =   3.0926255388622E+01
(PID.TID 0000.0001) %MON dynstat_sst_min              =  -1.8970554816374E+00
(PID.TID 0000.0001) %MON dynstat_sst_mean             =   1.8107860976793E+01
(PID.TID 0000.0001) %MON dynstat_sst_sd               =   9.8110083200824E+00
(PID.TID 0000.0001) %MON dynstat_sst_del2             =   1.5044323095573E-02
(PID.TID 0000.0001) %MON dynstat_sss_max              =   4.1350210815050E+01
(PID.TID 0000.0001) %MON dynstat_sss_min              =   1.8751796255878E+01
(PID.TID 0000.0001) %MON dynstat_sss_mean             =   3.4625078818392E+01
(PID.TID 0000.0001) %MON dynstat_sss_sd               =   1.4796000755702E+00
(PID.TID 0000.0001) %MON dynstat_sss_del2             =   1.1444597770273E-02
(PID.TID 0000.0001) %MON forcing_qnet_max             =   2.1410913085938E+03
(PID.TID 0000.0001) %MON forcing_qnet_min             =  -1.3151280898474E+03
(PID.TID 0000.0001) %MON forcing_qnet_mean            =   1.7232231504529E+01
(PID.TID 0000.0001) %MON forcing_qnet_sd              =   1.9684461509069E+02
(PID.TID 0000.0001) %MON forcing_qnet_del2            =   4.0131070205555E+00
(PID.TID 0000.0001) %MON forcing_qsw_max              =   0.0000000000000E+00
(PID.TID 0000.0001) %MON forcing_qsw_min              =  -1.0418602245581E+02
(PID.TID 0000.0001) %MON forcing_qsw_mean             =  -1.3275622372467E+01
(PID.TID 0000.0001) %MON forcing_qsw_sd               =   2.3030902245126E+01
(PID.TID 0000.0001) %MON forcing_qsw_del2             =   1.9048028974076E-01
(PID.TID 0000.0001) %MON forcing_empmr_max            =   6.5404041670263E-03
(PID.TID 0000.0001) %MON forcing_empmr_min            =  -9.4019643962383E-02
(PID.TID 0000.0001) %MON forcing_empmr_mean           =  -2.8461476602413E-04
(PID.TID 0000.0001) %MON forcing_empmr_sd             =   4.1467979771607E-03
(PID.TID 0000.0001) %MON forcing_empmr_del2           =   1.6359153893890E-04
(PID.TID 0000.0001) %MON forcing_fu_max               =   3.7627476939054E-01
(PID.TID 0000.0001) %MON forcing_fu_min               =  -3.5759808688278E-01
(PID.TID 0000.0001) %MON forcing_fu_mean              =  -3.6164238865297E-03
(PID.TID 0000.0001) %MON forcing_fu_sd                =   6.2184704290264E-02
(PID.TID 0000.0001) %MON forcing_fu_del2              =   6.1569264708354E-04
(PID.TID 0000.0001) %MON forcing_fv_max               =   3.1929522205096E-01
(PID.TID 0000.0001) %MON forcing_fv_min               =  -2.9260663469474E-01
(PID.TID 0000.0001) %MON forcing_fv_mean              =  -1.4889165702818E-02
(PID.TID 0000.0001) %MON forcing_fv_sd                =   6.3318355957890E-02
(PID.TID 0000.0001) %MON forcing_fv_del2              =   5.4502357009132E-04
(PID.TID 0000.0001) %MON trAdv_CFL_u_max              =   1.7092413763956E-03
(PID.TID 0000.0001) %MON trAdv_CFL_v_max              =   1.6335172093131E-03
(PID.TID 0000.0001) %MON trAdv_CFL_w_max              =   1.8387856846472E-03
(PID.TID 0000.0001) %MON advcfl_uvel_max              =   1.7081368459344E-03
(PID.TID 0000.0001) %MON advcfl_vvel_max              =   1.5951367640817E-03
(PID.TID 0000.0001) %MON advcfl_wvel_max              =   3.2702484856481E-03
(PID.TID 0000.0001) %MON advcfl_W_hf_max              =   1.8957956847071E-03
(PID.TID 0000.0001) %MON pe_b_mean                    =   5.0572642453420E-04
(PID.TID 0000.0001) %MON ke_max                       =   1.8987440886432E-01
(PID.TID 0000.0001) %MON ke_mean                      =   1.6249433211330E-04
(PID.TID 0000.0001) %MON ke_vol                       =   1.3398122231381E+18
(PID.TID 0000.0001) %MON vort_r_min                   =  -3.6657504256955E-06
(PID.TID 0000.0001) %MON vort_r_max                   =   2.5095457895980E-06
(PID.TID 0000.0001) %MON vort_a_mean                  =  -2.0549865324846E-05
(PID.TID 0000.0001) %MON vort_a_sd                    =   7.5259676845164E-05
(PID.TID 0000.0001) %MON vort_p_mean                  =  -2.4783291896252E-05
(PID.TID 0000.0001) %MON vort_p_sd                    =   1.2811898284688E-04
(PID.TID 0000.0001) %MON surfExpan_theta_mean         =  -6.7644752808003E-06
(PID.TID 0000.0001) %MON surfExpan_salt_mean          =   1.2233285578754E-06
(PID.TID 0000.0001) // =======================================================
(PID.TID 0000.0001) // End MONITOR dynamic field statistics
(PID.TID 0000.0001) // =======================================================
 cg2d: Sum(rhs),rhsMax =  -3.73967586241580E+01  6.29726614287315E+01
(PID.TID 0000.0001)      cg2d_init_res =   1.53589586305236E-01
(PID.TID 0000.0001)      cg2d_iters(min,last) =      -1      10
(PID.TID 0000.0001)      cg2d_last_res =   7.86441655022528E-08
(PID.TID 0000.0001) // =======================================================
(PID.TID 0000.0001) // Begin MONITOR dynamic field statistics
(PID.TID 0000.0001) // =======================================================
(PID.TID 0000.0001) %MON time_tsnumber                =                 72053
(PID.TID 0000.0001) %MON time_secondsf                =   6.4847700000000E+07
(PID.TID 0000.0001) %MON dynstat_eta_max              =   2.8047668276593E+00
(PID.TID 0000.0001) %MON dynstat_eta_min              =  -1.5934352385919E+00
(PID.TID 0000.0001) %MON dynstat_eta_mean             =   2.7364478932669E-02
(PID.TID 0000.0001) %MON dynstat_eta_sd               =   6.1505097877739E-01
(PID.TID 0000.0001) %MON dynstat_eta_del2             =   2.2484002528924E-03
(PID.TID 0000.0001) %MON dynstat_uvel_max             =   3.4941748305190E-01
(PID.TID 0000.0001) %MON dynstat_uvel_min             =  -6.0890624657058E-01
(PID.TID 0000.0001) %MON dynstat_uvel_mean            =  -4.9046899783446E-04
(PID.TID 0000.0001) %MON dynstat_uvel_sd              =   1.2694629610086E-02
(PID.TID 0000.0001) %MON dynstat_uvel_del2            =   9.4062149227926E-05
(PID.TID 0000.0001) %MON dynstat_vvel_max             =   5.3541609544870E-01
(PID.TID 0000.0001) %MON dynstat_vvel_min             =  -5.6927764161085E-01
(PID.TID 0000.0001) %MON dynstat_vvel_mean            =   3.7349500626445E-04
(PID.TID 0000.0001) %MON dynstat_vvel_sd              =   1.3836088717703E-02
(PID.TID 0000.0001) %MON dynstat_vvel_del2            =   8.8363419422639E-05
(PID.TID 0000.0001) %MON dynstat_wvel_max             =   1.4408676834524E-04
(PID.TID 0000.0001) %MON dynstat_wvel_min             =  -1.9158492537679E-04
(PID.TID 0000.0001) %MON dynstat_wvel_mean            =  -2.9456334558007E-07
(PID.TID 0000.0001) %MON dynstat_wvel_sd              =   8.0177484241581E-06
(PID.TID 0000.0001) %MON dynstat_wvel_del2            =   7.7947121125122E-08
(PID.TID 0000.0001) %MON dynstat_theta_max            =   3.0926264574189E+01
(PID.TID 0000.0001) %MON dynstat_theta_min            =  -3.0050231576649E+00
(PID.TID 0000.0001) %MON dynstat_theta_mean           =   3.9091447192196E+00
(PID.TID 0000.0001) %MON dynstat_theta_sd             =   4.5714432215435E+00
(PID.TID 0000.0001) %MON dynstat_theta_del2           =   2.6425044404890E-03
(PID.TID 0000.0001) %MON dynstat_salt_max             =   4.1349908701041E+01
(PID.TID 0000.0001) %MON dynstat_salt_min             =   1.8518909185473E+01
(PID.TID 0000.0001) %MON dynstat_salt_mean            =   3.4771959078909E+01
(PID.TID 0000.0001) %MON dynstat_salt_sd              =   5.3185642357976E-01
(PID.TID 0000.0001) %MON dynstat_salt_del2            =   1.0373833071751E-03
(PID.TID 0000.0001) %MON dynstat_sst_max              =   3.0926264574189E+01
(PID.TID 0000.0001) %MON dynstat_sst_min              =  -1.8971192678261E+00
(PID.TID 0000.0001) %MON dynstat_sst_mean             =   1.8107823993143E+01
(PID.TID 0000.0001) %MON dynstat_sst_sd               =   9.8110815396701E+00
(PID.TID 0000.0001) %MON dynstat_sst_del2             =   1.5041589475915E-02
(PID.TID 0000.0001) %MON dynstat_sss_max              =   4.1349908701041E+01
(PID.TID 0000.0001) %MON dynstat_sss_min              =   1.8751829443534E+01
(PID.TID 0000.0001) %MON dynstat_sss_mean             =   3.4624895921130E+01
(PID.TID 0000.0001) %MON dynstat_sss_sd               =   1.4800055348183E+00
(PID.TID 0000.0001) %MON dynstat_sss_del2             =   1.1502834860283E-02
(PID.TID 0000.0001) %MON forcing_qnet_max             =   2.1146330566406E+03
(PID.TID 0000.0001) %MON forcing_qnet_min             =  -3.3632434082031E+03
(PID.TID 0000.0001) %MON forcing_qnet_mean            =   1.4194566415914E+01
(PID.TID 0000.0001) %MON forcing_qnet_sd              =   2.0039025295828E+02
(PID.TID 0000.0001) %MON forcing_qnet_del2            =   4.7195278130772E+00
(PID.TID 0000.0001) %MON forcing_qsw_max              =   0.0000000000000E+00
(PID.TID 0000.0001) %MON forcing_qsw_min              =  -9.8936793677285E+01
(PID.TID 0000.0001) %MON forcing_qsw_mean             =  -1.3543956872400E+01
(PID.TID 0000.0001) %MON forcing_qsw_sd               =   2.3020096949775E+01
(PID.TID 0000.0001) %MON forcing_qsw_del2             =   1.8960435994896E-01
(PID.TID 0000.0001) %MON forcing_empmr_max            =   6.4729973673820E-03
(PID.TID 0000.0001) %MON forcing_empmr_min            =  -9.3051336705685E-02
(PID.TID 0000.0001) %MON forcing_empmr_mean           =  -2.8359761391495E-04
(PID.TID 0000.0001) %MON forcing_empmr_sd             =   4.1070335180964E-03
(PID.TID 0000.0001) %MON forcing_empmr_del2           =   1.6199605678384E-04
(PID.TID 0000.0001) %MON forcing_fu_max               =   3.8032372256065E-01
(PID.TID 0000.0001) %MON forcing_fu_min               =  -3.5461698058416E-01
(PID.TID 0000.0001) %MON forcing_fu_mean              =  -3.6090380421653E-03
(PID.TID 0000.0001) %MON forcing_fu_sd                =   6.2499772920689E-02
(PID.TID 0000.0001) %MON forcing_fu_del2              =   6.1949418860920E-04
(PID.TID 0000.0001) %MON forcing_fv_max               =   3.1610709245456E-01
(PID.TID 0000.0001) %MON forcing_fv_min               =  -2.9158162449298E-01
(PID.TID 0000.0001) %MON forcing_fv_mean              =  -1.4921394651975E-02
(PID.TID 0000.0001) %MON forcing_fv_sd                =   6.3182618827727E-02
(PID.TID 0000.0001) %MON forcing_fv_del2              =   5.4469196135087E-04
(PID.TID 0000.0001) %MON trAdv_CFL_u_max              =   1.7707359929963E-03
(PID.TID 0000.0001) %MON trAdv_CFL_v_max              =   1.7643189673419E-03
(PID.TID 0000.0001) %MON trAdv_CFL_w_max              =   1.8658047572080E-03
(PID.TID 0000.0001) %MON advcfl_uvel_max              =   1.7694871266907E-03
(PID.TID 0000.0001) %MON advcfl_vvel_max              =   1.7472580233092E-03
(PID.TID 0000.0001) %MON advcfl_wvel_max              =   3.2365682332412E-03
(PID.TID 0000.0001) %MON advcfl_W_hf_max              =   1.8658047572080E-03
(PID.TID 0000.0001) %MON pe_b_mean                    =   5.0494297173258E-04
(PID.TID 0000.0001) %MON ke_max                       =   1.9936637548743E-01
(PID.TID 0000.0001) %MON ke_mean                      =   1.6302598912555E-04
(PID.TID 0000.0001) %MON ke_vol                       =   1.3398123131968E+18
(PID.TID 0000.0001) %MON vort_r_min                   =  -3.8106137541840E-06
(PID.TID 0000.0001) %MON vort_r_max                   =   2.5428293880140E-06
(PID.TID 0000.0001) %MON vort_a_mean                  =  -2.0549865324846E-05
(PID.TID 0000.0001) %MON vort_a_sd                    =   7.5259686000312E-05
(PID.TID 0000.0001) %MON vort_p_mean                  =  -2.4783289902916E-05
(PID.TID 0000.0001) %MON vort_p_sd                    =   1.2811897375573E-04
(PID.TID 0000.0001) %MON surfExpan_theta_mean         =  -6.8815620655951E-06
(PID.TID 0000.0001) %MON surfExpan_salt_mean          =   1.2491600348755E-06
(PID.TID 0000.0001) // =======================================================
(PID.TID 0000.0001) // End MONITOR dynamic field statistics
(PID.TID 0000.0001) // =======================================================
 cg2d: Sum(rhs),rhsMax =  -3.90857836929708E+01  6.07916491292726E+01
(PID.TID 0000.0001)      cg2d_init_res =   1.64113114240823E-01
(PID.TID 0000.0001)      cg2d_iters(min,last) =      -1      10
(PID.TID 0000.0001)      cg2d_last_res =   7.95050222057125E-08
(PID.TID 0000.0001) // =======================================================
(PID.TID 0000.0001) // Begin MONITOR dynamic field statistics
(PID.TID 0000.0001) // =======================================================
(PID.TID 0000.0001) %MON time_tsnumber                =                 72054
(PID.TID 0000.0001) %MON time_secondsf                =   6.4848600000000E+07
(PID.TID 0000.0001) %MON dynstat_eta_max              =   2.7077322794731E+00
(PID.TID 0000.0001) %MON dynstat_eta_min              =  -1.5920047032499E+00
(PID.TID 0000.0001) %MON dynstat_eta_mean             =   2.7609842064388E-02
(PID.TID 0000.0001) %MON dynstat_eta_sd               =   6.1454136777461E-01
(PID.TID 0000.0001) %MON dynstat_eta_del2             =   2.1528704548379E-03
(PID.TID 0000.0001) %MON dynstat_uvel_max             =   4.3250717276300E-01
(PID.TID 0000.0001) %MON dynstat_uvel_min             =  -6.3030545896908E-01
(PID.TID 0000.0001) %MON dynstat_uvel_mean            =  -4.7558439091834E-04
(PID.TID 0000.0001) %MON dynstat_uvel_sd              =   1.2715780668917E-02
(PID.TID 0000.0001) %MON dynstat_uvel_del2            =   9.5049977869134E-05
(PID.TID 0000.0001) %MON dynstat_vvel_max             =   5.9320974252272E-01
(PID.TID 0000.0001) %MON dynstat_vvel_min             =  -5.9057201648052E-01
(PID.TID 0000.0001) %MON dynstat_vvel_mean            =   4.0548877070072E-04
(PID.TID 0000.0001) %MON dynstat_vvel_sd              =   1.3862264228455E-02
(PID.TID 0000.0001) %MON dynstat_vvel_del2            =   9.0243489549541E-05
(PID.TID 0000.0001) %MON dynstat_wvel_max             =   1.4081480877199E-04
(PID.TID 0000.0001) %MON dynstat_wvel_min             =  -1.9140581760659E-04
(PID.TID 0000.0001) %MON dynstat_wvel_mean            =  -3.0910428663493E-07
(PID.TID 0000.0001) %MON dynstat_wvel_sd              =   8.0466833901586E-06
(PID.TID 0000.0001) %MON dynstat_wvel_del2            =   7.8093101946887E-08
(PID.TID 0000.0001) %MON dynstat_theta_max            =   3.0926266465712E+01
(PID.TID 0000.0001) %MON dynstat_theta_min            =  -3.0052490466904E+00
(PID.TID 0000.0001) %MON dynstat_theta_mean           =   3.9091455164233E+00
(PID.TID 0000.0001) %MON dynstat_theta_sd             =   4.5714457896525E+00
(PID.TID 0000.0001) %MON dynstat_theta_del2           =   2.6423409503754E-03
(PID.TID 0000.0001) %MON dynstat_salt_max             =   4.1349621464975E+01
(PID.TID 0000.0001) %MON dynstat_salt_min             =   1.8518919502711E+01
(PID.TID 0000.0001) %MON dynstat_salt_mean            =   3.4771956516350E+01
(PID.TID 0000.0001) %MON dynstat_salt_sd              =   5.3187224882447E-01
(PID.TID 0000.0001) %MON dynstat_salt_del2            =   1.0414002883404E-03
(PID.TID 0000.0001) %MON dynstat_sst_max              =   3.0926266465712E+01
(PID.TID 0000.0001) %MON dynstat_sst_min              =  -1.8971977535275E+00
(PID.TID 0000.0001) %MON dynstat_sst_mean             =   1.8107788845866E+01
(PID.TID 0000.0001) %MON dynstat_sst_sd               =   9.8111522181939E+00
(PID.TID 0000.0001) %MON dynstat_sst_del2             =   1.5038585333672E-02
(PID.TID 0000.0001) %MON dynstat_sss_max              =   4.1349621464975E+01
(PID.TID 0000.0001) %MON dynstat_sss_min              =   1.8751860694832E+01
(PID.TID 0000.0001) %MON dynstat_sss_mean             =   3.4624714017490E+01
(PID.TID 0000.0001) %MON dynstat_sss_sd               =   1.4804048248499E+00
(PID.TID 0000.0001) %MON dynstat_sss_del2             =   1.1560017938400E-02
(PID.TID 0000.0001) %MON forcing_qnet_max             =   3.1737194824219E+03
(PID.TID 0000.0001) %MON forcing_qnet_min             =  -1.2780737304688E+03
(PID.TID 0000.0001) %MON forcing_qnet_mean            =   1.3502256325172E+01
(PID.TID 0000.0001) %MON forcing_qnet_sd              =   2.0452009646183E+02
(PID.TID 0000.0001) %MON forcing_qnet_del2            =   4.4323064637856E+00
(PID.TID 0000.0001) %MON forcing_qsw_max              =   0.0000000000000E+00
(PID.TID 0000.0001) %MON forcing_qsw_min              =  -9.8456921756385E+01
(PID.TID 0000.0001) %MON forcing_qsw_mean             =  -1.3693266977699E+01
(PID.TID 0000.0001) %MON forcing_qsw_sd               =   2.3118484649194E+01
(PID.TID 0000.0001) %MON forcing_qsw_del2             =   1.9073441327797E-01
(PID.TID 0000.0001) %MON forcing_empmr_max            =   6.4062797464430E-03
(PID.TID 0000.0001) %MON forcing_empmr_min            =  -9.2092260718346E-02
(PID.TID 0000.0001) %MON forcing_empmr_mean           =  -2.8216760147654E-04
(PID.TID 0000.0001) %MON forcing_empmr_sd             =   4.0699175036428E-03
(PID.TID 0000.0001) %MON forcing_empmr_del2           =   1.6048395774782E-04
(PID.TID 0000.0001) %MON forcing_fu_max               =   3.8358180028947E-01
(PID.TID 0000.0001) %MON forcing_fu_min               =  -3.5027299946073E-01
(PID.TID 0000.0001) %MON forcing_fu_mean              =  -3.5801664263901E-03
(PID.TID 0000.0001) %MON forcing_fu_sd                =   6.2823219080504E-02
(PID.TID 0000.0001) %MON forcing_fu_del2              =   6.2323191272634E-04
(PID.TID 0000.0001) %MON forcing_fv_max               =   3.1109455267967E-01
(PID.TID 0000.0001) %MON forcing_fv_min               =  -2.9005518299164E-01
(PID.TID 0000.0001) %MON forcing_fv_mean              =  -1.4922931091124E-02
(PID.TID 0000.0001) %MON forcing_fv_sd                =   6.3087168050497E-02
(PID.TID 0000.0001) %MON forcing_fv_del2              =   5.4408808378746E-04
(PID.TID 0000.0001) %MON trAdv_CFL_u_max              =   1.8331537540411E-03
(PID.TID 0000.0001) %MON trAdv_CFL_v_max              =   1.9571137126463E-03
(PID.TID 0000.0001) %MON trAdv_CFL_w_max              =   1.8848514261045E-03
(PID.TID 0000.0001) %MON advcfl_uvel_max              =   1.8316734338172E-03
(PID.TID 0000.0001) %MON advcfl_vvel_max              =   1.9358597751146E-03
(PID.TID 0000.0001) %MON advcfl_wvel_max              =   3.2032090684642E-03
(PID.TID 0000.0001) %MON advcfl_W_hf_max              =   1.8848514261045E-03
(PID.TID 0000.0001) %MON pe_b_mean                    =   5.0412614802420E-04
(PID.TID 0000.0001) %MON ke_max                       =   2.0852083476191E-01
(PID.TID 0000.0001) %MON ke_mean                      =   1.6361428651539E-04
(PID.TID 0000.0001) %MON ke_vol                       =   1.3398124029337E+18
(PID.TID 0000.0001) %MON vort_r_min                   =  -3.9486850479342E-06
(PID.TID 0000.0001) %MON vort_r_max                   =   2.5660929422951E-06
(PID.TID 0000.0001) %MON vort_a_mean                  =  -2.0549865324846E-05
(PID.TID 0000.0001) %MON vort_a_sd                    =   7.5259694497768E-05
(PID.TID 0000.0001) %MON vort_p_mean                  =  -2.4783287863911E-05
(PID.TID 0000.0001) %MON vort_p_sd                    =   1.2811896802938E-04
(PID.TID 0000.0001) %MON surfExpan_theta_mean         =  -6.9769726992878E-06
(PID.TID 0000.0001) %MON surfExpan_salt_mean          =   1.2722847706498E-06
(PID.TID 0000.0001) // =======================================================
(PID.TID 0000.0001) // End MONITOR dynamic field statistics
(PID.TID 0000.0001) // =======================================================
 cg2d: Sum(rhs),rhsMax =  -4.11144761466856E+01  5.83023148672047E+01
(PID.TID 0000.0001)      cg2d_init_res =   1.76460861980174E-01
(PID.TID 0000.0001)      cg2d_iters(min,last) =      -1      10
(PID.TID 0000.0001)      cg2d_last_res =   7.99755900166549E-08
(PID.TID 0000.0001) // =======================================================
(PID.TID 0000.0001) // Begin MONITOR dynamic field statistics
(PID.TID 0000.0001) // =======================================================
(PID.TID 0000.0001) %MON time_tsnumber                =                 72055
(PID.TID 0000.0001) %MON time_secondsf                =   6.4849500000000E+07
(PID.TID 0000.0001) %MON dynstat_eta_max              =   2.5969991376184E+00
(PID.TID 0000.0001) %MON dynstat_eta_min              =  -1.5907298808011E+00
(PID.TID 0000.0001) %MON dynstat_eta_mean             =   2.7853625554887E-02
(PID.TID 0000.0001) %MON dynstat_eta_sd               =   6.1402702362243E-01
(PID.TID 0000.0001) %MON dynstat_eta_del2             =   2.0473122126740E-03
(PID.TID 0000.0001) %MON dynstat_uvel_max             =   5.0662468535489E-01
(PID.TID 0000.0001) %MON dynstat_uvel_min             =  -6.5180967997492E-01
(PID.TID 0000.0001) %MON dynstat_uvel_mean            =  -4.5925906487863E-04
(PID.TID 0000.0001) %MON dynstat_uvel_sd              =   1.2744231405377E-02
(PID.TID 0000.0001) %MON dynstat_uvel_del2            =   9.5934655814196E-05
(PID.TID 0000.0001) %MON dynstat_vvel_max             =   6.3891934231390E-01
(PID.TID 0000.0001) %MON dynstat_vvel_min             =  -6.0925422935536E-01
(PID.TID 0000.0001) %MON dynstat_vvel_mean            =   4.3408091049777E-04
(PID.TID 0000.0001) %MON dynstat_vvel_sd              =   1.3883671257646E-02
(PID.TID 0000.0001) %MON dynstat_vvel_del2            =   9.2372425886269E-05
(PID.TID 0000.0001) %MON dynstat_wvel_max             =   1.3749606433117E-04
(PID.TID 0000.0001) %MON dynstat_wvel_min             =  -1.9126244032515E-04
(PID.TID 0000.0001) %MON dynstat_wvel_mean            =  -3.1931636223876E-07
(PID.TID 0000.0001) %MON dynstat_wvel_sd              =   8.0687654519706E-06
(PID.TID 0000.0001) %MON dynstat_wvel_del2            =   7.8112171720319E-08
(PID.TID 0000.0001) %MON dynstat_theta_max            =   3.0926262231213E+01
(PID.TID 0000.0001) %MON dynstat_theta_min            =  -3.0054852714572E+00
(PID.TID 0000.0001) %MON dynstat_theta_mean           =   3.9091463980599E+00
(PID.TID 0000.0001) %MON dynstat_theta_sd             =   4.5714486620008E+00
(PID.TID 0000.0001) %MON dynstat_theta_del2           =   2.6421884568776E-03
(PID.TID 0000.0001) %MON dynstat_salt_max             =   4.1349350383268E+01
(PID.TID 0000.0001) %MON dynstat_salt_min             =   1.8518929812627E+01
(PID.TID 0000.0001) %MON dynstat_salt_mean            =   3.4771954019990E+01
(PID.TID 0000.0001) %MON dynstat_salt_sd              =   5.3188797230150E-01
(PID.TID 0000.0001) %MON dynstat_salt_del2            =   1.0453480584032E-03
(PID.TID 0000.0001) %MON dynstat_sst_max              =   3.0926262231213E+01
(PID.TID 0000.0001) %MON dynstat_sst_min              =  -1.8972898787241E+00
(PID.TID 0000.0001) %MON dynstat_sst_mean             =   1.8107757702497E+01
(PID.TID 0000.0001) %MON dynstat_sst_sd               =   9.8112242406693E+00
(PID.TID 0000.0001) %MON dynstat_sst_del2             =   1.5035758928428E-02
(PID.TID 0000.0001) %MON dynstat_sss_max              =   4.1349350383268E+01
(PID.TID 0000.0001) %MON dynstat_sss_min              =   1.8751890234349E+01
(PID.TID 0000.0001) %MON dynstat_sss_mean             =   3.4624535393679E+01
(PID.TID 0000.0001) %MON dynstat_sss_sd               =   1.4808024226501E+00
(PID.TID 0000.0001) %MON dynstat_sss_del2             =   1.1616146807682E-02
(PID.TID 0000.0001) %MON forcing_qnet_max             =   2.0660314941406E+03
(PID.TID 0000.0001) %MON forcing_qnet_min             =  -1.2599113769531E+03
(PID.TID 0000.0001) %MON forcing_qnet_mean            =   1.1663067003601E+01
(PID.TID 0000.0001) %MON forcing_qnet_sd              =   2.0053444722447E+02
(PID.TID 0000.0001) %MON forcing_qnet_del2            =   4.2648566007271E+00
(PID.TID 0000.0001) %MON forcing_qsw_max              =   0.0000000000000E+00
(PID.TID 0000.0001) %MON forcing_qsw_min              =  -9.9910641880634E+01
(PID.TID 0000.0001) %MON forcing_qsw_mean             =  -1.3805001449564E+01
(PID.TID 0000.0001) %MON forcing_qsw_sd               =   2.3219085602423E+01
(PID.TID 0000.0001) %MON forcing_qsw_del2             =   1.9172225639225E-01
(PID.TID 0000.0001) %MON forcing_empmr_max            =   6.3402503728867E-03
(PID.TID 0000.0001) %MON forcing_empmr_min            =  -9.1144092381001E-02
(PID.TID 0000.0001) %MON forcing_empmr_mean           =  -2.8035101407357E-04
(PID.TID 0000.0001) %MON forcing_empmr_sd             =   4.0394774607411E-03
(PID.TID 0000.0001) %MON forcing_empmr_del2           =   1.5920381907238E-04
(PID.TID 0000.0001) %MON forcing_fu_max               =   3.8022728759490E-01
(PID.TID 0000.0001) %MON forcing_fu_min               =  -3.4539021085596E-01
(PID.TID 0000.0001) %MON forcing_fu_mean              =  -3.5868863513557E-03
(PID.TID 0000.0001) %MON forcing_fu_sd                =   6.2851013355061E-02
(PID.TID 0000.0001) %MON forcing_fu_del2              =   6.2408452181562E-04
(PID.TID 0000.0001) %MON forcing_fv_max               =   3.1713111267517E-01
(PID.TID 0000.0001) %MON forcing_fv_min               =  -2.8821536825259E-01
(PID.TID 0000.0001) %MON forcing_fv_mean              =  -1.4913089302019E-02
(PID.TID 0000.0001) %MON forcing_fv_sd                =   6.2996480002624E-02
(PID.TID 0000.0001) %MON forcing_fv_del2              =   5.4404360421462E-04
(PID.TID 0000.0001) %MON trAdv_CFL_u_max              =   1.8959906312386E-03
(PID.TID 0000.0001) %MON trAdv_CFL_v_max              =   2.1108846906488E-03
(PID.TID 0000.0001) %MON trAdv_CFL_w_max              =   1.8960505263722E-03
(PID.TID 0000.0001) %MON advcfl_uvel_max              =   1.8941648969179E-03
(PID.TID 0000.0001) %MON advcfl_vvel_max              =   2.0850268727351E-03
(PID.TID 0000.0001) %MON advcfl_wvel_max              =   3.1702293002087E-03
(PID.TID 0000.0001) %MON advcfl_W_hf_max              =   1.8960505263722E-03
(PID.TID 0000.0001) %MON pe_b_mean                    =   5.0330231632627E-04
(PID.TID 0000.0001) %MON ke_max                       =   2.1733353215390E-01
(PID.TID 0000.0001) %MON ke_mean                      =   1.6422680378981E-04
(PID.TID 0000.0001) %MON ke_vol                       =   1.3398124922181E+18
(PID.TID 0000.0001) %MON vort_r_min                   =  -4.0786749296757E-06
(PID.TID 0000.0001) %MON vort_r_max                   =   2.5800796676915E-06
(PID.TID 0000.0001) %MON vort_a_mean                  =  -2.0549865324846E-05
(PID.TID 0000.0001) %MON vort_a_sd                    =   7.5259702310035E-05
(PID.TID 0000.0001) %MON vort_p_mean                  =  -2.4783285791739E-05
(PID.TID 0000.0001) %MON vort_p_sd                    =   1.2811896588785E-04
(PID.TID 0000.0001) %MON surfExpan_theta_mean         =  -7.0423531200824E-06
(PID.TID 0000.0001) %MON surfExpan_salt_mean          =   1.2915175974612E-06
(PID.TID 0000.0001) // =======================================================
(PID.TID 0000.0001) // End MONITOR dynamic field statistics
(PID.TID 0000.0001) // =======================================================
 Computing Diagnostic #     81  oceTAUX      Counter:       1   Parms: UU      U1      
           Vector  Mate for  oceTAUX      Diagnostic #     82  oceTAUY  exists 
 Computing Diagnostic #     82  oceTAUY      Counter:       1   Parms: VV      U1      
           Vector  Mate for  oceTAUY      Diagnostic #     81  oceTAUX  exists 
 Computing Diagnostic #     85  oceFWflx     Counter:       1   Parms: SM      U1      
 Computing Diagnostic #     86  oceSflux     Counter:       1   Parms: SM      U1      
 Computing Diagnostic #     87  oceQnet      Counter:       1   Parms: SM      U1      
 Computing Diagnostic #     88  oceQsw       Counter:       1   Parms: SM      U1      
 Computing Diagnostic #     27  SALT         Counter:       1   Parms: SMR     MR      
 Computing Diagnostic #     26  THETA        Counter:       1   Parms: SMR     MR      
 Computing Diagnostic #     45  UVELMASS     Counter:       1   Parms: UUr     MR      
           Vector  Mate for  UVELMASS     Diagnostic #     46  VVELMASS exists 
 Computing Diagnostic #     46  VVELMASS     Counter:       1   Parms: VVr     MR      
           Vector  Mate for  VVELMASS     Diagnostic #     45  UVELMASS exists 
 Computing Diagnostic #     83  atmPload     Counter:       1   Parms: SM      U1      
 cg2d: Sum(rhs),rhsMax =  -4.35509742457697E+01  5.55280173560595E+01
(PID.TID 0000.0001)      cg2d_init_res =   1.90559362962357E-01
(PID.TID 0000.0001)      cg2d_iters(min,last) =      -1      10
(PID.TID 0000.0001)      cg2d_last_res =   7.99592369798236E-08
(PID.TID 0000.0001) // =======================================================
(PID.TID 0000.0001) // Begin MONITOR dynamic field statistics
(PID.TID 0000.0001) // =======================================================
(PID.TID 0000.0001) %MON time_tsnumber                =                 72056
(PID.TID 0000.0001) %MON time_secondsf                =   6.4850400000000E+07
(PID.TID 0000.0001) %MON dynstat_eta_max              =   2.4736022636835E+00
(PID.TID 0000.0001) %MON dynstat_eta_min              =  -1.5895729575068E+00
(PID.TID 0000.0001) %MON dynstat_eta_mean             =   2.8100316733496E-02
(PID.TID 0000.0001) %MON dynstat_eta_sd               =   6.1352326987270E-01
(PID.TID 0000.0001) %MON dynstat_eta_del2             =   1.9355347484608E-03
(PID.TID 0000.0001) %MON dynstat_uvel_max             =   5.7072482893573E-01
(PID.TID 0000.0001) %MON dynstat_uvel_min             =  -6.7320114930892E-01
(PID.TID 0000.0001) %MON dynstat_uvel_mean            =  -4.4182711409249E-04
(PID.TID 0000.0001) %MON dynstat_uvel_sd              =   1.2778496179131E-02
(PID.TID 0000.0001) %MON dynstat_uvel_del2            =   9.6686867201655E-05
(PID.TID 0000.0001) %MON dynstat_vvel_max             =   6.7231077522949E-01
(PID.TID 0000.0001) %MON dynstat_vvel_min             =  -6.2512822659789E-01
(PID.TID 0000.0001) %MON dynstat_vvel_mean            =   4.5927013932896E-04
(PID.TID 0000.0001) %MON dynstat_vvel_sd              =   1.3899263606877E-02
(PID.TID 0000.0001) %MON dynstat_vvel_del2            =   9.4563492323165E-05
(PID.TID 0000.0001) %MON dynstat_wvel_max             =   1.3399873582808E-04
(PID.TID 0000.0001) %MON dynstat_wvel_min             =  -1.9114879171175E-04
(PID.TID 0000.0001) %MON dynstat_wvel_mean            =  -3.2782393436260E-07
(PID.TID 0000.0001) %MON dynstat_wvel_sd              =   8.0834772033603E-06
(PID.TID 0000.0001) %MON dynstat_wvel_del2            =   7.8031294170115E-08
(PID.TID 0000.0001) %MON dynstat_theta_max            =   3.0926251878128E+01
(PID.TID 0000.0001) %MON dynstat_theta_min            =  -3.0057254137085E+00
(PID.TID 0000.0001) %MON dynstat_theta_mean           =   3.9091473405360E+00
(PID.TID 0000.0001) %MON dynstat_theta_sd             =   4.5714516823614E+00
(PID.TID 0000.0001) %MON dynstat_theta_del2           =   2.6420338800810E-03
(PID.TID 0000.0001) %MON dynstat_salt_max             =   4.1349096296201E+01
(PID.TID 0000.0001) %MON dynstat_salt_min             =   1.8518940116986E+01
(PID.TID 0000.0001) %MON dynstat_salt_mean            =   3.4771951560228E+01
(PID.TID 0000.0001) %MON dynstat_salt_sd              =   5.3190345729002E-01
(PID.TID 0000.0001) %MON dynstat_salt_del2            =   1.0492264372590E-03
(PID.TID 0000.0001) %MON dynstat_sst_max              =   3.0926251878128E+01
(PID.TID 0000.0001) %MON dynstat_sst_min              =  -1.8973954719421E+00
(PID.TID 0000.0001) %MON dynstat_sst_mean             =   1.8107728717969E+01
(PID.TID 0000.0001) %MON dynstat_sst_sd               =   9.8112956331947E+00
(PID.TID 0000.0001) %MON dynstat_sst_del2             =   1.5032874509019E-02
(PID.TID 0000.0001) %MON dynstat_sss_max              =   4.1349096296201E+01
(PID.TID 0000.0001) %MON dynstat_sss_min              =   1.8751918302367E+01
(PID.TID 0000.0001) %MON dynstat_sss_mean             =   3.4624358420649E+01
(PID.TID 0000.0001) %MON dynstat_sss_sd               =   1.4811944775619E+00
(PID.TID 0000.0001) %MON dynstat_sss_del2             =   1.1671235736419E-02
(PID.TID 0000.0001) %MON forcing_qnet_max             =   2.8364318783252E+03
(PID.TID 0000.0001) %MON forcing_qnet_min             =  -1.2419858398438E+03
(PID.TID 0000.0001) %MON forcing_qnet_mean            =   1.0739589663769E+01
(PID.TID 0000.0001) %MON forcing_qnet_sd              =   2.0382484286300E+02
(PID.TID 0000.0001) %MON forcing_qnet_del2            =   4.4289726125886E+00
(PID.TID 0000.0001) %MON forcing_qsw_max              =   0.0000000000000E+00
(PID.TID 0000.0001) %MON forcing_qsw_min              =  -1.0092040244098E+02
(PID.TID 0000.0001) %MON forcing_qsw_mean             =  -1.3879216793210E+01
(PID.TID 0000.0001) %MON forcing_qsw_sd               =   2.3319530974361E+01
(PID.TID 0000.0001) %MON forcing_qsw_del2             =   1.9254933420602E-01
(PID.TID 0000.0001) %MON forcing_empmr_max            =   6.2749106436968E-03
(PID.TID 0000.0001) %MON forcing_empmr_min            =  -9.0204320847988E-02
(PID.TID 0000.0001) %MON forcing_empmr_mean           =  -2.8369485540065E-04
(PID.TID 0000.0001) %MON forcing_empmr_sd             =   4.0438043463671E-03
(PID.TID 0000.0001) %MON forcing_empmr_del2           =   1.5909499160137E-04
(PID.TID 0000.0001) %MON forcing_fu_max               =   3.8148884799598E-01
(PID.TID 0000.0001) %MON forcing_fu_min               =  -3.5713679696506E-01
(PID.TID 0000.0001) %MON forcing_fu_mean              =  -3.5549456086801E-03
(PID.TID 0000.0001) %MON forcing_fu_sd                =   6.3059140609214E-02
(PID.TID 0000.0001) %MON forcing_fu_del2              =   6.2650618134356E-04
(PID.TID 0000.0001) %MON forcing_fv_max               =   3.1881767999654E-01
(PID.TID 0000.0001) %MON forcing_fv_min               =  -2.8597767128973E-01
(PID.TID 0000.0001) %MON forcing_fv_mean              =  -1.4893986516182E-02
(PID.TID 0000.0001) %MON forcing_fv_sd                =   6.2881301869736E-02
(PID.TID 0000.0001) %MON forcing_fv_del2              =   5.4320084267756E-04
(PID.TID 0000.0001) %MON trAdv_CFL_u_max              =   1.9586401990704E-03
(PID.TID 0000.0001) %MON trAdv_CFL_v_max              =   2.2247122001658E-03
(PID.TID 0000.0001) %MON trAdv_CFL_w_max              =   1.8996090608745E-03
(PID.TID 0000.0001) %MON advcfl_uvel_max              =   1.9563287026281E-03
(PID.TID 0000.0001) %MON advcfl_vvel_max              =   2.1939952985398E-03
(PID.TID 0000.0001) %MON advcfl_wvel_max              =   3.1375415947126E-03
(PID.TID 0000.0001) %MON advcfl_W_hf_max              =   1.8996090608745E-03
(PID.TID 0000.0001) %MON pe_b_mean                    =   5.0249687718512E-04
(PID.TID 0000.0001) %MON ke_max                       =   2.2577636505463E-01
(PID.TID 0000.0001) %MON ke_mean                      =   1.6483281926559E-04
(PID.TID 0000.0001) %MON ke_vol                       =   1.3398125809277E+18
(PID.TID 0000.0001) %MON vort_r_min                   =  -4.1992449198236E-06
(PID.TID 0000.0001) %MON vort_r_max                   =   2.6173078294113E-06
(PID.TID 0000.0001) %MON vort_a_mean                  =  -2.0549865324846E-05
(PID.TID 0000.0001) %MON vort_a_sd                    =   7.5259709427206E-05
(PID.TID 0000.0001) %MON vort_p_mean                  =  -2.4783283700590E-05
(PID.TID 0000.0001) %MON vort_p_sd                    =   1.2811896725536E-04
(PID.TID 0000.0001) %MON surfExpan_theta_mean         =  -7.1603570651415E-06
(PID.TID 0000.0001) %MON surfExpan_salt_mean          =   1.3043897425974E-06
(PID.TID 0000.0001) // =======================================================
(PID.TID 0000.0001) // End MONITOR dynamic field statistics
(PID.TID 0000.0001) // =======================================================
 cg2d: Sum(rhs),rhsMax =  -4.66830890433937E+01  5.24951282374414E+01
(PID.TID 0000.0001)      cg2d_init_res =   3.00516490982460E-01
(PID.TID 0000.0001)      cg2d_iters(min,last) =      -1      11
(PID.TID 0000.0001)      cg2d_last_res =   2.64373210102212E-08
(PID.TID 0000.0001) // =======================================================
(PID.TID 0000.0001) // Begin MONITOR dynamic field statistics
(PID.TID 0000.0001) // =======================================================
(PID.TID 0000.0001) %MON time_tsnumber                =                 72057
(PID.TID 0000.0001) %MON time_secondsf                =   6.4851300000000E+07
(PID.TID 0000.0001) %MON dynstat_eta_max              =   2.3387105840719E+00
(PID.TID 0000.0001) %MON dynstat_eta_min              =  -1.5884791155357E+00
(PID.TID 0000.0001) %MON dynstat_eta_mean             =   2.8476050864500E-02
(PID.TID 0000.0001) %MON dynstat_eta_sd               =   6.1298702787144E-01
(PID.TID 0000.0001) %MON dynstat_eta_del2             =   1.8388203711614E-03
(PID.TID 0000.0001) %MON dynstat_uvel_max             =   6.2398998747140E-01
(PID.TID 0000.0001) %MON dynstat_uvel_min             =  -6.9423261180264E-01
(PID.TID 0000.0001) %MON dynstat_uvel_mean            =  -4.2239844550361E-04
(PID.TID 0000.0001) %MON dynstat_uvel_sd              =   1.2815485836291E-02
(PID.TID 0000.0001) %MON dynstat_uvel_del2            =   9.7302849891352E-05
(PID.TID 0000.0001) %MON dynstat_vvel_max             =   6.9337778430165E-01
(PID.TID 0000.0001) %MON dynstat_vvel_min             =  -6.3802286816133E-01
(PID.TID 0000.0001) %MON dynstat_vvel_mean            =   4.8254205544997E-04
(PID.TID 0000.0001) %MON dynstat_vvel_sd              =   1.3911286385363E-02
(PID.TID 0000.0001) %MON dynstat_vvel_del2            =   9.6664872103321E-05
(PID.TID 0000.0001) %MON dynstat_wvel_max             =   1.3020667443250E-04
(PID.TID 0000.0001) %MON dynstat_wvel_min             =  -6.6909588477462E-04
(PID.TID 0000.0001) %MON dynstat_wvel_mean            =  -3.6289198693368E-07
(PID.TID 0000.0001) %MON dynstat_wvel_sd              =   8.7531802755956E-06
(PID.TID 0000.0001) %MON dynstat_wvel_del2            =   9.3750505406217E-08
(PID.TID 0000.0001) %MON dynstat_theta_max            =   3.0926235430937E+01
(PID.TID 0000.0001) %MON dynstat_theta_min            =  -3.0059639742618E+00
(PID.TID 0000.0001) %MON dynstat_theta_mean           =   3.9091485081450E+00
(PID.TID 0000.0001) %MON dynstat_theta_sd             =   4.5714545802232E+00
(PID.TID 0000.0001) %MON dynstat_theta_del2           =   2.6418655153472E-03
(PID.TID 0000.0001) %MON dynstat_salt_max             =   4.1348859895056E+01
(PID.TID 0000.0001) %MON dynstat_salt_min             =   1.8518950416981E+01
(PID.TID 0000.0001) %MON dynstat_salt_mean            =   3.4771949024671E+01
(PID.TID 0000.0001) %MON dynstat_salt_sd              =   5.3191832535786E-01
(PID.TID 0000.0001) %MON dynstat_salt_del2            =   1.0530423123824E-03
(PID.TID 0000.0001) %MON dynstat_sst_max              =   3.0926235430937E+01
(PID.TID 0000.0001) %MON dynstat_sst_min              =  -1.8975119038781E+00
(PID.TID 0000.0001) %MON dynstat_sst_mean             =   1.8107672500426E+01
(PID.TID 0000.0001) %MON dynstat_sst_sd               =   9.8113587699851E+00
(PID.TID 0000.0001) %MON dynstat_sst_del2             =   1.5029966489067E-02
(PID.TID 0000.0001) %MON dynstat_sss_max              =   4.1348859895056E+01
(PID.TID 0000.0001) %MON dynstat_sss_min              =   1.8751945089939E+01
(PID.TID 0000.0001) %MON dynstat_sss_mean             =   3.4624171173247E+01
(PID.TID 0000.0001) %MON dynstat_sss_sd               =   1.4815667796869E+00
(PID.TID 0000.0001) %MON dynstat_sss_del2             =   1.1725387354556E-02
(PID.TID 0000.0001) %MON forcing_qnet_max             =   3.9939086630093E+04
(PID.TID 0000.0001) %MON forcing_qnet_min             =  -1.2254698486328E+03
(PID.TID 0000.0001) %MON forcing_qnet_mean            =   1.6497332943225E+01
(PID.TID 0000.0001) %MON forcing_qnet_sd              =   6.4346146264410E+02
(PID.TID 0000.0001) %MON forcing_qnet_del2            =   2.2507850649868E+01
(PID.TID 0000.0001) %MON forcing_qsw_max              =   0.0000000000000E+00
(PID.TID 0000.0001) %MON forcing_qsw_min              =  -1.0206707771948E+02
(PID.TID 0000.0001) %MON forcing_qsw_mean             =  -1.4223696178225E+01
(PID.TID 0000.0001) %MON forcing_qsw_sd               =   2.3972877650854E+01
(PID.TID 0000.0001) %MON forcing_qsw_del2             =   1.9799971695525E-01
(PID.TID 0000.0001) %MON forcing_empmr_max            =   6.2102596275508E-03
(PID.TID 0000.0001) %MON forcing_empmr_min            =  -6.9251424074173E-01
(PID.TID 0000.0001) %MON forcing_empmr_mean           =  -4.3209425065486E-04
(PID.TID 0000.0001) %MON forcing_empmr_sd             =   1.1298368311583E-02
(PID.TID 0000.0001) %MON forcing_empmr_del2           =   4.1394052996146E-04
(PID.TID 0000.0001) %MON forcing_fu_max               =   3.8465091862274E-01
(PID.TID 0000.0001) %MON forcing_fu_min               =  -3.6836460164936E-01
(PID.TID 0000.0001) %MON forcing_fu_mean              =  -3.5018583400766E-03
(PID.TID 0000.0001) %MON forcing_fu_sd                =   6.3251181830214E-02
(PID.TID 0000.0001) %MON forcing_fu_del2              =   6.2823724372444E-04
(PID.TID 0000.0001) %MON forcing_fv_max               =   3.0207254704619E-01
(PID.TID 0000.0001) %MON forcing_fv_min               =  -2.8373335279433E-01
(PID.TID 0000.0001) %MON forcing_fv_mean              =  -1.4955751366636E-02
(PID.TID 0000.0001) %MON forcing_fv_sd                =   6.2668047873299E-02
(PID.TID 0000.0001) %MON forcing_fv_del2              =   5.4140098436038E-04
(PID.TID 0000.0001) %MON trAdv_CFL_u_max              =   2.0252770359992E-03
(PID.TID 0000.0001) %MON trAdv_CFL_v_max              =   2.2983652388938E-03
(PID.TID 0000.0001) %MON trAdv_CFL_w_max              =   1.1261601328241E-02
(PID.TID 0000.0001) %MON advcfl_uvel_max              =   2.0808609895277E-03
(PID.TID 0000.0001) %MON advcfl_vvel_max              =   2.2627446337603E-03
(PID.TID 0000.0001) %MON advcfl_wvel_max              =   2.4087451851886E-02
(PID.TID 0000.0001) %MON advcfl_W_hf_max              =   1.1261601328241E-02
(PID.TID 0000.0001) %MON pe_b_mean                    =   5.0164898275452E-04
(PID.TID 0000.0001) %MON ke_max                       =   2.3379237280525E-01
(PID.TID 0000.0001) %MON ke_mean                      =   1.6542536355403E-04
(PID.TID 0000.0001) %MON ke_vol                       =   1.3398126706953E+18
(PID.TID 0000.0001) %MON vort_r_min                   =  -4.3090411888150E-06
(PID.TID 0000.0001) %MON vort_r_max                   =   2.6245467083551E-06
(PID.TID 0000.0001) %MON vort_a_mean                  =  -2.0549865324846E-05
(PID.TID 0000.0001) %MON vort_a_sd                    =   7.5259716157404E-05
(PID.TID 0000.0001) %MON vort_p_mean                  =  -2.4783281572553E-05
(PID.TID 0000.0001) %MON vort_p_sd                    =   1.2811896571026E-04
(PID.TID 0000.0001) %MON surfExpan_theta_mean         =  -8.6789306359201E-06
(PID.TID 0000.0001) %MON surfExpan_salt_mean          =   1.1984059581536E-06
(PID.TID 0000.0001) // =======================================================
(PID.TID 0000.0001) // End MONITOR dynamic field statistics
(PID.TID 0000.0001) // =======================================================
 cg2d: Sum(rhs),rhsMax =  -5.01997632890973E+01  4.92326612395805E+01
(PID.TID 0000.0001)      cg2d_init_res =   2.41107413639022E-01
(PID.TID 0000.0001)      cg2d_iters(min,last) =      -1      10
(PID.TID 0000.0001)      cg2d_last_res =   8.56910581039484E-08
(PID.TID 0000.0001) // =======================================================
(PID.TID 0000.0001) // Begin MONITOR dynamic field statistics
(PID.TID 0000.0001) // =======================================================
(PID.TID 0000.0001) %MON time_tsnumber                =                 72058
(PID.TID 0000.0001) %MON time_secondsf                =   6.4852200000000E+07
(PID.TID 0000.0001) %MON dynstat_eta_max              =   2.1936107152572E+00
(PID.TID 0000.0001) %MON dynstat_eta_min              =  -1.5873809476101E+00
(PID.TID 0000.0001) %MON dynstat_eta_mean             =   2.8718129822330E-02
(PID.TID 0000.0001) %MON dynstat_eta_sd               =   6.1255103800693E-01
(PID.TID 0000.0001) %MON dynstat_eta_del2             =   1.7170384639731E-03
(PID.TID 0000.0001) %MON dynstat_uvel_max             =   6.6584065225797E-01
(PID.TID 0000.0001) %MON dynstat_uvel_min             =  -7.1463295067859E-01
(PID.TID 0000.0001) %MON dynstat_uvel_mean            =  -4.0254743011213E-04
(PID.TID 0000.0001) %MON dynstat_uvel_sd              =   1.2855668174150E-02
(PID.TID 0000.0001) %MON dynstat_uvel_del2            =   9.7736652979708E-05
(PID.TID 0000.0001) %MON dynstat_vvel_max             =   7.0232611115710E-01
(PID.TID 0000.0001) %MON dynstat_vvel_min             =  -6.4779200082684E-01
(PID.TID 0000.0001) %MON dynstat_vvel_mean            =   5.0246356339186E-04
(PID.TID 0000.0001) %MON dynstat_vvel_sd              =   1.3915890580740E-02
(PID.TID 0000.0001) %MON dynstat_vvel_del2            =   9.8513635032342E-05
(PID.TID 0000.0001) %MON dynstat_wvel_max             =   1.2602556579331E-04
(PID.TID 0000.0001) %MON dynstat_wvel_min             =  -1.9101277643157E-04
(PID.TID 0000.0001) %MON dynstat_wvel_mean            =  -3.4442228746792E-07
(PID.TID 0000.0001) %MON dynstat_wvel_sd              =   8.1013791943803E-06
(PID.TID 0000.0001) %MON dynstat_wvel_del2            =   7.7416706211064E-08
(PID.TID 0000.0001) %MON dynstat_theta_max            =   3.0926212876175E+01
(PID.TID 0000.0001) %MON dynstat_theta_min            =  -3.0061967486007E+00
(PID.TID 0000.0001) %MON dynstat_theta_mean           =   3.9091496587840E+00
(PID.TID 0000.0001) %MON dynstat_theta_sd             =   4.5714577403058E+00
(PID.TID 0000.0001) %MON dynstat_theta_del2           =   2.6417241964832E-03
(PID.TID 0000.0001) %MON dynstat_salt_max             =   4.1348641680952E+01
(PID.TID 0000.0001) %MON dynstat_salt_min             =   1.8518960713179E+01
(PID.TID 0000.0001) %MON dynstat_salt_mean            =   3.4771946660793E+01
(PID.TID 0000.0001) %MON dynstat_salt_sd              =   5.3193342582003E-01
(PID.TID 0000.0001) %MON dynstat_salt_del2            =   1.0567849840792E-03
(PID.TID 0000.0001) %MON dynstat_sst_max              =   3.0926212876175E+01
(PID.TID 0000.0001) %MON dynstat_sst_min              =  -1.8976374794411E+00
(PID.TID 0000.0001) %MON dynstat_sst_mean             =   1.8107658505388E+01
(PID.TID 0000.0001) %MON dynstat_sst_sd               =   9.8114247688019E+00
(PID.TID 0000.0001) %MON dynstat_sst_del2             =   1.5027316655048E-02
(PID.TID 0000.0001) %MON dynstat_sss_max              =   4.1348641680952E+01
(PID.TID 0000.0001) %MON dynstat_sss_min              =   1.8751970686766E+01
(PID.TID 0000.0001) %MON dynstat_sss_mean             =   3.4623998782649E+01
(PID.TID 0000.0001) %MON dynstat_sss_sd               =   1.4819510645750E+00
(PID.TID 0000.0001) %MON dynstat_sss_del2             =   1.1778453018863E-02
(PID.TID 0000.0001) %MON forcing_qnet_max             =   1.9936804199219E+03
(PID.TID 0000.0001) %MON forcing_qnet_min             =  -1.2079989013672E+03
(PID.TID 0000.0001) %MON forcing_qnet_mean            =   6.4379545649941E+00
(PID.TID 0000.0001) %MON forcing_qnet_sd              =   2.0494534607234E+02
(PID.TID 0000.0001) %MON forcing_qnet_del2            =   4.3072004611694E+00
(PID.TID 0000.0001) %MON forcing_qsw_max              =   0.0000000000000E+00
(PID.TID 0000.0001) %MON forcing_qsw_min              =  -1.0217846124428E+02
(PID.TID 0000.0001) %MON forcing_qsw_mean             =  -1.4362265108207E+01
(PID.TID 0000.0001) %MON forcing_qsw_sd               =   2.4287142689081E+01
(PID.TID 0000.0001) %MON forcing_qsw_del2             =   2.0021474599730E-01
(PID.TID 0000.0001) %MON forcing_empmr_max            =   6.1462968587875E-03
(PID.TID 0000.0001) %MON forcing_empmr_min            =  -8.8355809450150E-02
(PID.TID 0000.0001) %MON forcing_empmr_mean           =  -2.7839080150376E-04
(PID.TID 0000.0001) %MON forcing_empmr_sd             =   3.9484810813714E-03
(PID.TID 0000.0001) %MON forcing_empmr_del2           =   1.5540872639822E-04
(PID.TID 0000.0001) %MON forcing_fu_max               =   3.9220074104235E-01
(PID.TID 0000.0001) %MON forcing_fu_min               =  -3.7631759784171E-01
(PID.TID 0000.0001) %MON forcing_fu_mean              =  -3.4402937076850E-03
(PID.TID 0000.0001) %MON forcing_fu_sd                =   6.3459169091425E-02
(PID.TID 0000.0001) %MON forcing_fu_del2              =   6.2989538855271E-04
(PID.TID 0000.0001) %MON forcing_fv_max               =   2.9235308160095E-01
(PID.TID 0000.0001) %MON forcing_fv_min               =  -2.8120730292945E-01
(PID.TID 0000.0001) %MON forcing_fv_mean              =  -1.5024717057553E-02
(PID.TID 0000.0001) %MON forcing_fv_sd                =   6.2521935186083E-02
(PID.TID 0000.0001) %MON forcing_fv_del2              =   5.4073693715092E-04
(PID.TID 0000.0001) %MON trAdv_CFL_u_max              =   2.1651561223032E-03
(PID.TID 0000.0001) %MON trAdv_CFL_v_max              =   2.3322679315532E-03
(PID.TID 0000.0001) %MON trAdv_CFL_w_max              =   1.8850068130551E-03
(PID.TID 0000.0001) %MON advcfl_uvel_max              =   2.2204231900256E-03
(PID.TID 0000.0001) %MON advcfl_vvel_max              =   2.2919462883730E-03
(PID.TID 0000.0001) %MON advcfl_wvel_max              =   3.0732455460922E-03
(PID.TID 0000.0001) %MON advcfl_W_hf_max              =   1.8850068130551E-03
(PID.TID 0000.0001) %MON pe_b_mean                    =   5.0095556582160E-04
(PID.TID 0000.0001) %MON ke_max                       =   2.4129104018014E-01
(PID.TID 0000.0001) %MON ke_mean                      =   1.6596030400715E-04
(PID.TID 0000.0001) %MON ke_vol                       =   1.3398128074200E+18
(PID.TID 0000.0001) %MON vort_r_min                   =  -4.4067130664644E-06
(PID.TID 0000.0001) %MON vort_r_max                   =   2.7279177394808E-06
(PID.TID 0000.0001) %MON vort_a_mean                  =  -2.0549865324846E-05
(PID.TID 0000.0001) %MON vort_a_sd                    =   7.5259722165333E-05
(PID.TID 0000.0001) %MON vort_p_mean                  =  -2.4783278707872E-05
(PID.TID 0000.0001) %MON vort_p_sd                    =   1.2811895039204E-04
(PID.TID 0000.0001) %MON surfExpan_theta_mean         =  -7.2880554687517E-06
(PID.TID 0000.0001) %MON surfExpan_salt_mean          =   1.3235279282908E-06
(PID.TID 0000.0001) // =======================================================
(PID.TID 0000.0001) // End MONITOR dynamic field statistics
(PID.TID 0000.0001) // =======================================================
 cg2d: Sum(rhs),rhsMax =  -5.44307143315079E+01  4.57718781750133E+01
(PID.TID 0000.0001)      cg2d_init_res =   2.68144225598324E-01
(PID.TID 0000.0001)      cg2d_iters(min,last) =      -1      10
(PID.TID 0000.0001)      cg2d_last_res =   8.23555323905650E-08
(PID.TID 0000.0001) // =======================================================
(PID.TID 0000.0001) // Begin MONITOR dynamic field statistics
(PID.TID 0000.0001) // =======================================================
(PID.TID 0000.0001) %MON time_tsnumber                =                 72059
(PID.TID 0000.0001) %MON time_secondsf                =   6.4853100000000E+07
(PID.TID 0000.0001) %MON dynstat_eta_max              =   2.0396895361631E+00
(PID.TID 0000.0001) %MON dynstat_eta_min              =  -1.5862134316116E+00
(PID.TID 0000.0001) %MON dynstat_eta_mean             =   2.8949691528632E-02
(PID.TID 0000.0001) %MON dynstat_eta_sd               =   6.1218747941448E-01
(PID.TID 0000.0001) %MON dynstat_eta_del2             =   1.6083933887511E-03
(PID.TID 0000.0001) %MON dynstat_uvel_max             =   6.9594386662809E-01
(PID.TID 0000.0001) %MON dynstat_uvel_min             =  -7.3411422077607E-01
(PID.TID 0000.0001) %MON dynstat_uvel_mean            =  -3.8291573569395E-04
(PID.TID 0000.0001) %MON dynstat_uvel_sd              =   1.2896557330740E-02
(PID.TID 0000.0001) %MON dynstat_uvel_del2            =   9.7956859304870E-05
(PID.TID 0000.0001) %MON dynstat_vvel_max             =   6.9956100650014E-01
(PID.TID 0000.0001) %MON dynstat_vvel_min             =  -6.5431546695176E-01
(PID.TID 0000.0001) %MON dynstat_vvel_mean            =   5.1889291198591E-04
(PID.TID 0000.0001) %MON dynstat_vvel_sd              =   1.3911987154132E-02
(PID.TID 0000.0001) %MON dynstat_vvel_del2            =   9.9982868430199E-05
(PID.TID 0000.0001) %MON dynstat_wvel_max             =   1.2138711805652E-04
(PID.TID 0000.0001) %MON dynstat_wvel_min             =  -1.9098506516870E-04
(PID.TID 0000.0001) %MON dynstat_wvel_mean            =  -3.4165067720076E-07
(PID.TID 0000.0001) %MON dynstat_wvel_sd              =   8.0876091426043E-06
(PID.TID 0000.0001) %MON dynstat_wvel_del2            =   7.6840114272550E-08
(PID.TID 0000.0001) %MON dynstat_theta_max            =   3.0926184175483E+01
(PID.TID 0000.0001) %MON dynstat_theta_min            =  -3.0064211971803E+00
(PID.TID 0000.0001) %MON dynstat_theta_mean           =   3.9091508675052E+00
(PID.TID 0000.0001) %MON dynstat_theta_sd             =   4.5714614525113E+00
(PID.TID 0000.0001) %MON dynstat_theta_del2           =   2.6415963816924E-03
(PID.TID 0000.0001) %MON dynstat_salt_max             =   4.1348441769532E+01
(PID.TID 0000.0001) %MON dynstat_salt_min             =   1.8518971005652E+01
(PID.TID 0000.0001) %MON dynstat_salt_mean            =   3.4771944341417E+01
(PID.TID 0000.0001) %MON dynstat_salt_sd              =   5.3194838967070E-01
(PID.TID 0000.0001) %MON dynstat_salt_del2            =   1.0604636787637E-03
(PID.TID 0000.0001) %MON dynstat_sst_max              =   3.0926184175483E+01
(PID.TID 0000.0001) %MON dynstat_sst_min              =  -1.8977692214101E+00
(PID.TID 0000.0001) %MON dynstat_sst_mean             =   1.8107649643760E+01
(PID.TID 0000.0001) %MON dynstat_sst_sd               =   9.8114897691000E+00
(PID.TID 0000.0001) %MON dynstat_sst_del2             =   1.5024979493264E-02
(PID.TID 0000.0001) %MON dynstat_sss_max              =   4.1348441769532E+01
(PID.TID 0000.0001) %MON dynstat_sss_min              =   1.8751995242641E+01
(PID.TID 0000.0001) %MON dynstat_sss_mean             =   3.4623829235774E+01
(PID.TID 0000.0001) %MON dynstat_sss_sd               =   1.4823319511924E+00
(PID.TID 0000.0001) %MON dynstat_sss_del2             =   1.1830542559605E-02
(PID.TID 0000.0001) %MON forcing_qnet_max             =   1.9712219238281E+03
(PID.TID 0000.0001) %MON forcing_qnet_min             =  -1.3298374023438E+03
(PID.TID 0000.0001) %MON forcing_qnet_mean            =   4.3625933207626E+00
(PID.TID 0000.0001) %MON forcing_qnet_sd              =   2.0494579595269E+02
(PID.TID 0000.0001) %MON forcing_qnet_del2            =   4.2335042737173E+00
(PID.TID 0000.0001) %MON forcing_qsw_max              =   0.0000000000000E+00
(PID.TID 0000.0001) %MON forcing_qsw_min              =  -1.0183604062054E+02
(PID.TID 0000.0001) %MON forcing_qsw_mean             =  -1.4458339011796E+01
(PID.TID 0000.0001) %MON forcing_qsw_sd               =   2.4585738032733E+01
(PID.TID 0000.0001) %MON forcing_qsw_del2             =   2.0228815437053E-01
(PID.TID 0000.0001) %MON forcing_empmr_max            =   6.0829250141978E-03
(PID.TID 0000.0001) %MON forcing_empmr_min            =  -8.7445400655270E-02
(PID.TID 0000.0001) %MON forcing_empmr_mean           =  -2.6629596224732E-04
(PID.TID 0000.0001) %MON forcing_empmr_sd             =   3.8531570542728E-03
(PID.TID 0000.0001) %MON forcing_empmr_del2           =   1.5195693194378E-04
(PID.TID 0000.0001) %MON forcing_fu_max               =   4.0291615601903E-01
(PID.TID 0000.0001) %MON forcing_fu_min               =  -3.8032875231882E-01
(PID.TID 0000.0001) %MON forcing_fu_mean              =  -3.3752315086174E-03
(PID.TID 0000.0001) %MON forcing_fu_sd                =   6.3598860731778E-02
(PID.TID 0000.0001) %MON forcing_fu_del2              =   6.3008947444391E-04
(PID.TID 0000.0001) %MON forcing_fv_max               =   2.9229815868231E-01
(PID.TID 0000.0001) %MON forcing_fv_min               =  -2.7849613270205E-01
(PID.TID 0000.0001) %MON forcing_fv_mean              =  -1.5071692618476E-02
(PID.TID 0000.0001) %MON forcing_fv_sd                =   6.2465896188690E-02
(PID.TID 0000.0001) %MON forcing_fv_del2              =   5.4080887908080E-04
(PID.TID 0000.0001) %MON trAdv_CFL_u_max              =   2.2674830328813E-03
(PID.TID 0000.0001) %MON trAdv_CFL_v_max              =   2.3274799358716E-03
(PID.TID 0000.0001) %MON trAdv_CFL_w_max              =   1.8675838604606E-03
(PID.TID 0000.0001) %MON advcfl_uvel_max              =   2.3208103848523E-03
(PID.TID 0000.0001) %MON advcfl_vvel_max              =   2.2829227432495E-03
(PID.TID 0000.0001) %MON advcfl_wvel_max              =   3.0415791532268E-03
(PID.TID 0000.0001) %MON advcfl_W_hf_max              =   1.8675838604606E-03
(PID.TID 0000.0001) %MON pe_b_mean                    =   5.0038015270168E-04
(PID.TID 0000.0001) %MON ke_max                       =   2.4814798312806E-01
(PID.TID 0000.0001) %MON ke_mean                      =   1.6639437768762E-04
(PID.TID 0000.0001) %MON ke_vol                       =   1.3398128955093E+18
(PID.TID 0000.0001) %MON vort_r_min                   =  -4.4909391087020E-06
(PID.TID 0000.0001) %MON vort_r_max                   =   2.8444719314167E-06
(PID.TID 0000.0001) %MON vort_a_mean                  =  -2.0549865324846E-05
(PID.TID 0000.0001) %MON vort_a_sd                    =   7.5259727401755E-05
(PID.TID 0000.0001) %MON vort_p_mean                  =  -2.4783276557255E-05
(PID.TID 0000.0001) %MON vort_p_sd                    =   1.2811896067008E-04
(PID.TID 0000.0001) %MON surfExpan_theta_mean         =  -7.1847833273929E-06
(PID.TID 0000.0001) %MON surfExpan_salt_mean          =   1.3369002829198E-06
(PID.TID 0000.0001) // =======================================================
(PID.TID 0000.0001) // End MONITOR dynamic field statistics
(PID.TID 0000.0001) // =======================================================
 Computing Diagnostic #     81  oceTAUX      Counter:       1   Parms: UU      U1      
           Vector  Mate for  oceTAUX      Diagnostic #     82  oceTAUY  exists 
 Computing Diagnostic #     82  oceTAUY      Counter:       1   Parms: VV      U1      
           Vector  Mate for  oceTAUY      Diagnostic #     81  oceTAUX  exists 
 Computing Diagnostic #     85  oceFWflx     Counter:       1   Parms: SM      U1      
 Computing Diagnostic #     86  oceSflux     Counter:       1   Parms: SM      U1      
 Computing Diagnostic #     87  oceQnet      Counter:       1   Parms: SM      U1      
 Computing Diagnostic #     88  oceQsw       Counter:       1   Parms: SM      U1      
 Computing Diagnostic #     27  SALT         Counter:       1   Parms: SMR     MR      
 Computing Diagnostic #     26  THETA        Counter:       1   Parms: SMR     MR      
 Computing Diagnostic #     45  UVELMASS     Counter:       1   Parms: UUr     MR      
           Vector  Mate for  UVELMASS     Diagnostic #     46  VVELMASS exists 
 Computing Diagnostic #     46  VVELMASS     Counter:       1   Parms: VVr     MR      
           Vector  Mate for  VVELMASS     Diagnostic #     45  UVELMASS exists 
 Computing Diagnostic #     83  atmPload     Counter:       1   Parms: SM      U1      
 cg2d: Sum(rhs),rhsMax =  -5.95827944382376E+01  4.21458880226243E+01
(PID.TID 0000.0001)      cg2d_init_res =   2.83835116638240E-01
(PID.TID 0000.0001)      cg2d_iters(min,last) =      -1      10
(PID.TID 0000.0001)      cg2d_last_res =   7.83864278365778E-08
(PID.TID 0000.0001) // =======================================================
(PID.TID 0000.0001) // Begin MONITOR dynamic field statistics
(PID.TID 0000.0001) // =======================================================
(PID.TID 0000.0001) %MON time_tsnumber                =                 72060
(PID.TID 0000.0001) %MON time_secondsf                =   6.4854000000000E+07
(PID.TID 0000.0001) %MON dynstat_eta_max              =   1.8784164577378E+00
(PID.TID 0000.0001) %MON dynstat_eta_min              =  -1.5849231882034E+00
(PID.TID 0000.0001) %MON dynstat_eta_mean             =   2.9179459964810E-02
(PID.TID 0000.0001) %MON dynstat_eta_sd               =   6.1190050166571E-01
(PID.TID 0000.0001) %MON dynstat_eta_del2             =   1.5201724427548E-03
(PID.TID 0000.0001) %MON dynstat_uvel_max             =   7.1421086399874E-01
(PID.TID 0000.0001) %MON dynstat_uvel_min             =  -7.5237753658953E-01
(PID.TID 0000.0001) %MON dynstat_uvel_mean            =  -3.6409031708444E-04
(PID.TID 0000.0001) %MON dynstat_uvel_sd              =   1.2936641143517E-02
(PID.TID 0000.0001) %MON dynstat_uvel_del2            =   9.7968116705416E-05
(PID.TID 0000.0001) %MON dynstat_vvel_max             =   6.8566843715901E-01
(PID.TID 0000.0001) %MON dynstat_vvel_min             =  -6.5749930855209E-01
(PID.TID 0000.0001) %MON dynstat_vvel_mean            =   5.3172866062656E-04
(PID.TID 0000.0001) %MON dynstat_vvel_sd              =   1.3900021255668E-02
(PID.TID 0000.0001) %MON dynstat_vvel_del2            =   1.0099565069639E-04
(PID.TID 0000.0001) %MON dynstat_wvel_max             =   1.1735050361718E-04
(PID.TID 0000.0001) %MON dynstat_wvel_min             =  -1.9097668367151E-04
(PID.TID 0000.0001) %MON dynstat_wvel_mean            =  -3.3482855049759E-07
(PID.TID 0000.0001) %MON dynstat_wvel_sd              =   8.0591349665420E-06
(PID.TID 0000.0001) %MON dynstat_wvel_del2            =   7.6139649659731E-08
(PID.TID 0000.0001) %MON dynstat_theta_max            =   3.0926149296211E+01
(PID.TID 0000.0001) %MON dynstat_theta_min            =  -3.0066373688332E+00
(PID.TID 0000.0001) %MON dynstat_theta_mean           =   3.9091520995229E+00
(PID.TID 0000.0001) %MON dynstat_theta_sd             =   4.5714652159089E+00
(PID.TID 0000.0001) %MON dynstat_theta_del2           =   2.6414584550194E-03
(PID.TID 0000.0001) %MON dynstat_salt_max             =   4.1348259899875E+01
(PID.TID 0000.0001) %MON dynstat_salt_min             =   1.8518981293502E+01
(PID.TID 0000.0001) %MON dynstat_salt_mean            =   3.4771942050271E+01
(PID.TID 0000.0001) %MON dynstat_salt_sd              =   5.3196315866518E-01
(PID.TID 0000.0001) %MON dynstat_salt_del2            =   1.0640710474984E-03
(PID.TID 0000.0001) %MON dynstat_sst_max              =   3.0926149296211E+01
(PID.TID 0000.0001) %MON dynstat_sst_min              =  -1.8979073953221E+00
(PID.TID 0000.0001) %MON dynstat_sst_mean             =   1.8107644225535E+01
(PID.TID 0000.0001) %MON dynstat_sst_sd               =   9.8115530889965E+00
(PID.TID 0000.0001) %MON dynstat_sst_del2             =   1.5022514876906E-02
(PID.TID 0000.0001) %MON dynstat_sss_max              =   4.1348259899875E+01
(PID.TID 0000.0001) %MON dynstat_sss_min              =   1.8752018816975E+01
(PID.TID 0000.0001) %MON dynstat_sss_mean             =   3.4623661688354E+01
(PID.TID 0000.0001) %MON dynstat_sss_sd               =   1.4827086598962E+00
(PID.TID 0000.0001) %MON dynstat_sss_del2             =   1.1881601107404E-02
(PID.TID 0000.0001) %MON forcing_qnet_max             =   1.9479667968750E+03
(PID.TID 0000.0001) %MON forcing_qnet_min             =  -1.4669240722656E+03
(PID.TID 0000.0001) %MON forcing_qnet_mean            =   3.5635506841365E+00
(PID.TID 0000.0001) %MON forcing_qnet_sd              =   2.0569153988763E+02
(PID.TID 0000.0001) %MON forcing_qnet_del2            =   4.1297905648652E+00
(PID.TID 0000.0001) %MON forcing_qsw_max              =   0.0000000000000E+00
(PID.TID 0000.0001) %MON forcing_qsw_min              =  -1.0104180837382E+02
(PID.TID 0000.0001) %MON forcing_qsw_mean             =  -1.4516694038102E+01
(PID.TID 0000.0001) %MON forcing_qsw_sd               =   2.4862096173426E+01
(PID.TID 0000.0001) %MON forcing_qsw_del2             =   2.0421162031936E-01
(PID.TID 0000.0001) %MON forcing_empmr_max            =   6.0202418826520E-03
(PID.TID 0000.0001) %MON forcing_empmr_min            =  -8.6545057594776E-02
(PID.TID 0000.0001) %MON forcing_empmr_mean           =  -2.6423370160421E-04
(PID.TID 0000.0001) %MON forcing_empmr_sd             =   3.8132771920578E-03
(PID.TID 0000.0001) %MON forcing_empmr_del2           =   1.5038091133638E-04
(PID.TID 0000.0001) %MON forcing_fu_max               =   4.0219045685981E-01
(PID.TID 0000.0001) %MON forcing_fu_min               =  -3.8300212486103E-01
(PID.TID 0000.0001) %MON forcing_fu_mean              =  -3.3402597502521E-03
(PID.TID 0000.0001) %MON forcing_fu_sd                =   6.3582441301291E-02
(PID.TID 0000.0001) %MON forcing_fu_del2              =   6.2923054624612E-04
(PID.TID 0000.0001) %MON forcing_fv_max               =   3.0324653996203E-01
(PID.TID 0000.0001) %MON forcing_fv_min               =  -2.7556406394162E-01
(PID.TID 0000.0001) %MON forcing_fv_mean              =  -1.5070769926593E-02
(PID.TID 0000.0001) %MON forcing_fv_sd                =   6.2439930091968E-02
(PID.TID 0000.0001) %MON forcing_fv_del2              =   5.4127721859007E-04
(PID.TID 0000.0001) %MON trAdv_CFL_u_max              =   2.3316848793780E-03
(PID.TID 0000.0001) %MON trAdv_CFL_v_max              =   2.2856537964456E-03
(PID.TID 0000.0001) %MON trAdv_CFL_w_max              =   1.8584347005490E-03
(PID.TID 0000.0001) %MON advcfl_uvel_max              =   2.3817265581685E-03
(PID.TID 0000.0001) %MON advcfl_vvel_max              =   2.2375862218934E-03
(PID.TID 0000.0001) %MON advcfl_wvel_max              =   3.0102628728618E-03
(PID.TID 0000.0001) %MON advcfl_W_hf_max              =   1.8584347005490E-03
(PID.TID 0000.0001) %MON pe_b_mean                    =   4.9992993987164E-04
(PID.TID 0000.0001) %MON ke_max                       =   2.5420752507306E-01
(PID.TID 0000.0001) %MON ke_mean                      =   1.6671549802951E-04
(PID.TID 0000.0001) %MON ke_vol                       =   1.3398129797716E+18
(PID.TID 0000.0001) %MON vort_r_min                   =  -4.5604468551797E-06
(PID.TID 0000.0001) %MON vort_r_max                   =   2.9223245557633E-06
(PID.TID 0000.0001) %MON vort_a_mean                  =  -2.0549865324846E-05
(PID.TID 0000.0001) %MON vort_a_sd                    =   7.5259731824796E-05
(PID.TID 0000.0001) %MON vort_p_mean                  =  -2.4783274468242E-05
(PID.TID 0000.0001) %MON vort_p_sd                    =   1.2811897852386E-04
(PID.TID 0000.0001) %MON surfExpan_theta_mean         =  -7.1490175783520E-06
(PID.TID 0000.0001) %MON surfExpan_salt_mean          =   1.3419254019505E-06
(PID.TID 0000.0001) // =======================================================
(PID.TID 0000.0001) // End MONITOR dynamic field statistics
(PID.TID 0000.0001) // =======================================================
 cg2d: Sum(rhs),rhsMax =  -6.59235866778989E+01  3.83892406056092E+01
(PID.TID 0000.0001)      cg2d_init_res =   3.00164466626351E-01
(PID.TID 0000.0001)      cg2d_iters(min,last) =      -1      10
(PID.TID 0000.0001)      cg2d_last_res =   7.75690484500330E-08
(PID.TID 0000.0001) // =======================================================
(PID.TID 0000.0001) // Begin MONITOR dynamic field statistics
(PID.TID 0000.0001) // =======================================================
(PID.TID 0000.0001) %MON time_tsnumber                =                 72061
(PID.TID 0000.0001) %MON time_secondsf                =   6.4854900000000E+07
(PID.TID 0000.0001) %MON dynstat_eta_max              =   1.7113254317045E+00
(PID.TID 0000.0001) %MON dynstat_eta_min              =  -1.5834732064703E+00
(PID.TID 0000.0001) %MON dynstat_eta_mean             =   2.9407054219042E-02
(PID.TID 0000.0001) %MON dynstat_eta_sd               =   6.1168179882038E-01
(PID.TID 0000.0001) %MON dynstat_eta_del2             =   1.4524065479170E-03
(PID.TID 0000.0001) %MON dynstat_uvel_max             =   7.2078823942709E-01
(PID.TID 0000.0001) %MON dynstat_uvel_min             =  -7.6912019714479E-01
(PID.TID 0000.0001) %MON dynstat_uvel_mean            =  -3.4656502753823E-04
(PID.TID 0000.0001) %MON dynstat_uvel_sd              =   1.2974998430250E-02
(PID.TID 0000.0001) %MON dynstat_uvel_del2            =   9.7790809571245E-05
(PID.TID 0000.0001) %MON dynstat_vvel_max             =   6.6139151580545E-01
(PID.TID 0000.0001) %MON dynstat_vvel_min             =  -6.5727694433664E-01
(PID.TID 0000.0001) %MON dynstat_vvel_mean            =   5.4086480110416E-04
(PID.TID 0000.0001) %MON dynstat_vvel_sd              =   1.3881167811079E-02
(PID.TID 0000.0001) %MON dynstat_vvel_del2            =   1.0150838968040E-04
(PID.TID 0000.0001) %MON dynstat_wvel_max             =   1.1629946768392E-04
(PID.TID 0000.0001) %MON dynstat_wvel_min             =  -1.9098496452486E-04
(PID.TID 0000.0001) %MON dynstat_wvel_mean            =  -3.2243745801136E-07
(PID.TID 0000.0001) %MON dynstat_wvel_sd              =   8.0226724297722E-06
(PID.TID 0000.0001) %MON dynstat_wvel_del2            =   7.5366828083114E-08
(PID.TID 0000.0001) %MON dynstat_theta_max            =   3.0926109338731E+01
(PID.TID 0000.0001) %MON dynstat_theta_min            =  -3.0068344440211E+00
(PID.TID 0000.0001) %MON dynstat_theta_mean           =   3.9091534426311E+00
(PID.TID 0000.0001) %MON dynstat_theta_sd             =   4.5714693060140E+00
(PID.TID 0000.0001) %MON dynstat_theta_del2           =   2.6413208336571E-03
(PID.TID 0000.0001) %MON dynstat_salt_max             =   4.1348095548177E+01
(PID.TID 0000.0001) %MON dynstat_salt_min             =   1.8518991575482E+01
(PID.TID 0000.0001) %MON dynstat_salt_mean            =   3.4771939793930E+01
(PID.TID 0000.0001) %MON dynstat_salt_sd              =   5.3197772589200E-01
(PID.TID 0000.0001) %MON dynstat_salt_del2            =   1.0676109844147E-03
(PID.TID 0000.0001) %MON dynstat_sst_max              =   3.0926109338731E+01
(PID.TID 0000.0001) %MON dynstat_sst_min              =  -1.8980488013916E+00
(PID.TID 0000.0001) %MON dynstat_sst_mean             =   1.8107647582236E+01
(PID.TID 0000.0001) %MON dynstat_sst_sd               =   9.8116151491982E+00
(PID.TID 0000.0001) %MON dynstat_sst_del2             =   1.5020088342733E-02
(PID.TID 0000.0001) %MON dynstat_sss_max              =   4.1348095548177E+01
(PID.TID 0000.0001) %MON dynstat_sss_min              =   1.8752041649563E+01
(PID.TID 0000.0001) %MON dynstat_sss_mean             =   3.4623496126733E+01
(PID.TID 0000.0001) %MON dynstat_sss_sd               =   1.4830808209388E+00
(PID.TID 0000.0001) %MON dynstat_sss_del2             =   1.1931666216417E-02
(PID.TID 0000.0001) %MON forcing_qnet_max             =   1.9249948730469E+03
(PID.TID 0000.0001) %MON forcing_qnet_min             =  -1.1592115478516E+03
(PID.TID 0000.0001) %MON forcing_qnet_mean            =   1.1732152658681E+00
(PID.TID 0000.0001) %MON forcing_qnet_sd              =   2.0762648261845E+02
(PID.TID 0000.0001) %MON forcing_qnet_del2            =   4.0163907671239E+00
(PID.TID 0000.0001) %MON forcing_qsw_max              =   0.0000000000000E+00
(PID.TID 0000.0001) %MON forcing_qsw_min              =  -1.0047349451903E+02
(PID.TID 0000.0001) %MON forcing_qsw_mean             =  -1.4760802582680E+01
(PID.TID 0000.0001) %MON forcing_qsw_sd               =   2.5699030032149E+01
(PID.TID 0000.0001) %MON forcing_qsw_del2             =   2.0920452688403E-01
(PID.TID 0000.0001) %MON forcing_empmr_max            =   5.9582474641502E-03
(PID.TID 0000.0001) %MON forcing_empmr_min            =  -8.5653111338615E-02
(PID.TID 0000.0001) %MON forcing_empmr_mean           =  -2.6173339236737E-04
(PID.TID 0000.0001) %MON forcing_empmr_sd             =   3.7740074061734E-03
(PID.TID 0000.0001) %MON forcing_empmr_del2           =   1.4881724745815E-04
(PID.TID 0000.0001) %MON forcing_fu_max               =   3.9451516233968E-01
(PID.TID 0000.0001) %MON forcing_fu_min               =  -3.8272231040122E-01
(PID.TID 0000.0001) %MON forcing_fu_mean              =  -3.3004282442810E-03
(PID.TID 0000.0001) %MON forcing_fu_sd                =   6.3463714447912E-02
(PID.TID 0000.0001) %MON forcing_fu_del2              =   6.2746033445365E-04
(PID.TID 0000.0001) %MON forcing_fv_max               =   2.9910696136697E-01
(PID.TID 0000.0001) %MON forcing_fv_min               =  -2.7261565258172E-01
(PID.TID 0000.0001) %MON forcing_fv_mean              =  -1.5102666639043E-02
(PID.TID 0000.0001) %MON forcing_fv_sd                =   6.2230157098492E-02
(PID.TID 0000.0001) %MON forcing_fv_del2              =   5.3943256943725E-04
(PID.TID 0000.0001) %MON trAdv_CFL_u_max              =   2.3579301543169E-03
(PID.TID 0000.0001) %MON trAdv_CFL_v_max              =   2.2089791800094E-03
(PID.TID 0000.0001) %MON trAdv_CFL_w_max              =   1.8752238393645E-03
(PID.TID 0000.0001) %MON advcfl_uvel_max              =   2.4036605702795E-03
(PID.TID 0000.0001) %MON advcfl_vvel_max              =   2.1583617720182E-03
(PID.TID 0000.0001) %MON advcfl_wvel_max              =   2.9792386552562E-03
(PID.TID 0000.0001) %MON advcfl_W_hf_max              =   1.8752238393645E-03
(PID.TID 0000.0001) %MON pe_b_mean                    =   4.9959118075807E-04
(PID.TID 0000.0001) %MON ke_max                       =   2.5928945422991E-01
(PID.TID 0000.0001) %MON ke_mean                      =   1.6692793161341E-04
(PID.TID 0000.0001) %MON ke_vol                       =   1.3398130633812E+18
(PID.TID 0000.0001) %MON vort_r_min                   =  -4.6140397358863E-06
(PID.TID 0000.0001) %MON vort_r_max                   =   2.9619838030498E-06
(PID.TID 0000.0001) %MON vort_a_mean                  =  -2.0549865324846E-05
(PID.TID 0000.0001) %MON vort_a_sd                    =   7.5259735400456E-05
(PID.TID 0000.0001) %MON vort_p_mean                  =  -2.4783272409278E-05
(PID.TID 0000.0001) %MON vort_p_sd                    =   1.2811900192000E-04
(PID.TID 0000.0001) %MON surfExpan_theta_mean         =  -7.0656275307174E-06
(PID.TID 0000.0001) %MON surfExpan_salt_mean          =   1.3447496020508E-06
(PID.TID 0000.0001) // =======================================================
(PID.TID 0000.0001) // End MONITOR dynamic field statistics
(PID.TID 0000.0001) // =======================================================
 cg2d: Sum(rhs),rhsMax =  -6.96012129261588E+01  3.66388031344188E+01
(PID.TID 0000.0001)      cg2d_init_res =   3.03863802739901E-01
(PID.TID 0000.0001)      cg2d_iters(min,last) =      -1      10
(PID.TID 0000.0001)      cg2d_last_res =   7.82078029670802E-08
(PID.TID 0000.0001) // =======================================================
(PID.TID 0000.0001) // Begin MONITOR dynamic field statistics
(PID.TID 0000.0001) // =======================================================
(PID.TID 0000.0001) %MON time_tsnumber                =                 72062
(PID.TID 0000.0001) %MON time_secondsf                =   6.4855800000000E+07
(PID.TID 0000.0001) %MON dynstat_eta_max              =   1.5399946690171E+00
(PID.TID 0000.0001) %MON dynstat_eta_min              =  -1.5818489014793E+00
(PID.TID 0000.0001) %MON dynstat_eta_mean             =   2.9631883638092E-02
(PID.TID 0000.0001) %MON dynstat_eta_sd               =   6.1152178947168E-01
(PID.TID 0000.0001) %MON dynstat_eta_del2             =   1.4047381400283E-03
(PID.TID 0000.0001) %MON dynstat_uvel_max             =   7.1604254993009E-01
(PID.TID 0000.0001) %MON dynstat_uvel_min             =  -7.8404199672627E-01
(PID.TID 0000.0001) %MON dynstat_uvel_mean            =  -3.3077516119985E-04
(PID.TID 0000.0001) %MON dynstat_uvel_sd              =   1.3010753626224E-02
(PID.TID 0000.0001) %MON dynstat_uvel_del2            =   9.7444094941938E-05
(PID.TID 0000.0001) %MON dynstat_vvel_max             =   6.2760375718757E-01
(PID.TID 0000.0001) %MON dynstat_vvel_min             =  -6.5360799923286E-01
(PID.TID 0000.0001) %MON dynstat_vvel_mean            =   5.4630435875977E-04
(PID.TID 0000.0001) %MON dynstat_vvel_sd              =   1.3857029060205E-02
(PID.TID 0000.0001) %MON dynstat_vvel_del2            =   1.0150599240065E-04
(PID.TID 0000.0001) %MON dynstat_wvel_max             =   1.1508287046571E-04
(PID.TID 0000.0001) %MON dynstat_wvel_min             =  -1.9100372853041E-04
(PID.TID 0000.0001) %MON dynstat_wvel_mean            =  -3.0576313913828E-07
(PID.TID 0000.0001) %MON dynstat_wvel_sd              =   7.9856283040913E-06
(PID.TID 0000.0001) %MON dynstat_wvel_del2            =   7.4578927695230E-08
(PID.TID 0000.0001) %MON dynstat_theta_max            =   3.0926063037186E+01
(PID.TID 0000.0001) %MON dynstat_theta_min            =  -3.0070247961794E+00
(PID.TID 0000.0001) %MON dynstat_theta_mean           =   3.9091548486348E+00
(PID.TID 0000.0001) %MON dynstat_theta_sd             =   4.5714735774434E+00
(PID.TID 0000.0001) %MON dynstat_theta_del2           =   2.6411847251283E-03
(PID.TID 0000.0001) %MON dynstat_salt_max             =   4.1347948145518E+01
(PID.TID 0000.0001) %MON dynstat_salt_min             =   1.8519001849895E+01
(PID.TID 0000.0001) %MON dynstat_salt_mean            =   3.4771937573792E+01
(PID.TID 0000.0001) %MON dynstat_salt_sd              =   5.3199207687256E-01
(PID.TID 0000.0001) %MON dynstat_salt_del2            =   1.0710844276500E-03
(PID.TID 0000.0001) %MON dynstat_sst_max              =   3.0926063037186E+01
(PID.TID 0000.0001) %MON dynstat_sst_min              =  -1.8981913033056E+00
(PID.TID 0000.0001) %MON dynstat_sst_mean             =   1.8107655745271E+01
(PID.TID 0000.0001) %MON dynstat_sst_sd               =   9.8116764611904E+00
(PID.TID 0000.0001) %MON dynstat_sst_del2             =   1.5017703446965E-02
(PID.TID 0000.0001) %MON dynstat_sss_max              =   4.1347948145518E+01
(PID.TID 0000.0001) %MON dynstat_sss_min              =   1.8752063776604E+01
(PID.TID 0000.0001) %MON dynstat_sss_mean             =   3.4623332500290E+01
(PID.TID 0000.0001) %MON dynstat_sss_sd               =   1.4834479067864E+00
(PID.TID 0000.0001) %MON dynstat_sss_del2             =   1.1980754949476E-02
(PID.TID 0000.0001) %MON forcing_qnet_max             =   1.9023023681641E+03
(PID.TID 0000.0001) %MON forcing_qnet_min             =  -1.1426142578125E+03
(PID.TID 0000.0001) %MON forcing_qnet_mean            =  -3.0518262034153E-01
(PID.TID 0000.0001) %MON forcing_qnet_sd              =   2.0985302916227E+02
(PID.TID 0000.0001) %MON forcing_qnet_del2            =   4.0190788162624E+00
(PID.TID 0000.0001) %MON forcing_qsw_max              =   0.0000000000000E+00
(PID.TID 0000.0001) %MON forcing_qsw_min              =  -1.0239918973322E+02
(PID.TID 0000.0001) %MON forcing_qsw_mean             =  -1.4892518871013E+01
(PID.TID 0000.0001) %MON forcing_qsw_sd               =   2.6066144133042E+01
(PID.TID 0000.0001) %MON forcing_qsw_del2             =   2.1258531065848E-01
(PID.TID 0000.0001) %MON forcing_empmr_max            =   5.8968435041606E-03
(PID.TID 0000.0001) %MON forcing_empmr_min            =  -8.4771230816841E-02
(PID.TID 0000.0001) %MON forcing_empmr_mean           =  -2.5855383190758E-04
(PID.TID 0000.0001) %MON forcing_empmr_sd             =   3.7352341030475E-03
(PID.TID 0000.0001) %MON forcing_empmr_del2           =   1.4728131647935E-04
(PID.TID 0000.0001) %MON forcing_fu_max               =   3.8817765309384E-01
(PID.TID 0000.0001) %MON forcing_fu_min               =  -3.8275572149203E-01
(PID.TID 0000.0001) %MON forcing_fu_mean              =  -3.3018037789489E-03
(PID.TID 0000.0001) %MON forcing_fu_sd                =   6.3274875888566E-02
(PID.TID 0000.0001) %MON forcing_fu_del2              =   6.2500696061410E-04
(PID.TID 0000.0001) %MON forcing_fv_max               =   2.8886125438504E-01
(PID.TID 0000.0001) %MON forcing_fv_min               =  -2.6964686548164E-01
(PID.TID 0000.0001) %MON forcing_fv_mean              =  -1.5150469857451E-02
(PID.TID 0000.0001) %MON forcing_fv_sd                =   6.1873256597775E-02
(PID.TID 0000.0001) %MON forcing_fv_del2              =   5.3605593903888E-04
(PID.TID 0000.0001) %MON trAdv_CFL_u_max              =   2.3471024300269E-03
(PID.TID 0000.0001) %MON trAdv_CFL_v_max              =   2.1001117566213E-03
(PID.TID 0000.0001) %MON trAdv_CFL_w_max              =   1.8870581285347E-03
(PID.TID 0000.0001) %MON advcfl_uvel_max              =   2.3878348032945E-03
(PID.TID 0000.0001) %MON advcfl_vvel_max              =   2.0480999908791E-03
(PID.TID 0000.0001) %MON advcfl_wvel_max              =   2.9485645501510E-03
(PID.TID 0000.0001) %MON advcfl_W_hf_max              =   1.8870581285347E-03
(PID.TID 0000.0001) %MON pe_b_mean                    =   4.9934809427631E-04
(PID.TID 0000.0001) %MON ke_max                       =   2.6319777335472E-01
(PID.TID 0000.0001) %MON ke_mean                      =   1.6704197033793E-04
(PID.TID 0000.0001) %MON ke_vol                       =   1.3398131461998E+18
(PID.TID 0000.0001) %MON vort_r_min                   =  -4.6506137680748E-06
(PID.TID 0000.0001) %MON vort_r_max                   =   2.9644305165128E-06
(PID.TID 0000.0001) %MON vort_a_mean                  =  -2.0549865324846E-05
(PID.TID 0000.0001) %MON vort_a_sd                    =   7.5259738110359E-05
(PID.TID 0000.0001) %MON vort_p_mean                  =  -2.4783270400383E-05
(PID.TID 0000.0001) %MON vort_p_sd                    =   1.2811902946039E-04
(PID.TID 0000.0001) %MON surfExpan_theta_mean         =  -6.9555618696898E-06
(PID.TID 0000.0001) %MON surfExpan_salt_mean          =   1.3444926676700E-06
(PID.TID 0000.0001) // =======================================================
(PID.TID 0000.0001) // End MONITOR dynamic field statistics
(PID.TID 0000.0001) // =======================================================
 cg2d: Sum(rhs),rhsMax =  -7.02058367922879E+01  3.65958524913735E+01
(PID.TID 0000.0001)      cg2d_init_res =   2.95659066221419E-01
(PID.TID 0000.0001)      cg2d_iters(min,last) =      -1      10
(PID.TID 0000.0001)      cg2d_last_res =   8.05987485198914E-08
(PID.TID 0000.0001) // =======================================================
(PID.TID 0000.0001) // Begin MONITOR dynamic field statistics
(PID.TID 0000.0001) // =======================================================
(PID.TID 0000.0001) %MON time_tsnumber                =                 72063
(PID.TID 0000.0001) %MON time_secondsf                =   6.4856700000000E+07
(PID.TID 0000.0001) %MON dynstat_eta_max              =   1.3660284655174E+00
(PID.TID 0000.0001) %MON dynstat_eta_min              =  -1.5800519898609E+00
(PID.TID 0000.0001) %MON dynstat_eta_mean             =   2.9854256631227E-02
(PID.TID 0000.0001) %MON dynstat_eta_sd               =   6.1141143216512E-01
(PID.TID 0000.0001) %MON dynstat_eta_del2             =   1.3778382342757E-03
(PID.TID 0000.0001) %MON dynstat_uvel_max             =   7.0054543474294E-01
(PID.TID 0000.0001) %MON dynstat_uvel_min             =  -7.9685340905565E-01
(PID.TID 0000.0001) %MON dynstat_uvel_mean            =  -3.1702857169753E-04
(PID.TID 0000.0001) %MON dynstat_uvel_sd              =   1.3042944265853E-02
(PID.TID 0000.0001) %MON dynstat_uvel_del2            =   9.6943711166238E-05
(PID.TID 0000.0001) %MON dynstat_vvel_max             =   5.8528798184982E-01
(PID.TID 0000.0001) %MON dynstat_vvel_min             =  -6.4648201936559E-01
(PID.TID 0000.0001) %MON dynstat_vvel_mean            =   5.4815180439365E-04
(PID.TID 0000.0001) %MON dynstat_vvel_sd              =   1.3829303611460E-02
(PID.TID 0000.0001) %MON dynstat_vvel_del2            =   1.0099856254483E-04
(PID.TID 0000.0001) %MON dynstat_wvel_max             =   1.1369713795877E-04
(PID.TID 0000.0001) %MON dynstat_wvel_min             =  -1.9103662729570E-04
(PID.TID 0000.0001) %MON dynstat_wvel_mean            =  -2.8676863221201E-07
(PID.TID 0000.0001) %MON dynstat_wvel_sd              =   7.9514355637040E-06
(PID.TID 0000.0001) %MON dynstat_wvel_del2            =   7.3805842956517E-08
(PID.TID 0000.0001) %MON dynstat_theta_max            =   3.0926010282450E+01
(PID.TID 0000.0001) %MON dynstat_theta_min            =  -3.0072093052826E+00
(PID.TID 0000.0001) %MON dynstat_theta_mean           =   3.9091563072845E+00
(PID.TID 0000.0001) %MON dynstat_theta_sd             =   4.5714779875791E+00
(PID.TID 0000.0001) %MON dynstat_theta_del2           =   2.6410502743683E-03
(PID.TID 0000.0001) %MON dynstat_salt_max             =   4.1347817005685E+01
(PID.TID 0000.0001) %MON dynstat_salt_min             =   1.8519012114618E+01
(PID.TID 0000.0001) %MON dynstat_salt_mean            =   3.4771935390074E+01
(PID.TID 0000.0001) %MON dynstat_salt_sd              =   5.3200620970772E-01
(PID.TID 0000.0001) %MON dynstat_salt_del2            =   1.0744923299296E-03
(PID.TID 0000.0001) %MON dynstat_sst_max              =   3.0926010282450E+01
(PID.TID 0000.0001) %MON dynstat_sst_min              =  -1.8983338665560E+00
(PID.TID 0000.0001) %MON dynstat_sst_mean             =   1.8107667632439E+01
(PID.TID 0000.0001) %MON dynstat_sst_sd               =   9.8117371128021E+00
(PID.TID 0000.0001) %MON dynstat_sst_del2             =   1.5015357512238E-02
(PID.TID 0000.0001) %MON dynstat_sss_max              =   4.1347817005685E+01
(PID.TID 0000.0001) %MON dynstat_sss_min              =   1.8752085177807E+01
(PID.TID 0000.0001) %MON dynstat_sss_mean             =   3.4623170895391E+01
(PID.TID 0000.0001) %MON dynstat_sss_sd               =   1.4838098362834E+00
(PID.TID 0000.0001) %MON dynstat_sss_del2             =   1.2028881286497E-02
(PID.TID 0000.0001) %MON forcing_qnet_max             =   1.8798861083984E+03
(PID.TID 0000.0001) %MON forcing_qnet_min             =  -1.1273505859375E+03
(PID.TID 0000.0001) %MON forcing_qnet_mean            =  -1.5493912235852E+00
(PID.TID 0000.0001) %MON forcing_qnet_sd              =   2.1164261235590E+02
(PID.TID 0000.0001) %MON forcing_qnet_del2            =   4.0029724647498E+00
(PID.TID 0000.0001) %MON forcing_qsw_max              =   0.0000000000000E+00
(PID.TID 0000.0001) %MON forcing_qsw_min              =  -1.0391324398714E+02
(PID.TID 0000.0001) %MON forcing_qsw_mean             =  -1.4993295664400E+01
(PID.TID 0000.0001) %MON forcing_qsw_sd               =   2.6383052401269E+01
(PID.TID 0000.0001) %MON forcing_qsw_del2             =   2.1566591056692E-01
(PID.TID 0000.0001) %MON forcing_empmr_max            =   5.8361282572150E-03
(PID.TID 0000.0001) %MON forcing_empmr_min            =  -8.3897739648819E-02
(PID.TID 0000.0001) %MON forcing_empmr_mean           =  -2.5572894210552E-04
(PID.TID 0000.0001) %MON forcing_empmr_sd             =   3.6968216287885E-03
(PID.TID 0000.0001) %MON forcing_empmr_del2           =   1.4575877503974E-04
(PID.TID 0000.0001) %MON forcing_fu_max               =   3.7081322779490E-01
(PID.TID 0000.0001) %MON forcing_fu_min               =  -3.8193399576518E-01
(PID.TID 0000.0001) %MON forcing_fu_mean              =  -3.3194084351746E-03
(PID.TID 0000.0001) %MON forcing_fu_sd                =   6.2979699312429E-02
(PID.TID 0000.0001) %MON forcing_fu_del2              =   6.2203624335551E-04
(PID.TID 0000.0001) %MON forcing_fv_max               =   2.7836243294857E-01
(PID.TID 0000.0001) %MON forcing_fv_min               =  -2.6671411302909E-01
(PID.TID 0000.0001) %MON forcing_fv_mean              =  -1.5180049876913E-02
(PID.TID 0000.0001) %MON forcing_fv_sd                =   6.1629990096420E-02
(PID.TID 0000.0001) %MON forcing_fv_del2              =   5.3420812693432E-04
(PID.TID 0000.0001) %MON trAdv_CFL_u_max              =   2.3268248475935E-03
(PID.TID 0000.0001) %MON trAdv_CFL_v_max              =   2.0499206784768E-03
(PID.TID 0000.0001) %MON trAdv_CFL_w_max              =   1.8938105829264E-03
(PID.TID 0000.0001) %MON advcfl_uvel_max              =   2.3361555406611E-03
(PID.TID 0000.0001) %MON advcfl_vvel_max              =   1.9100081804163E-03
(PID.TID 0000.0001) %MON advcfl_wvel_max              =   2.9181822486546E-03
(PID.TID 0000.0001) %MON advcfl_W_hf_max              =   1.8938105829264E-03
(PID.TID 0000.0001) %MON pe_b_mean                    =   4.9918589622927E-04
(PID.TID 0000.0001) %MON ke_max                       =   2.6573446891455E-01
(PID.TID 0000.0001) %MON ke_mean                      =   1.6706798733387E-04
(PID.TID 0000.0001) %MON ke_vol                       =   1.3398132280122E+18
(PID.TID 0000.0001) %MON vort_r_min                   =  -4.6691960817910E-06
(PID.TID 0000.0001) %MON vort_r_max                   =   2.9310919960903E-06
(PID.TID 0000.0001) %MON vort_a_mean                  =  -2.0549865324846E-05
(PID.TID 0000.0001) %MON vort_a_sd                    =   7.5259739961544E-05
(PID.TID 0000.0001) %MON vort_p_mean                  =  -2.4783268457439E-05
(PID.TID 0000.0001) %MON vort_p_sd                    =   1.2811905942847E-04
(PID.TID 0000.0001) %MON surfExpan_theta_mean         =  -6.8292702002507E-06
(PID.TID 0000.0001) %MON surfExpan_salt_mean          =   1.3421252243529E-06
(PID.TID 0000.0001) // =======================================================
(PID.TID 0000.0001) // End MONITOR dynamic field statistics
(PID.TID 0000.0001) // =======================================================
 Computing Diagnostic #     81  oceTAUX      Counter:       1   Parms: UU      U1      
           Vector  Mate for  oceTAUX      Diagnostic #     82  oceTAUY  exists 
 Computing Diagnostic #     82  oceTAUY      Counter:       1   Parms: VV      U1      
           Vector  Mate for  oceTAUY      Diagnostic #     81  oceTAUX  exists 
 Computing Diagnostic #     85  oceFWflx     Counter:       1   Parms: SM      U1      
 Computing Diagnostic #     86  oceSflux     Counter:       1   Parms: SM      U1      
 Computing Diagnostic #     87  oceQnet      Counter:       1   Parms: SM      U1      
 Computing Diagnostic #     88  oceQsw       Counter:       1   Parms: SM      U1      
 Computing Diagnostic #     27  SALT         Counter:       1   Parms: SMR     MR      
 Computing Diagnostic #     26  THETA        Counter:       1   Parms: SMR     MR      
 Computing Diagnostic #     45  UVELMASS     Counter:       1   Parms: UUr     MR      
           Vector  Mate for  UVELMASS     Diagnostic #     46  VVELMASS exists 
 Computing Diagnostic #     46  VVELMASS     Counter:       1   Parms: VVr     MR      
           Vector  Mate for  VVELMASS     Diagnostic #     45  UVELMASS exists 
 Computing Diagnostic #     83  atmPload     Counter:       1   Parms: SM      U1      
 cg2d: Sum(rhs),rhsMax =  -7.08127868650070E+01  3.65491473520632E+01
(PID.TID 0000.0001)      cg2d_init_res =   2.88292151476089E-01
(PID.TID 0000.0001)      cg2d_iters(min,last) =      -1      10
(PID.TID 0000.0001)      cg2d_last_res =   8.38902970319379E-08
(PID.TID 0000.0001) // =======================================================
(PID.TID 0000.0001) // Begin MONITOR dynamic field statistics
(PID.TID 0000.0001) // =======================================================
(PID.TID 0000.0001) %MON time_tsnumber                =                 72064
(PID.TID 0000.0001) %MON time_secondsf                =   6.4857600000000E+07
(PID.TID 0000.0001) %MON dynstat_eta_max              =   1.1910385103311E+00
(PID.TID 0000.0001) %MON dynstat_eta_min              =  -1.5781069528520E+00
(PID.TID 0000.0001) %MON dynstat_eta_mean             =   3.0073924813087E-02
(PID.TID 0000.0001) %MON dynstat_eta_sd               =   6.1134447525014E-01
(PID.TID 0000.0001) %MON dynstat_eta_del2             =   1.3722398708676E-03
(PID.TID 0000.0001) %MON dynstat_uvel_max             =   6.7504757662364E-01
(PID.TID 0000.0001) %MON dynstat_uvel_min             =  -8.0728027767361E-01
(PID.TID 0000.0001) %MON dynstat_uvel_mean            =  -3.0551328014453E-04
(PID.TID 0000.0001) %MON dynstat_uvel_sd              =   1.3070908886144E-02
(PID.TID 0000.0001) %MON dynstat_uvel_del2            =   9.6305081619631E-05
(PID.TID 0000.0001) %MON dynstat_vvel_max             =   5.3550976802304E-01
(PID.TID 0000.0001) %MON dynstat_vvel_min             =  -6.3591341594770E-01
(PID.TID 0000.0001) %MON dynstat_vvel_mean            =   5.4659432086929E-04
(PID.TID 0000.0001) %MON dynstat_vvel_sd              =   1.3799509645523E-02
(PID.TID 0000.0001) %MON dynstat_vvel_del2            =   1.0001996875205E-04
(PID.TID 0000.0001) %MON dynstat_wvel_max             =   1.1213862579339E-04
(PID.TID 0000.0001) %MON dynstat_wvel_min             =  -1.9107070259334E-04
(PID.TID 0000.0001) %MON dynstat_wvel_mean            =  -2.6656791333963E-07
(PID.TID 0000.0001) %MON dynstat_wvel_sd              =   7.9212440584035E-06
(PID.TID 0000.0001) %MON dynstat_wvel_del2            =   7.3064542084515E-08
(PID.TID 0000.0001) %MON dynstat_theta_max            =   3.0925952142632E+01
(PID.TID 0000.0001) %MON dynstat_theta_min            =  -3.0073916927455E+00
(PID.TID 0000.0001) %MON dynstat_theta_mean           =   3.9091578104901E+00
(PID.TID 0000.0001) %MON dynstat_theta_sd             =   4.5714825061842E+00
(PID.TID 0000.0001) %MON dynstat_theta_del2           =   2.6409180248812E-03
(PID.TID 0000.0001) %MON dynstat_salt_max             =   4.1347700766266E+01
(PID.TID 0000.0001) %MON dynstat_salt_min             =   1.8519022367326E+01
(PID.TID 0000.0001) %MON dynstat_salt_mean            =   3.4771933239337E+01
(PID.TID 0000.0001) %MON dynstat_salt_sd              =   5.3202013585197E-01
(PID.TID 0000.0001) %MON dynstat_salt_del2            =   1.0778351481915E-03
(PID.TID 0000.0001) %MON dynstat_sst_max              =   3.0925952142632E+01
(PID.TID 0000.0001) %MON dynstat_sst_min              =  -1.8984732161426E+00
(PID.TID 0000.0001) %MON dynstat_sst_mean             =   1.8107682499783E+01
(PID.TID 0000.0001) %MON dynstat_sst_sd               =   9.8117970876042E+00
(PID.TID 0000.0001) %MON dynstat_sst_del2             =   1.5013062827311E-02
(PID.TID 0000.0001) %MON dynstat_sss_max              =   4.1347700766266E+01
(PID.TID 0000.0001) %MON dynstat_sss_min              =   1.8752106061283E+01
(PID.TID 0000.0001) %MON dynstat_sss_mean             =   3.4623011074552E+01
(PID.TID 0000.0001) %MON dynstat_sss_sd               =   1.4841668151243E+00
(PID.TID 0000.0001) %MON dynstat_sss_del2             =   1.2076053577330E-02
(PID.TID 0000.0001) %MON forcing_qnet_max             =   1.8587709960938E+03
(PID.TID 0000.0001) %MON forcing_qnet_min             =  -1.1111727294922E+03
(PID.TID 0000.0001) %MON forcing_qnet_mean            =  -2.6251313300436E+00
(PID.TID 0000.0001) %MON forcing_qnet_sd              =   2.1371206357611E+02
(PID.TID 0000.0001) %MON forcing_qnet_del2            =   3.9842739543124E+00
(PID.TID 0000.0001) %MON forcing_qsw_max              =   0.0000000000000E+00
(PID.TID 0000.0001) %MON forcing_qsw_min              =  -1.0500916263884E+02
(PID.TID 0000.0001) %MON forcing_qsw_mean             =  -1.5059547331810E+01
(PID.TID 0000.0001) %MON forcing_qsw_sd               =   2.6648135249325E+01
(PID.TID 0000.0001) %MON forcing_qsw_del2             =   2.1841014633661E-01
(PID.TID 0000.0001) %MON forcing_empmr_max            =   5.7760039344430E-03
(PID.TID 0000.0001) %MON forcing_empmr_min            =  -8.3033479750156E-02
(PID.TID 0000.0001) %MON forcing_empmr_mean           =  -2.5261840913942E-04
(PID.TID 0000.0001) %MON forcing_empmr_sd             =   3.6588603580600E-03
(PID.TID 0000.0001) %MON forcing_empmr_del2           =   1.4424939946614E-04
(PID.TID 0000.0001) %MON forcing_fu_max               =   3.6642985367879E-01
(PID.TID 0000.0001) %MON forcing_fu_min               =  -3.7998608778754E-01
(PID.TID 0000.0001) %MON forcing_fu_mean              =  -3.2935534983462E-03
(PID.TID 0000.0001) %MON forcing_fu_sd                =   6.2867007709784E-02
(PID.TID 0000.0001) %MON forcing_fu_del2              =   6.2091382653347E-04
(PID.TID 0000.0001) %MON forcing_fv_max               =   2.6994111966505E-01
(PID.TID 0000.0001) %MON forcing_fv_min               =  -2.6392546511441E-01
(PID.TID 0000.0001) %MON forcing_fv_mean              =  -1.5191236433595E-02
(PID.TID 0000.0001) %MON forcing_fv_sd                =   6.1431928537268E-02
(PID.TID 0000.0001) %MON forcing_fv_del2              =   5.3242714451396E-04
(PID.TID 0000.0001) %MON trAdv_CFL_u_max              =   2.3591945382241E-03
(PID.TID 0000.0001) %MON trAdv_CFL_v_max              =   1.9838919483848E-03
(PID.TID 0000.0001) %MON trAdv_CFL_w_max              =   1.8953615388755E-03
(PID.TID 0000.0001) %MON advcfl_uvel_max              =   2.3459638770666E-03
(PID.TID 0000.0001) %MON advcfl_vvel_max              =   1.8592240186903E-03
(PID.TID 0000.0001) %MON advcfl_wvel_max              =   2.8881210347880E-03
(PID.TID 0000.0001) %MON advcfl_W_hf_max              =   1.8953615388755E-03
(PID.TID 0000.0001) %MON pe_b_mean                    =   4.9909433553795E-04
(PID.TID 0000.0001) %MON ke_max                       =   2.6671054653916E-01
(PID.TID 0000.0001) %MON ke_mean                      =   1.6701749100114E-04
(PID.TID 0000.0001) %MON ke_vol                       =   1.3398133089308E+18
(PID.TID 0000.0001) %MON vort_r_min                   =  -4.6689438328014E-06
(PID.TID 0000.0001) %MON vort_r_max                   =   2.8638294907549E-06
(PID.TID 0000.0001) %MON vort_a_mean                  =  -2.0549865324846E-05
(PID.TID 0000.0001) %MON vort_a_sd                    =   7.5259740983455E-05
(PID.TID 0000.0001) %MON vort_p_mean                  =  -2.4783266584425E-05
(PID.TID 0000.0001) %MON vort_p_sd                    =   1.2811908984966E-04
(PID.TID 0000.0001) %MON surfExpan_theta_mean         =  -6.6944790916005E-06
(PID.TID 0000.0001) %MON surfExpan_salt_mean          =   1.3374757740245E-06
(PID.TID 0000.0001) // =======================================================
(PID.TID 0000.0001) // End MONITOR dynamic field statistics
(PID.TID 0000.0001) // =======================================================
 cg2d: Sum(rhs),rhsMax =  -7.14227850996246E+01  3.64997332848713E+01
(PID.TID 0000.0001)      cg2d_init_res =   2.80429194220038E-01
(PID.TID 0000.0001)      cg2d_iters(min,last) =      -1      10
(PID.TID 0000.0001)      cg2d_last_res =   8.37680144707654E-08
(PID.TID 0000.0001) // =======================================================
(PID.TID 0000.0001) // Begin MONITOR dynamic field statistics
(PID.TID 0000.0001) // =======================================================
(PID.TID 0000.0001) %MON time_tsnumber                =                 72065
(PID.TID 0000.0001) %MON time_secondsf                =   6.4858500000000E+07
(PID.TID 0000.0001) %MON dynstat_eta_max              =   1.0488017847227E+00
(PID.TID 0000.0001) %MON dynstat_eta_min              =  -1.5760504034927E+00
(PID.TID 0000.0001) %MON dynstat_eta_mean             =   3.0291978888509E-02
(PID.TID 0000.0001) %MON dynstat_eta_sd               =   6.1131626990442E-01
(PID.TID 0000.0001) %MON dynstat_eta_del2             =   1.3867626960407E-03
(PID.TID 0000.0001) %MON dynstat_uvel_max             =   6.4045180517705E-01
(PID.TID 0000.0001) %MON dynstat_uvel_min             =  -8.1507128975708E-01
(PID.TID 0000.0001) %MON dynstat_uvel_mean            =  -2.9631484501275E-04
(PID.TID 0000.0001) %MON dynstat_uvel_sd              =   1.3094055118255E-02
(PID.TID 0000.0001) %MON dynstat_uvel_del2            =   9.5544612233151E-05
(PID.TID 0000.0001) %MON dynstat_vvel_max             =   4.7939340982395E-01
(PID.TID 0000.0001) %MON dynstat_vvel_min             =  -6.2194436892951E-01
(PID.TID 0000.0001) %MON dynstat_vvel_mean            =   5.4187094152874E-04
(PID.TID 0000.0001) %MON dynstat_vvel_sd              =   1.3769153833728E-02
(PID.TID 0000.0001) %MON dynstat_vvel_del2            =   9.8629302099429E-05
(PID.TID 0000.0001) %MON dynstat_wvel_max             =   1.1040412592457E-04
(PID.TID 0000.0001) %MON dynstat_wvel_min             =  -1.9110249450949E-04
(PID.TID 0000.0001) %MON dynstat_wvel_mean            =  -2.4709662117817E-07
(PID.TID 0000.0001) %MON dynstat_wvel_sd              =   7.8942093798643E-06
(PID.TID 0000.0001) %MON dynstat_wvel_del2            =   7.2361518927213E-08
(PID.TID 0000.0001) %MON dynstat_theta_max            =   3.0925887253749E+01
(PID.TID 0000.0001) %MON dynstat_theta_min            =  -3.0075763927398E+00
(PID.TID 0000.0001) %MON dynstat_theta_mean           =   3.9091594794811E+00
(PID.TID 0000.0001) %MON dynstat_theta_sd             =   4.5714876396622E+00
(PID.TID 0000.0001) %MON dynstat_theta_del2           =   2.6407960713232E-03
(PID.TID 0000.0001) %MON dynstat_salt_max             =   4.1347598307345E+01
(PID.TID 0000.0001) %MON dynstat_salt_min             =   1.8519032605698E+01
(PID.TID 0000.0001) %MON dynstat_salt_mean            =   3.4771931128829E+01
(PID.TID 0000.0001) %MON dynstat_salt_sd              =   5.3203386128054E-01
(PID.TID 0000.0001) %MON dynstat_salt_del2            =   1.0811141402817E-03
(PID.TID 0000.0001) %MON dynstat_sst_max              =   3.0925887253749E+01
(PID.TID 0000.0001) %MON dynstat_sst_min              =  -1.8986072489410E+00
(PID.TID 0000.0001) %MON dynstat_sst_mean             =   1.8107706564127E+01
(PID.TID 0000.0001) %MON dynstat_sst_sd               =   9.8118610270787E+00
(PID.TID 0000.0001) %MON dynstat_sst_del2             =   1.5010991795971E-02
(PID.TID 0000.0001) %MON dynstat_sss_max              =   4.1347598307345E+01
(PID.TID 0000.0001) %MON dynstat_sss_min              =   1.8752126334805E+01
(PID.TID 0000.0001) %MON dynstat_sss_mean             =   3.4622852975676E+01
(PID.TID 0000.0001) %MON dynstat_sss_sd               =   1.4845186893972E+00
(PID.TID 0000.0001) %MON dynstat_sss_del2             =   1.2122284401842E-02
(PID.TID 0000.0001) %MON forcing_qnet_max             =   1.8368876953125E+03
(PID.TID 0000.0001) %MON forcing_qnet_min             =  -1.0963024902344E+03
(PID.TID 0000.0001) %MON forcing_qnet_mean            =  -5.5058200896530E+00
(PID.TID 0000.0001) %MON forcing_qnet_sd              =   2.1512597830359E+02
(PID.TID 0000.0001) %MON forcing_qnet_del2            =   3.9363726450907E+00
(PID.TID 0000.0001) %MON forcing_qsw_max              =   0.0000000000000E+00
(PID.TID 0000.0001) %MON forcing_qsw_min              =  -1.0668282981760E+02
(PID.TID 0000.0001) %MON forcing_qsw_mean             =  -1.5344527957484E+01
(PID.TID 0000.0001) %MON forcing_qsw_sd               =   2.7250678674447E+01
(PID.TID 0000.0001) %MON forcing_qsw_del2             =   2.2502344259515E-01
(PID.TID 0000.0001) %MON forcing_empmr_max            =   5.7164696045220E-03
(PID.TID 0000.0001) %MON forcing_empmr_min            =  -8.2178451120853E-02
(PID.TID 0000.0001) %MON forcing_empmr_mean           =  -2.5076218673408E-04
(PID.TID 0000.0001) %MON forcing_empmr_sd             =   3.6211902570384E-03
(PID.TID 0000.0001) %MON forcing_empmr_del2           =   1.4276631248749E-04
(PID.TID 0000.0001) %MON forcing_fu_max               =   3.6235568181563E-01
(PID.TID 0000.0001) %MON forcing_fu_min               =  -3.7767876553780E-01
(PID.TID 0000.0001) %MON forcing_fu_mean              =  -3.2666532013210E-03
(PID.TID 0000.0001) %MON forcing_fu_sd                =   6.2849165522451E-02
(PID.TID 0000.0001) %MON forcing_fu_del2              =   6.1964481393091E-04
(PID.TID 0000.0001) %MON forcing_fv_max               =   2.8671645737659E-01
(PID.TID 0000.0001) %MON forcing_fv_min               =  -2.6141448280158E-01
(PID.TID 0000.0001) %MON forcing_fv_mean              =  -1.5182088368614E-02
(PID.TID 0000.0001) %MON forcing_fv_sd                =   6.1405041602922E-02
(PID.TID 0000.0001) %MON forcing_fv_del2              =   5.3343284432446E-04
(PID.TID 0000.0001) %MON trAdv_CFL_u_max              =   2.3840473015133E-03
(PID.TID 0000.0001) %MON trAdv_CFL_v_max              =   1.8808671818428E-03
(PID.TID 0000.0001) %MON trAdv_CFL_w_max              =   1.8916741863771E-03
(PID.TID 0000.0001) %MON advcfl_uvel_max              =   2.3686046295030E-03
(PID.TID 0000.0001) %MON advcfl_vvel_max              =   1.8183826288358E-03
(PID.TID 0000.0001) %MON advcfl_wvel_max              =   2.8583809085514E-03
(PID.TID 0000.0001) %MON advcfl_W_hf_max              =   1.8916741863771E-03
(PID.TID 0000.0001) %MON pe_b_mean                    =   4.9906590043307E-04
(PID.TID 0000.0001) %MON ke_max                       =   2.6596130085303E-01
(PID.TID 0000.0001) %MON ke_mean                      =   1.6690253744174E-04
(PID.TID 0000.0001) %MON ke_vol                       =   1.3398133888651E+18
(PID.TID 0000.0001) %MON vort_r_min                   =  -4.6491778079937E-06
(PID.TID 0000.0001) %MON vort_r_max                   =   2.7648919496703E-06
(PID.TID 0000.0001) %MON vort_a_mean                  =  -2.0549865324846E-05
(PID.TID 0000.0001) %MON vort_a_sd                    =   7.5259741213264E-05
(PID.TID 0000.0001) %MON vort_p_mean                  =  -2.4783264782117E-05
(PID.TID 0000.0001) %MON vort_p_sd                    =   1.2811911882023E-04
(PID.TID 0000.0001) %MON surfExpan_theta_mean         =  -6.5934775472619E-06
(PID.TID 0000.0001) %MON surfExpan_salt_mean          =   1.3316041453963E-06
(PID.TID 0000.0001) // =======================================================
(PID.TID 0000.0001) // End MONITOR dynamic field statistics
(PID.TID 0000.0001) // =======================================================
 cg2d: Sum(rhs),rhsMax =  -7.20342008428307E+01  3.64488328885439E+01
(PID.TID 0000.0001)      cg2d_init_res =   2.71369282471126E-01
(PID.TID 0000.0001)      cg2d_iters(min,last) =      -1      10
(PID.TID 0000.0001)      cg2d_last_res =   7.63244699573175E-08
(PID.TID 0000.0001) // =======================================================
(PID.TID 0000.0001) // Begin MONITOR dynamic field statistics
(PID.TID 0000.0001) // =======================================================
(PID.TID 0000.0001) %MON time_tsnumber                =                 72066
(PID.TID 0000.0001) %MON time_secondsf                =   6.4859400000000E+07
(PID.TID 0000.0001) %MON dynstat_eta_max              =   1.0484912218037E+00
(PID.TID 0000.0001) %MON dynstat_eta_min              =  -1.5739319822112E+00
(PID.TID 0000.0001) %MON dynstat_eta_mean             =   3.0508688744218E-02
(PID.TID 0000.0001) %MON dynstat_eta_sd               =   6.1132195281042E-01
(PID.TID 0000.0001) %MON dynstat_eta_del2             =   1.4179553027459E-03
(PID.TID 0000.0001) %MON dynstat_uvel_max             =   5.9778566777343E-01
(PID.TID 0000.0001) %MON dynstat_uvel_min             =  -8.2000181563334E-01
(PID.TID 0000.0001) %MON dynstat_uvel_mean            =  -2.8944988987816E-04
(PID.TID 0000.0001) %MON dynstat_uvel_sd              =   1.3111946660451E-02
(PID.TID 0000.0001) %MON dynstat_uvel_del2            =   9.4682232709115E-05
(PID.TID 0000.0001) %MON dynstat_vvel_max             =   4.1809923205265E-01
(PID.TID 0000.0001) %MON dynstat_vvel_min             =  -6.0464451315195E-01
(PID.TID 0000.0001) %MON dynstat_vvel_mean            =   5.3427224333005E-04
(PID.TID 0000.0001) %MON dynstat_vvel_sd              =   1.3739477896074E-02
(PID.TID 0000.0001) %MON dynstat_vvel_del2            =   9.6907225016313E-05
(PID.TID 0000.0001) %MON dynstat_wvel_max             =   1.0849192248759E-04
(PID.TID 0000.0001) %MON dynstat_wvel_min             =  -1.9113654135648E-04
(PID.TID 0000.0001) %MON dynstat_wvel_mean            =  -2.2929922345826E-07
(PID.TID 0000.0001) %MON dynstat_wvel_sd              =   7.8694486991019E-06
(PID.TID 0000.0001) %MON dynstat_wvel_del2            =   7.1711517629203E-08
(PID.TID 0000.0001) %MON dynstat_theta_max            =   3.0925816644235E+01
(PID.TID 0000.0001) %MON dynstat_theta_min            =  -3.0077681718423E+00
(PID.TID 0000.0001) %MON dynstat_theta_mean           =   3.9091612510902E+00
(PID.TID 0000.0001) %MON dynstat_theta_sd             =   4.5714931513477E+00
(PID.TID 0000.0001) %MON dynstat_theta_del2           =   2.6406761814775E-03
(PID.TID 0000.0001) %MON dynstat_salt_max             =   4.1347508295090E+01
(PID.TID 0000.0001) %MON dynstat_salt_min             =   1.8519042827609E+01
(PID.TID 0000.0001) %MON dynstat_salt_mean            =   3.4771929048631E+01
(PID.TID 0000.0001) %MON dynstat_salt_sd              =   5.3204738855881E-01
(PID.TID 0000.0001) %MON dynstat_salt_del2            =   1.0843330605680E-03
(PID.TID 0000.0001) %MON dynstat_sst_max              =   3.0925816644235E+01
(PID.TID 0000.0001) %MON dynstat_sst_min              =  -1.8987339429028E+00
(PID.TID 0000.0001) %MON dynstat_sst_mean             =   1.8107738566585E+01
(PID.TID 0000.0001) %MON dynstat_sst_sd               =   9.8119283572082E+00
(PID.TID 0000.0001) %MON dynstat_sst_del2             =   1.5009007844268E-02
(PID.TID 0000.0001) %MON dynstat_sss_max              =   4.1347508295090E+01
(PID.TID 0000.0001) %MON dynstat_sss_min              =   1.8752146146822E+01
(PID.TID 0000.0001) %MON dynstat_sss_mean             =   3.4622697110261E+01
(PID.TID 0000.0001) %MON dynstat_sss_sd               =   1.4848659298145E+00
(PID.TID 0000.0001) %MON dynstat_sss_del2             =   1.2167641408613E-02
(PID.TID 0000.0001) %MON forcing_qnet_max             =   1.8152708740234E+03
(PID.TID 0000.0001) %MON forcing_qnet_min             =  -1.2814442138672E+03
(PID.TID 0000.0001) %MON forcing_qnet_mean            =  -7.3093344927925E+00
(PID.TID 0000.0001) %MON forcing_qnet_sd              =   2.1622281436436E+02
(PID.TID 0000.0001) %MON forcing_qnet_del2            =   3.8746123604611E+00
(PID.TID 0000.0001) %MON forcing_qsw_max              =   0.0000000000000E+00
(PID.TID 0000.0001) %MON forcing_qsw_min              =  -1.0709806980458E+02
(PID.TID 0000.0001) %MON forcing_qsw_mean             =  -1.5496523434185E+01
(PID.TID 0000.0001) %MON forcing_qsw_sd               =   2.7495283405166E+01
(PID.TID 0000.0001) %MON forcing_qsw_del2             =   2.2815951254814E-01
(PID.TID 0000.0001) %MON forcing_empmr_max            =   5.6576244533062E-03
(PID.TID 0000.0001) %MON forcing_empmr_min            =  -8.1331811845303E-02
(PID.TID 0000.0001) %MON forcing_empmr_mean           =  -2.4921633406652E-04
(PID.TID 0000.0001) %MON forcing_empmr_sd             =   3.5840028021052E-03
(PID.TID 0000.0001) %MON forcing_empmr_del2           =   1.4131173722430E-04
(PID.TID 0000.0001) %MON forcing_fu_max               =   3.5837410597493E-01
(PID.TID 0000.0001) %MON forcing_fu_min               =  -3.7599345156929E-01
(PID.TID 0000.0001) %MON forcing_fu_mean              =  -3.2719986281721E-03
(PID.TID 0000.0001) %MON forcing_fu_sd                =   6.2755273527201E-02
(PID.TID 0000.0001) %MON forcing_fu_del2              =   6.1798486274766E-04
(PID.TID 0000.0001) %MON forcing_fv_max               =   2.9446663102000E-01
(PID.TID 0000.0001) %MON forcing_fv_min               =  -2.5929532213901E-01
(PID.TID 0000.0001) %MON forcing_fv_mean              =  -1.5121487477933E-02
(PID.TID 0000.0001) %MON forcing_fv_sd                =   6.1358395689268E-02
(PID.TID 0000.0001) %MON forcing_fv_del2              =   5.3276057027466E-04
(PID.TID 0000.0001) %MON trAdv_CFL_u_max              =   2.4006868463604E-03
(PID.TID 0000.0001) %MON trAdv_CFL_v_max              =   1.7760031497163E-03
(PID.TID 0000.0001) %MON trAdv_CFL_w_max              =   1.8827076507855E-03
(PID.TID 0000.0001) %MON advcfl_uvel_max              =   2.3829327828353E-03
(PID.TID 0000.0001) %MON advcfl_vvel_max              =   1.7678029326462E-03
(PID.TID 0000.0001) %MON advcfl_wvel_max              =   2.8289325859236E-03
(PID.TID 0000.0001) %MON advcfl_W_hf_max              =   1.8827076507855E-03
(PID.TID 0000.0001) %MON pe_b_mean                    =   4.9909267986584E-04
(PID.TID 0000.0001) %MON ke_max                       =   2.6335922876093E-01
(PID.TID 0000.0001) %MON ke_mean                      =   1.6673357159127E-04
(PID.TID 0000.0001) %MON ke_vol                       =   1.3398134682121E+18
(PID.TID 0000.0001) %MON vort_r_min                   =  -4.6093938680928E-06
(PID.TID 0000.0001) %MON vort_r_max                   =   2.6368781014969E-06
(PID.TID 0000.0001) %MON vort_a_mean                  =  -2.0549865324846E-05
(PID.TID 0000.0001) %MON vort_a_sd                    =   7.5259740692774E-05
(PID.TID 0000.0001) %MON vort_p_mean                  =  -2.4783263038419E-05
(PID.TID 0000.0001) %MON vort_p_sd                    =   1.2811914472986E-04
(PID.TID 0000.0001) %MON surfExpan_theta_mean         =  -6.5089116383270E-06
(PID.TID 0000.0001) %MON surfExpan_salt_mean          =   1.3223403936382E-06
(PID.TID 0000.0001) // =======================================================
(PID.TID 0000.0001) // End MONITOR dynamic field statistics
(PID.TID 0000.0001) // =======================================================
 cg2d: Sum(rhs),rhsMax =  -7.26423955594145E+01  3.63975278285549E+01
(PID.TID 0000.0001)      cg2d_init_res =   2.61045031849455E-01
(PID.TID 0000.0001)      cg2d_iters(min,last) =      -1      10
(PID.TID 0000.0001)      cg2d_last_res =   5.78811567879389E-08
(PID.TID 0000.0001) // =======================================================
(PID.TID 0000.0001) // Begin MONITOR dynamic field statistics
(PID.TID 0000.0001) // =======================================================
(PID.TID 0000.0001) %MON time_tsnumber                =                 72067
(PID.TID 0000.0001) %MON time_secondsf                =   6.4860300000000E+07
(PID.TID 0000.0001) %MON dynstat_eta_max              =   1.0467143623107E+00
(PID.TID 0000.0001) %MON dynstat_eta_min              =  -1.5717916322881E+00
(PID.TID 0000.0001) %MON dynstat_eta_mean             =   3.0722971476244E-02
(PID.TID 0000.0001) %MON dynstat_eta_sd               =   6.1135518812711E-01
(PID.TID 0000.0001) %MON dynstat_eta_del2             =   1.4607971287296E-03
(PID.TID 0000.0001) %MON dynstat_uvel_max             =   5.5293700473079E-01
(PID.TID 0000.0001) %MON dynstat_uvel_min             =  -8.2188035760890E-01
(PID.TID 0000.0001) %MON dynstat_uvel_mean            =  -2.8485932036146E-04
(PID.TID 0000.0001) %MON dynstat_uvel_sd              =   1.3124393558036E-02
(PID.TID 0000.0001) %MON dynstat_uvel_del2            =   9.3740080572722E-05
(PID.TID 0000.0001) %MON dynstat_vvel_max             =   3.6433645248045E-01
(PID.TID 0000.0001) %MON dynstat_vvel_min             =  -5.8411043916528E-01
(PID.TID 0000.0001) %MON dynstat_vvel_mean            =   5.2407429176378E-04
(PID.TID 0000.0001) %MON dynstat_vvel_sd              =   1.3711607806138E-02
(PID.TID 0000.0001) %MON dynstat_vvel_del2            =   9.4954113036122E-05
(PID.TID 0000.0001) %MON dynstat_wvel_max             =   1.0640199337389E-04
(PID.TID 0000.0001) %MON dynstat_wvel_min             =  -1.9117174208370E-04
(PID.TID 0000.0001) %MON dynstat_wvel_mean            =  -2.1272569922672E-07
(PID.TID 0000.0001) %MON dynstat_wvel_sd              =   7.8463128027786E-06
(PID.TID 0000.0001) %MON dynstat_wvel_del2            =   7.1125938201015E-08
(PID.TID 0000.0001) %MON dynstat_theta_max            =   3.0925738938145E+01
(PID.TID 0000.0001) %MON dynstat_theta_min            =  -3.0079718068692E+00
(PID.TID 0000.0001) %MON dynstat_theta_mean           =   3.9091631099335E+00
(PID.TID 0000.0001) %MON dynstat_theta_sd             =   4.5714989712774E+00
(PID.TID 0000.0001) %MON dynstat_theta_del2           =   2.6405616486618E-03
(PID.TID 0000.0001) %MON dynstat_salt_max             =   4.1347429416241E+01
(PID.TID 0000.0001) %MON dynstat_salt_min             =   1.8519053031168E+01
(PID.TID 0000.0001) %MON dynstat_salt_mean            =   3.4771927008549E+01
(PID.TID 0000.0001) %MON dynstat_salt_sd              =   5.3206073672249E-01
(PID.TID 0000.0001) %MON dynstat_salt_del2            =   1.0874920886122E-03
(PID.TID 0000.0001) %MON dynstat_sst_max              =   3.0925738938145E+01
(PID.TID 0000.0001) %MON dynstat_sst_min              =  -1.8988513904545E+00
(PID.TID 0000.0001) %MON dynstat_sst_mean             =   1.8107776591145E+01
(PID.TID 0000.0001) %MON dynstat_sst_sd               =   9.8119979068415E+00
(PID.TID 0000.0001) %MON dynstat_sst_del2             =   1.5007158275252E-02
(PID.TID 0000.0001) %MON dynstat_sss_max              =   4.1347429416241E+01
(PID.TID 0000.0001) %MON dynstat_sss_min              =   1.8752165523016E+01
(PID.TID 0000.0001) %MON dynstat_sss_mean             =   3.4622543810815E+01
(PID.TID 0000.0001) %MON dynstat_sss_sd               =   1.4852088448506E+00
(PID.TID 0000.0001) %MON dynstat_sss_del2             =   1.2212123769124E-02
(PID.TID 0000.0001) %MON forcing_qnet_max             =   1.7949195556641E+03
(PID.TID 0000.0001) %MON forcing_qnet_min             =  -1.7873913574219E+03
(PID.TID 0000.0001) %MON forcing_qnet_mean            =  -8.9717370017567E+00
(PID.TID 0000.0001) %MON forcing_qnet_sd              =   2.1830084580423E+02
(PID.TID 0000.0001) %MON forcing_qnet_del2            =   3.8640558230913E+00
(PID.TID 0000.0001) %MON forcing_qsw_max              =   0.0000000000000E+00
(PID.TID 0000.0001) %MON forcing_qsw_min              =  -1.0765211682554E+02
(PID.TID 0000.0001) %MON forcing_qsw_mean             =  -1.5619515749213E+01
(PID.TID 0000.0001) %MON forcing_qsw_sd               =   2.7672202915582E+01
(PID.TID 0000.0001) %MON forcing_qsw_del2             =   2.3080728492658E-01
(PID.TID 0000.0001) %MON forcing_empmr_max            =   5.5992705747485E-03
(PID.TID 0000.0001) %MON forcing_empmr_min            =  -8.0493561923504E-02
(PID.TID 0000.0001) %MON forcing_empmr_mean           =  -2.4642514182944E-04
(PID.TID 0000.0001) %MON forcing_empmr_sd             =   3.5474450727210E-03
(PID.TID 0000.0001) %MON forcing_empmr_del2           =   1.3988908276274E-04
(PID.TID 0000.0001) %MON forcing_fu_max               =   3.4781175674144E-01
(PID.TID 0000.0001) %MON forcing_fu_min               =  -3.7500443290343E-01
(PID.TID 0000.0001) %MON forcing_fu_mean              =  -3.3016753047913E-03
(PID.TID 0000.0001) %MON forcing_fu_sd                =   6.2568915566019E-02
(PID.TID 0000.0001) %MON forcing_fu_del2              =   6.1503639097222E-04
(PID.TID 0000.0001) %MON forcing_fv_max               =   2.9573228725451E-01
(PID.TID 0000.0001) %MON forcing_fv_min               =  -2.5670709696362E-01
(PID.TID 0000.0001) %MON forcing_fv_mean              =  -1.5076022499036E-02
(PID.TID 0000.0001) %MON forcing_fv_sd                =   6.1349953129090E-02
(PID.TID 0000.0001) %MON forcing_fv_del2              =   5.3309830912836E-04
(PID.TID 0000.0001) %MON trAdv_CFL_u_max              =   2.4085056431244E-03
(PID.TID 0000.0001) %MON trAdv_CFL_v_max              =   1.7179628682757E-03
(PID.TID 0000.0001) %MON trAdv_CFL_w_max              =   1.8685034786507E-03
(PID.TID 0000.0001) %MON advcfl_uvel_max              =   2.3883918430132E-03
(PID.TID 0000.0001) %MON advcfl_vvel_max              =   1.7077673325155E-03
(PID.TID 0000.0001) %MON advcfl_wvel_max              =   2.7997760669045E-03
(PID.TID 0000.0001) %MON advcfl_W_hf_max              =   1.8685034786507E-03
(PID.TID 0000.0001) %MON pe_b_mean                    =   4.9916426408789E-04
(PID.TID 0000.0001) %MON ke_max                       =   2.5882680383146E-01
(PID.TID 0000.0001) %MON ke_mean                      =   1.6652244776710E-04
(PID.TID 0000.0001) %MON ke_vol                       =   1.3398135470700E+18
(PID.TID 0000.0001) %MON vort_r_min                   =  -4.5492822569221E-06
(PID.TID 0000.0001) %MON vort_r_max                   =   2.4826912767610E-06
(PID.TID 0000.0001) %MON vort_a_mean                  =  -2.0549865324846E-05
(PID.TID 0000.0001) %MON vort_a_sd                    =   7.5259739474502E-05
(PID.TID 0000.0001) %MON vort_p_mean                  =  -2.4783261340962E-05
(PID.TID 0000.0001) %MON vort_p_sd                    =   1.2811916647011E-04
(PID.TID 0000.0001) %MON surfExpan_theta_mean         =  -6.4217017523946E-06
(PID.TID 0000.0001) %MON surfExpan_salt_mean          =   1.3117580279290E-06
(PID.TID 0000.0001) // =======================================================
(PID.TID 0000.0001) // End MONITOR dynamic field statistics
(PID.TID 0000.0001) // =======================================================
 Computing Diagnostic #     81  oceTAUX      Counter:       1   Parms: UU      U1      
           Vector  Mate for  oceTAUX      Diagnostic #     82  oceTAUY  exists 
 Computing Diagnostic #     82  oceTAUY      Counter:       1   Parms: VV      U1      
           Vector  Mate for  oceTAUY      Diagnostic #     81  oceTAUX  exists 
 Computing Diagnostic #     85  oceFWflx     Counter:       1   Parms: SM      U1      
 Computing Diagnostic #     86  oceSflux     Counter:       1   Parms: SM      U1      
 Computing Diagnostic #     87  oceQnet      Counter:       1   Parms: SM      U1      
 Computing Diagnostic #     88  oceQsw       Counter:       1   Parms: SM      U1      
 Computing Diagnostic #     27  SALT         Counter:       1   Parms: SMR     MR      
 Computing Diagnostic #     26  THETA        Counter:       1   Parms: SMR     MR      
 Computing Diagnostic #     45  UVELMASS     Counter:       1   Parms: UUr     MR      
           Vector  Mate for  UVELMASS     Diagnostic #     46  VVELMASS exists 
 Computing Diagnostic #     46  VVELMASS     Counter:       1   Parms: VVr     MR      
           Vector  Mate for  VVELMASS     Diagnostic #     45  UVELMASS exists 
 Computing Diagnostic #     83  atmPload     Counter:       1   Parms: SM      U1      
 cg2d: Sum(rhs),rhsMax =  -7.32413805716593E+01  3.63477896740059E+01
(PID.TID 0000.0001)      cg2d_init_res =   2.49889730766722E-01
(PID.TID 0000.0001)      cg2d_iters(min,last) =      -1      10
(PID.TID 0000.0001)      cg2d_last_res =   4.88135984328805E-08
(PID.TID 0000.0001) // =======================================================
(PID.TID 0000.0001) // Begin MONITOR dynamic field statistics
(PID.TID 0000.0001) // =======================================================
(PID.TID 0000.0001) %MON time_tsnumber                =                 72068
(PID.TID 0000.0001) %MON time_secondsf                =   6.4861200000000E+07
(PID.TID 0000.0001) %MON dynstat_eta_max              =   1.0856413444386E+00
(PID.TID 0000.0001) %MON dynstat_eta_min              =  -1.6872025861327E+00
(PID.TID 0000.0001) %MON dynstat_eta_mean             =   3.0933972960117E-02
(PID.TID 0000.0001) %MON dynstat_eta_sd               =   6.1140742811361E-01
(PID.TID 0000.0001) %MON dynstat_eta_del2             =   1.5097977311972E-03
(PID.TID 0000.0001) %MON dynstat_uvel_max             =   5.4394141981871E-01
(PID.TID 0000.0001) %MON dynstat_uvel_min             =  -8.2055118228842E-01
(PID.TID 0000.0001) %MON dynstat_uvel_mean            =  -2.8243102422514E-04
(PID.TID 0000.0001) %MON dynstat_uvel_sd              =   1.3131703985044E-02
(PID.TID 0000.0001) %MON dynstat_uvel_del2            =   9.2745248839854E-05
(PID.TID 0000.0001) %MON dynstat_vvel_max             =   3.5162447919947E-01
(PID.TID 0000.0001) %MON dynstat_vvel_min             =  -5.6046488387660E-01
(PID.TID 0000.0001) %MON dynstat_vvel_mean            =   5.1156890958624E-04
(PID.TID 0000.0001) %MON dynstat_vvel_sd              =   1.3686551049000E-02
(PID.TID 0000.0001) %MON dynstat_vvel_del2            =   9.2883993037181E-05
(PID.TID 0000.0001) %MON dynstat_wvel_max             =   1.0460667304057E-04
(PID.TID 0000.0001) %MON dynstat_wvel_min             =  -1.9119628202712E-04
(PID.TID 0000.0001) %MON dynstat_wvel_mean            =  -1.9803388644234E-07
(PID.TID 0000.0001) %MON dynstat_wvel_sd              =   7.8245128545199E-06
(PID.TID 0000.0001) %MON dynstat_wvel_del2            =   7.0611079996061E-08
(PID.TID 0000.0001) %MON dynstat_theta_max            =   3.0925655107586E+01
(PID.TID 0000.0001) %MON dynstat_theta_min            =  -3.0081917849083E+00
(PID.TID 0000.0001) %MON dynstat_theta_mean           =   3.9091650273607E+00
(PID.TID 0000.0001) %MON dynstat_theta_sd             =   4.5715050566735E+00
(PID.TID 0000.0001) %MON dynstat_theta_del2           =   2.6404439773985E-03
(PID.TID 0000.0001) %MON dynstat_salt_max             =   4.1347360121274E+01
(PID.TID 0000.0001) %MON dynstat_salt_min             =   1.8519063214742E+01
(PID.TID 0000.0001) %MON dynstat_salt_mean            =   3.4771924996921E+01
(PID.TID 0000.0001) %MON dynstat_salt_sd              =   5.3207387240125E-01
(PID.TID 0000.0001) %MON dynstat_salt_del2            =   1.0905883837930E-03
(PID.TID 0000.0001) %MON dynstat_sst_max              =   3.0925655107586E+01
(PID.TID 0000.0001) %MON dynstat_sst_min              =  -1.8989589553070E+00
(PID.TID 0000.0001) %MON dynstat_sst_mean             =   1.8107818469902E+01
(PID.TID 0000.0001) %MON dynstat_sst_sd               =   9.8120713425092E+00
(PID.TID 0000.0001) %MON dynstat_sst_del2             =   1.5005200993278E-02
(PID.TID 0000.0001) %MON dynstat_sss_max              =   4.1347360121274E+01
(PID.TID 0000.0001) %MON dynstat_sss_min              =   1.8752184499807E+01
(PID.TID 0000.0001) %MON dynstat_sss_mean             =   3.4622392110988E+01
(PID.TID 0000.0001) %MON dynstat_sss_sd               =   1.4855463428446E+00
(PID.TID 0000.0001) %MON dynstat_sss_del2             =   1.2255692978181E-02
(PID.TID 0000.0001) %MON forcing_qnet_max             =   1.7738164062500E+03
(PID.TID 0000.0001) %MON forcing_qnet_min             =  -1.0528228759766E+03
(PID.TID 0000.0001) %MON forcing_qnet_mean            =  -1.0205993800590E+01
(PID.TID 0000.0001) %MON forcing_qnet_sd              =   2.1690279259072E+02
(PID.TID 0000.0001) %MON forcing_qnet_del2            =   3.6802808504342E+00
(PID.TID 0000.0001) %MON forcing_qsw_max              =   0.0000000000000E+00
(PID.TID 0000.0001) %MON forcing_qsw_min              =  -1.0812643629992E+02
(PID.TID 0000.0001) %MON forcing_qsw_mean             =  -1.5714496589137E+01
(PID.TID 0000.0001) %MON forcing_qsw_sd               =   2.7779252462067E+01
(PID.TID 0000.0001) %MON forcing_qsw_del2             =   2.3293703151537E-01
(PID.TID 0000.0001) %MON forcing_empmr_max            =   5.5416058748960E-03
(PID.TID 0000.0001) %MON forcing_empmr_min            =  -7.9664543271065E-02
(PID.TID 0000.0001) %MON forcing_empmr_mean           =  -2.4265170645459E-04
(PID.TID 0000.0001) %MON forcing_empmr_sd             =   3.5087294032879E-03
(PID.TID 0000.0001) %MON forcing_empmr_del2           =   1.3841980389486E-04
(PID.TID 0000.0001) %MON forcing_fu_max               =   3.4345765147295E-01
(PID.TID 0000.0001) %MON forcing_fu_min               =  -3.7369415530743E-01
(PID.TID 0000.0001) %MON forcing_fu_mean              =  -3.3279021556575E-03
(PID.TID 0000.0001) %MON forcing_fu_sd                =   6.2463308596652E-02
(PID.TID 0000.0001) %MON forcing_fu_del2              =   6.1422178378086E-04
(PID.TID 0000.0001) %MON forcing_fv_max               =   2.9769127769947E-01
(PID.TID 0000.0001) %MON forcing_fv_min               =  -2.5532908882709E-01
(PID.TID 0000.0001) %MON forcing_fv_mean              =  -1.5056698952991E-02
(PID.TID 0000.0001) %MON forcing_fv_sd                =   6.1306012820833E-02
(PID.TID 0000.0001) %MON forcing_fv_del2              =   5.3305063263791E-04
(PID.TID 0000.0001) %MON trAdv_CFL_u_max              =   2.4069928550290E-03
(PID.TID 0000.0001) %MON trAdv_CFL_v_max              =   1.6504593242646E-03
(PID.TID 0000.0001) %MON trAdv_CFL_w_max              =   1.8491299831438E-03
(PID.TID 0000.0001) %MON advcfl_uvel_max              =   2.3845292473641E-03
(PID.TID 0000.0001) %MON advcfl_vvel_max              =   1.6386346751041E-03
(PID.TID 0000.0001) %MON advcfl_wvel_max              =   2.7709406355153E-03
(PID.TID 0000.0001) %MON advcfl_W_hf_max              =   1.8491299831438E-03
(PID.TID 0000.0001) %MON pe_b_mean                    =   4.9926666162121E-04
(PID.TID 0000.0001) %MON ke_max                       =   2.5234496125460E-01
(PID.TID 0000.0001) %MON ke_mean                      =   1.6628550558589E-04
(PID.TID 0000.0001) %MON ke_vol                       =   1.3398136250446E+18
(PID.TID 0000.0001) %MON vort_r_min                   =  -4.4687335306294E-06
(PID.TID 0000.0001) %MON vort_r_max                   =   2.3054950115795E-06
(PID.TID 0000.0001) %MON vort_a_mean                  =  -2.0549865324846E-05
(PID.TID 0000.0001) %MON vort_a_sd                    =   7.5259737615141E-05
(PID.TID 0000.0001) %MON vort_p_mean                  =  -2.4783259686451E-05
(PID.TID 0000.0001) %MON vort_p_sd                    =   1.2811918352677E-04
(PID.TID 0000.0001) %MON surfExpan_theta_mean         =  -6.3361467331833E-06
(PID.TID 0000.0001) %MON surfExpan_salt_mean          =   1.2967412545471E-06
(PID.TID 0000.0001) // =======================================================
(PID.TID 0000.0001) // End MONITOR dynamic field statistics
(PID.TID 0000.0001) // =======================================================
 cg2d: Sum(rhs),rhsMax =  -7.38309759407098E+01  3.63002470223916E+01
(PID.TID 0000.0001)      cg2d_init_res =   2.38467526182685E-01
(PID.TID 0000.0001)      cg2d_iters(min,last) =      -1      10
(PID.TID 0000.0001)      cg2d_last_res =   6.05121391663956E-08
(PID.TID 0000.0001) // =======================================================
(PID.TID 0000.0001) // Begin MONITOR dynamic field statistics
(PID.TID 0000.0001) // =======================================================
(PID.TID 0000.0001) %MON time_tsnumber                =                 72069
(PID.TID 0000.0001) %MON time_secondsf                =   6.4862100000000E+07
(PID.TID 0000.0001) %MON dynstat_eta_max              =   1.1341264014962E+00
(PID.TID 0000.0001) %MON dynstat_eta_min              =  -1.8340439544824E+00
(PID.TID 0000.0001) %MON dynstat_eta_mean             =   3.1142205261719E-02
(PID.TID 0000.0001) %MON dynstat_eta_sd               =   6.1147176975610E-01
(PID.TID 0000.0001) %MON dynstat_eta_del2             =   1.5599334919615E-03
(PID.TID 0000.0001) %MON dynstat_uvel_max             =   5.2837211853688E-01
(PID.TID 0000.0001) %MON dynstat_uvel_min             =  -8.1590045290364E-01
(PID.TID 0000.0001) %MON dynstat_uvel_mean            =  -2.8203455484052E-04
(PID.TID 0000.0001) %MON dynstat_uvel_sd              =   1.3134241956490E-02
(PID.TID 0000.0001) %MON dynstat_uvel_del2            =   9.1723280463011E-05
(PID.TID 0000.0001) %MON dynstat_vvel_max             =   3.3783049043985E-01
(PID.TID 0000.0001) %MON dynstat_vvel_min             =  -5.3385600721936E-01
(PID.TID 0000.0001) %MON dynstat_vvel_mean            =   4.9704318467423E-04
(PID.TID 0000.0001) %MON dynstat_vvel_sd              =   1.3665180687821E-02
(PID.TID 0000.0001) %MON dynstat_vvel_del2            =   9.0818569459780E-05
(PID.TID 0000.0001) %MON dynstat_wvel_max             =   1.0441832558713E-04
(PID.TID 0000.0001) %MON dynstat_wvel_min             =  -1.9121564543154E-04
(PID.TID 0000.0001) %MON dynstat_wvel_mean            =  -1.8591337969868E-07
(PID.TID 0000.0001) %MON dynstat_wvel_sd              =   7.8053104521604E-06
(PID.TID 0000.0001) %MON dynstat_wvel_del2            =   7.0177212794586E-08
(PID.TID 0000.0001) %MON dynstat_theta_max            =   3.0925564938362E+01
(PID.TID 0000.0001) %MON dynstat_theta_min            =  -3.0084320751864E+00
(PID.TID 0000.0001) %MON dynstat_theta_mean           =   3.9091671393610E+00
(PID.TID 0000.0001) %MON dynstat_theta_sd             =   4.5715120287388E+00
(PID.TID 0000.0001) %MON dynstat_theta_del2           =   2.6403264552905E-03
(PID.TID 0000.0001) %MON dynstat_salt_max             =   4.1347298921897E+01
(PID.TID 0000.0001) %MON dynstat_salt_min             =   1.8519073377340E+01
(PID.TID 0000.0001) %MON dynstat_salt_mean            =   3.4771923020876E+01
(PID.TID 0000.0001) %MON dynstat_salt_sd              =   5.3208682882256E-01
(PID.TID 0000.0001) %MON dynstat_salt_del2            =   1.0936235508706E-03
(PID.TID 0000.0001) %MON dynstat_sst_max              =   3.0925564938362E+01
(PID.TID 0000.0001) %MON dynstat_sst_min              =  -1.8990539185150E+00
(PID.TID 0000.0001) %MON dynstat_sst_mean             =   1.8107874032643E+01
(PID.TID 0000.0001) %MON dynstat_sst_sd               =   9.8121553462310E+00
(PID.TID 0000.0001) %MON dynstat_sst_del2             =   1.5003224013943E-02
(PID.TID 0000.0001) %MON dynstat_sss_max              =   4.1347298921897E+01
(PID.TID 0000.0001) %MON dynstat_sss_min              =   1.8752203066830E+01
(PID.TID 0000.0001) %MON dynstat_sss_mean             =   3.4622242644538E+01
(PID.TID 0000.0001) %MON dynstat_sss_sd               =   1.4858792873889E+00
(PID.TID 0000.0001) %MON dynstat_sss_del2             =   1.2298372806549E-02
(PID.TID 0000.0001) %MON forcing_qnet_max             =   1.7529699707031E+03
(PID.TID 0000.0001) %MON forcing_qnet_min             =  -1.0386998291016E+03
(PID.TID 0000.0001) %MON forcing_qnet_mean            =  -1.3683524373216E+01
(PID.TID 0000.0001) %MON forcing_qnet_sd              =   2.1729763639808E+02
(PID.TID 0000.0001) %MON forcing_qnet_del2            =   3.6427006028321E+00
(PID.TID 0000.0001) %MON forcing_qsw_max              =   0.0000000000000E+00
(PID.TID 0000.0001) %MON forcing_qsw_min              =  -1.0821933335200E+02
(PID.TID 0000.0001) %MON forcing_qsw_mean             =  -1.6079269430369E+01
(PID.TID 0000.0001) %MON forcing_qsw_sd               =   2.8011243630592E+01
(PID.TID 0000.0001) %MON forcing_qsw_del2             =   2.3971514258561E-01
(PID.TID 0000.0001) %MON forcing_empmr_max            =   5.4845316335559E-03
(PID.TID 0000.0001) %MON forcing_empmr_min            =  -7.8843921422958E-02
(PID.TID 0000.0001) %MON forcing_empmr_mean           =  -2.3946714684154E-04
(PID.TID 0000.0001) %MON forcing_empmr_sd             =   3.4720620913875E-03
(PID.TID 0000.0001) %MON forcing_empmr_del2           =   1.3699459187703E-04
(PID.TID 0000.0001) %MON forcing_fu_max               =   3.3681447435258E-01
(PID.TID 0000.0001) %MON forcing_fu_min               =  -3.7336089575903E-01
(PID.TID 0000.0001) %MON forcing_fu_mean              =  -3.3479844235458E-03
(PID.TID 0000.0001) %MON forcing_fu_sd                =   6.2355804644275E-02
(PID.TID 0000.0001) %MON forcing_fu_del2              =   6.1258600585262E-04
(PID.TID 0000.0001) %MON forcing_fv_max               =   3.0188306365705E-01
(PID.TID 0000.0001) %MON forcing_fv_min               =  -2.5318536642878E-01
(PID.TID 0000.0001) %MON forcing_fv_mean              =  -1.5042045104299E-02
(PID.TID 0000.0001) %MON forcing_fv_sd                =   6.1295509493667E-02
(PID.TID 0000.0001) %MON forcing_fv_del2              =   5.3339372275969E-04
(PID.TID 0000.0001) %MON trAdv_CFL_u_max              =   2.3957555301877E-03
(PID.TID 0000.0001) %MON trAdv_CFL_v_max              =   1.5739019297826E-03
(PID.TID 0000.0001) %MON trAdv_CFL_w_max              =   1.8246878157933E-03
(PID.TID 0000.0001) %MON advcfl_uvel_max              =   2.3710141851974E-03
(PID.TID 0000.0001) %MON advcfl_vvel_max              =   1.5608381365333E-03
(PID.TID 0000.0001) %MON advcfl_wvel_max              =   2.7423972668855E-03
(PID.TID 0000.0001) %MON advcfl_W_hf_max              =   1.8246878157933E-03
(PID.TID 0000.0001) %MON pe_b_mean                    =   4.9938867119771E-04
(PID.TID 0000.0001) %MON ke_max                       =   2.4396058180614E-01
(PID.TID 0000.0001) %MON ke_mean                      =   1.6603807210403E-04
(PID.TID 0000.0001) %MON ke_vol                       =   1.3398137018253E+18
(PID.TID 0000.0001) %MON vort_r_min                   =  -4.3678561175920E-06
(PID.TID 0000.0001) %MON vort_r_max                   =   2.2100445283786E-06
(PID.TID 0000.0001) %MON vort_a_mean                  =  -2.0549865324846E-05
(PID.TID 0000.0001) %MON vort_a_sd                    =   7.5259735171329E-05
(PID.TID 0000.0001) %MON vort_p_mean                  =  -2.4783258067463E-05
(PID.TID 0000.0001) %MON vort_p_sd                    =   1.2811919588011E-04
(PID.TID 0000.0001) %MON surfExpan_theta_mean         =  -6.2804201777013E-06
(PID.TID 0000.0001) %MON surfExpan_salt_mean          =   1.2813794107030E-06
(PID.TID 0000.0001) // =======================================================
(PID.TID 0000.0001) // End MONITOR dynamic field statistics
(PID.TID 0000.0001) // =======================================================
 cg2d: Sum(rhs),rhsMax =  -7.44116748686569E+01  3.62555663166440E+01
(PID.TID 0000.0001)      cg2d_init_res =   2.27331458974605E-01
(PID.TID 0000.0001)      cg2d_iters(min,last) =      -1      10
(PID.TID 0000.0001)      cg2d_last_res =   7.31889232688294E-08
(PID.TID 0000.0001) // =======================================================
(PID.TID 0000.0001) // Begin MONITOR dynamic field statistics
(PID.TID 0000.0001) // =======================================================
(PID.TID 0000.0001) %MON time_tsnumber                =                 72070
(PID.TID 0000.0001) %MON time_secondsf                =   6.4863000000000E+07
(PID.TID 0000.0001) %MON dynstat_eta_max              =   1.1781055445365E+00
(PID.TID 0000.0001) %MON dynstat_eta_min              =  -1.9484558056677E+00
(PID.TID 0000.0001) %MON dynstat_eta_mean             =   3.1348513084148E-02
(PID.TID 0000.0001) %MON dynstat_eta_sd               =   6.1154114655782E-01
(PID.TID 0000.0001) %MON dynstat_eta_del2             =   1.6070386041606E-03
(PID.TID 0000.0001) %MON dynstat_uvel_max             =   5.0663520443903E-01
(PID.TID 0000.0001) %MON dynstat_uvel_min             =  -8.0785650931892E-01
(PID.TID 0000.0001) %MON dynstat_uvel_mean            =  -2.8357498167231E-04
(PID.TID 0000.0001) %MON dynstat_uvel_sd              =   1.3132303868255E-02
(PID.TID 0000.0001) %MON dynstat_uvel_del2            =   9.0700300109778E-05
(PID.TID 0000.0001) %MON dynstat_vvel_max             =   3.2308035033816E-01
(PID.TID 0000.0001) %MON dynstat_vvel_min             =  -5.0445652597731E-01
(PID.TID 0000.0001) %MON dynstat_vvel_mean            =   4.8079079938435E-04
(PID.TID 0000.0001) %MON dynstat_vvel_sd              =   1.3648040840226E-02
(PID.TID 0000.0001) %MON dynstat_vvel_del2            =   8.8878934956208E-05
(PID.TID 0000.0001) %MON dynstat_wvel_max             =   1.0425357832873E-04
(PID.TID 0000.0001) %MON dynstat_wvel_min             =  -1.9122937444088E-04
(PID.TID 0000.0001) %MON dynstat_wvel_mean            =  -1.7538685528144E-07
(PID.TID 0000.0001) %MON dynstat_wvel_sd              =   7.7890363214576E-06
(PID.TID 0000.0001) %MON dynstat_wvel_del2            =   6.9822823915863E-08
(PID.TID 0000.0001) %MON dynstat_theta_max            =   3.0925468224039E+01
(PID.TID 0000.0001) %MON dynstat_theta_min            =  -3.0086959334426E+00
(PID.TID 0000.0001) %MON dynstat_theta_mean           =   3.9091693884069E+00
(PID.TID 0000.0001) %MON dynstat_theta_sd             =   4.5715195659958E+00
(PID.TID 0000.0001) %MON dynstat_theta_del2           =   2.6402149702009E-03
(PID.TID 0000.0001) %MON dynstat_salt_max             =   4.1347244434039E+01
(PID.TID 0000.0001) %MON dynstat_salt_min             =   1.8519083518706E+01
(PID.TID 0000.0001) %MON dynstat_salt_mean            =   3.4771921086957E+01
(PID.TID 0000.0001) %MON dynstat_salt_sd              =   5.3209961141114E-01
(PID.TID 0000.0001) %MON dynstat_salt_del2            =   1.0965996363181E-03
(PID.TID 0000.0001) %MON dynstat_sst_max              =   3.0925468224039E+01
(PID.TID 0000.0001) %MON dynstat_sst_min              =  -1.8991348851311E+00
(PID.TID 0000.0001) %MON dynstat_sst_mean             =   1.8107939311406E+01
(PID.TID 0000.0001) %MON dynstat_sst_sd               =   9.8122447433751E+00
(PID.TID 0000.0001) %MON dynstat_sst_del2             =   1.5001390380051E-02
(PID.TID 0000.0001) %MON dynstat_sss_max              =   4.1347244434039E+01
(PID.TID 0000.0001) %MON dynstat_sss_min              =   1.8752221391770E+01
(PID.TID 0000.0001) %MON dynstat_sss_mean             =   3.4622095931072E+01
(PID.TID 0000.0001) %MON dynstat_sss_sd               =   1.4862078185640E+00
(PID.TID 0000.0001) %MON dynstat_sss_del2             =   1.2340193691315E-02
(PID.TID 0000.0001) %MON forcing_qnet_max             =   1.7333543701172E+03
(PID.TID 0000.0001) %MON forcing_qnet_min             =  -2.2775500488281E+03
(PID.TID 0000.0001) %MON forcing_qnet_mean            =  -1.6223371962058E+01
(PID.TID 0000.0001) %MON forcing_qnet_sd              =   2.2025001503405E+02
(PID.TID 0000.0001) %MON forcing_qnet_del2            =   3.9980358467903E+00
(PID.TID 0000.0001) %MON forcing_qsw_max              =   0.0000000000000E+00
(PID.TID 0000.0001) %MON forcing_qsw_min              =  -1.0781991960254E+02
(PID.TID 0000.0001) %MON forcing_qsw_mean             =  -1.6269256658370E+01
(PID.TID 0000.0001) %MON forcing_qsw_sd               =   2.8075079253759E+01
(PID.TID 0000.0001) %MON forcing_qsw_del2             =   2.4178211667002E-01
(PID.TID 0000.0001) %MON forcing_empmr_max            =   5.4280483163893E-03
(PID.TID 0000.0001) %MON forcing_empmr_min            =  -7.8032523393631E-02
(PID.TID 0000.0001) %MON forcing_empmr_mean           =  -2.3725399579356E-04
(PID.TID 0000.0001) %MON forcing_empmr_sd             =   3.4364348881982E-03
(PID.TID 0000.0001) %MON forcing_empmr_del2           =   1.3557962826437E-04
(PID.TID 0000.0001) %MON forcing_fu_max               =   3.2734550258648E-01
(PID.TID 0000.0001) %MON forcing_fu_min               =  -3.7260020790334E-01
(PID.TID 0000.0001) %MON forcing_fu_mean              =  -3.4204941848300E-03
(PID.TID 0000.0001) %MON forcing_fu_sd                =   6.2002822880611E-02
(PID.TID 0000.0001) %MON forcing_fu_del2              =   6.0992550872844E-04
(PID.TID 0000.0001) %MON forcing_fv_max               =   3.0588213632133E-01
(PID.TID 0000.0001) %MON forcing_fv_min               =  -2.5359256968839E-01
(PID.TID 0000.0001) %MON forcing_fv_mean              =  -1.4980873309945E-02
(PID.TID 0000.0001) %MON forcing_fv_sd                =   6.1263597610259E-02
(PID.TID 0000.0001) %MON forcing_fv_del2              =   5.3311902863873E-04
(PID.TID 0000.0001) %MON trAdv_CFL_u_max              =   2.3745210897776E-03
(PID.TID 0000.0001) %MON trAdv_CFL_v_max              =   1.4887833049144E-03
(PID.TID 0000.0001) %MON trAdv_CFL_w_max              =   1.7953403625174E-03
(PID.TID 0000.0001) %MON advcfl_uvel_max              =   2.3476384115029E-03
(PID.TID 0000.0001) %MON advcfl_vvel_max              =   1.4748826899403E-03
(PID.TID 0000.0001) %MON advcfl_wvel_max              =   2.7141747267350E-03
(PID.TID 0000.0001) %MON advcfl_W_hf_max              =   1.7953403625174E-03
(PID.TID 0000.0001) %MON pe_b_mean                    =   4.9951885099246E-04
(PID.TID 0000.0001) %MON ke_max                       =   2.3378796595790E-01
(PID.TID 0000.0001) %MON ke_mean                      =   1.6579054611542E-04
(PID.TID 0000.0001) %MON ke_vol                       =   1.3398137775982E+18
(PID.TID 0000.0001) %MON vort_r_min                   =  -4.2469744340044E-06
(PID.TID 0000.0001) %MON vort_r_max                   =   2.1661889405483E-06
(PID.TID 0000.0001) %MON vort_a_mean                  =  -2.0549865324846E-05
(PID.TID 0000.0001) %MON vort_a_sd                    =   7.5259732200418E-05
(PID.TID 0000.0001) %MON vort_p_mean                  =  -2.4783256472650E-05
(PID.TID 0000.0001) %MON vort_p_sd                    =   1.2811920393214E-04
(PID.TID 0000.0001) %MON surfExpan_theta_mean         =  -6.2388509580937E-06
(PID.TID 0000.0001) %MON surfExpan_salt_mean          =   1.2649063950456E-06
(PID.TID 0000.0001) // =======================================================
(PID.TID 0000.0001) // End MONITOR dynamic field statistics
(PID.TID 0000.0001) // =======================================================
 cg2d: Sum(rhs),rhsMax =  -7.49790312312885E+01  3.62148908837213E+01
(PID.TID 0000.0001)      cg2d_init_res =   2.17111808355227E-01
(PID.TID 0000.0001)      cg2d_iters(min,last) =      -1      10
(PID.TID 0000.0001)      cg2d_last_res =   8.23678646252191E-08
(PID.TID 0000.0001) // =======================================================
(PID.TID 0000.0001) // Begin MONITOR dynamic field statistics
(PID.TID 0000.0001) // =======================================================
(PID.TID 0000.0001) %MON time_tsnumber                =                 72071
(PID.TID 0000.0001) %MON time_secondsf                =   6.4863900000000E+07
(PID.TID 0000.0001) %MON dynstat_eta_max              =   1.2171347630414E+00
(PID.TID 0000.0001) %MON dynstat_eta_min              =  -2.0301528809691E+00
(PID.TID 0000.0001) %MON dynstat_eta_mean             =   3.1552093413372E-02
(PID.TID 0000.0001) %MON dynstat_eta_sd               =   6.1160773812825E-01
(PID.TID 0000.0001) %MON dynstat_eta_del2             =   1.6478716562242E-03
(PID.TID 0000.0001) %MON dynstat_uvel_max             =   4.7921032849970E-01
(PID.TID 0000.0001) %MON dynstat_uvel_min             =  -7.9639214061236E-01
(PID.TID 0000.0001) %MON dynstat_uvel_mean            =  -2.8693596546884E-04
(PID.TID 0000.0001) %MON dynstat_uvel_sd              =   1.3126620068036E-02
(PID.TID 0000.0001) %MON dynstat_uvel_del2            =   8.9701498847991E-05
(PID.TID 0000.0001) %MON dynstat_vvel_max             =   3.0751005926394E-01
(PID.TID 0000.0001) %MON dynstat_vvel_min             =  -4.7246236128855E-01
(PID.TID 0000.0001) %MON dynstat_vvel_mean            =   4.6305231260497E-04
(PID.TID 0000.0001) %MON dynstat_vvel_sd              =   1.3635428635728E-02
(PID.TID 0000.0001) %MON dynstat_vvel_del2            =   8.7175198881325E-05
(PID.TID 0000.0001) %MON dynstat_wvel_max             =   1.0410801536002E-04
(PID.TID 0000.0001) %MON dynstat_wvel_min             =  -1.9122963158519E-04
(PID.TID 0000.0001) %MON dynstat_wvel_mean            =  -1.6557881980089E-07
(PID.TID 0000.0001) %MON dynstat_wvel_sd              =   7.7759901999218E-06
(PID.TID 0000.0001) %MON dynstat_wvel_del2            =   6.9540528526926E-08
(PID.TID 0000.0001) %MON dynstat_theta_max            =   3.0925364706002E+01
(PID.TID 0000.0001) %MON dynstat_theta_min            =  -3.0089857652118E+00
(PID.TID 0000.0001) %MON dynstat_theta_mean           =   3.9091717323755E+00
(PID.TID 0000.0001) %MON dynstat_theta_sd             =   4.5715275142760E+00
(PID.TID 0000.0001) %MON dynstat_theta_del2           =   2.6401060242735E-03
(PID.TID 0000.0001) %MON dynstat_salt_max             =   4.1347195306797E+01
(PID.TID 0000.0001) %MON dynstat_salt_min             =   1.8519093638838E+01
(PID.TID 0000.0001) %MON dynstat_salt_mean            =   3.4771919196632E+01
(PID.TID 0000.0001) %MON dynstat_salt_sd              =   5.3211222899288E-01
(PID.TID 0000.0001) %MON dynstat_salt_del2            =   1.0995179148241E-03
(PID.TID 0000.0001) %MON dynstat_sst_max              =   3.0925364706002E+01
(PID.TID 0000.0001) %MON dynstat_sst_min              =  -1.8992006792993E+00
(PID.TID 0000.0001) %MON dynstat_sst_mean             =   1.8108012904016E+01
(PID.TID 0000.0001) %MON dynstat_sst_sd               =   9.8123385304729E+00
(PID.TID 0000.0001) %MON dynstat_sst_del2             =   1.4999613662970E-02
(PID.TID 0000.0001) %MON dynstat_sss_max              =   4.1347195306797E+01
(PID.TID 0000.0001) %MON dynstat_sss_min              =   1.8752239413808E+01
(PID.TID 0000.0001) %MON dynstat_sss_mean             =   3.4621952524084E+01
(PID.TID 0000.0001) %MON dynstat_sss_sd               =   1.4865321090899E+00
(PID.TID 0000.0001) %MON dynstat_sss_del2             =   1.2381174528412E-02
(PID.TID 0000.0001) %MON forcing_qnet_max             =   1.7130032958984E+03
(PID.TID 0000.0001) %MON forcing_qnet_min             =  -3.4669270019531E+03
(PID.TID 0000.0001) %MON forcing_qnet_mean            =  -1.8148461702615E+01
(PID.TID 0000.0001) %MON forcing_qnet_sd              =   2.2401791361118E+02
(PID.TID 0000.0001) %MON forcing_qnet_del2            =   4.4777648425449E+00
(PID.TID 0000.0001) %MON forcing_qsw_max              =   0.0000000000000E+00
(PID.TID 0000.0001) %MON forcing_qsw_min              =  -1.0698513831190E+02
(PID.TID 0000.0001) %MON forcing_qsw_mean             =  -1.6430495338459E+01
(PID.TID 0000.0001) %MON forcing_qsw_sd               =   2.8070452657855E+01
(PID.TID 0000.0001) %MON forcing_qsw_del2             =   2.4318148377559E-01
(PID.TID 0000.0001) %MON forcing_empmr_max            =   5.3721549920738E-03
(PID.TID 0000.0001) %MON forcing_empmr_min            =  -7.7228680253029E-02
(PID.TID 0000.0001) %MON forcing_empmr_mean           =  -2.3411737860716E-04
(PID.TID 0000.0001) %MON forcing_empmr_sd             =   3.4013182441484E-03
(PID.TID 0000.0001) %MON forcing_empmr_del2           =   1.3419089711566E-04
(PID.TID 0000.0001) %MON forcing_fu_max               =   3.1941248922276E-01
(PID.TID 0000.0001) %MON forcing_fu_min               =  -3.7070496151214E-01
(PID.TID 0000.0001) %MON forcing_fu_mean              =  -3.4852623771586E-03
(PID.TID 0000.0001) %MON forcing_fu_sd                =   6.1694803136746E-02
(PID.TID 0000.0001) %MON forcing_fu_del2              =   6.0735949849049E-04
(PID.TID 0000.0001) %MON forcing_fv_max               =   2.9638022291548E-01
(PID.TID 0000.0001) %MON forcing_fv_min               =  -2.5171711822815E-01
(PID.TID 0000.0001) %MON forcing_fv_mean              =  -1.4936048980873E-02
(PID.TID 0000.0001) %MON forcing_fv_sd                =   6.1122074474126E-02
(PID.TID 0000.0001) %MON forcing_fv_del2              =   5.3078979099596E-04
(PID.TID 0000.0001) %MON trAdv_CFL_u_max              =   2.3431466466169E-03
(PID.TID 0000.0001) %MON trAdv_CFL_v_max              =   1.3956752119231E-03
(PID.TID 0000.0001) %MON trAdv_CFL_w_max              =   1.7612788094057E-03
(PID.TID 0000.0001) %MON advcfl_uvel_max              =   2.3143228510925E-03
(PID.TID 0000.0001) %MON advcfl_vvel_max              =   1.3813411511781E-03
(PID.TID 0000.0001) %MON advcfl_wvel_max              =   2.6862149653227E-03
(PID.TID 0000.0001) %MON advcfl_W_hf_max              =   1.7612788094057E-03
(PID.TID 0000.0001) %MON pe_b_mean                    =   4.9964438931858E-04
(PID.TID 0000.0001) %MON ke_max                       =   2.2671407803516E-01
(PID.TID 0000.0001) %MON ke_mean                      =   1.6555547564370E-04
(PID.TID 0000.0001) %MON ke_vol                       =   1.3398138526709E+18
(PID.TID 0000.0001) %MON vort_r_min                   =  -4.1066318950044E-06
(PID.TID 0000.0001) %MON vort_r_max                   =   2.1217038657338E-06
(PID.TID 0000.0001) %MON vort_a_mean                  =  -2.0549865324846E-05
(PID.TID 0000.0001) %MON vort_a_sd                    =   7.5259728764210E-05
(PID.TID 0000.0001) %MON vort_p_mean                  =  -2.4783254893849E-05
(PID.TID 0000.0001) %MON vort_p_sd                    =   1.2811920833796E-04
(PID.TID 0000.0001) %MON surfExpan_theta_mean         =  -6.1846080620785E-06
(PID.TID 0000.0001) %MON surfExpan_salt_mean          =   1.2477273927861E-06
(PID.TID 0000.0001) // =======================================================
(PID.TID 0000.0001) // End MONITOR dynamic field statistics
(PID.TID 0000.0001) // =======================================================
 Computing Diagnostic #     81  oceTAUX      Counter:       1   Parms: UU      U1      
           Vector  Mate for  oceTAUX      Diagnostic #     82  oceTAUY  exists 
 Computing Diagnostic #     82  oceTAUY      Counter:       1   Parms: VV      U1      
           Vector  Mate for  oceTAUY      Diagnostic #     81  oceTAUX  exists 
 Computing Diagnostic #     85  oceFWflx     Counter:       1   Parms: SM      U1      
 Computing Diagnostic #     86  oceSflux     Counter:       1   Parms: SM      U1      
 Computing Diagnostic #     87  oceQnet      Counter:       1   Parms: SM      U1      
 Computing Diagnostic #     88  oceQsw       Counter:       1   Parms: SM      U1      
 Computing Diagnostic #     27  SALT         Counter:       1   Parms: SMR     MR      
 Computing Diagnostic #     26  THETA        Counter:       1   Parms: SMR     MR      
 Computing Diagnostic #     45  UVELMASS     Counter:       1   Parms: UUr     MR      
           Vector  Mate for  UVELMASS     Diagnostic #     46  VVELMASS exists 
 Computing Diagnostic #     46  VVELMASS     Counter:       1   Parms: VVr     MR      
           Vector  Mate for  VVELMASS     Diagnostic #     45  UVELMASS exists 
 Computing Diagnostic #     83  atmPload     Counter:       1   Parms: SM      U1      
 cg2d: Sum(rhs),rhsMax =  -7.40492261070153E+01  3.69043274836978E+01
(PID.TID 0000.0001)      cg2d_init_res =   2.04072336128334E-01
(PID.TID 0000.0001)      cg2d_iters(min,last) =      -1      10
(PID.TID 0000.0001)      cg2d_last_res =   8.57865485224817E-08
(PID.TID 0000.0001) // =======================================================
(PID.TID 0000.0001) // Begin MONITOR dynamic field statistics
(PID.TID 0000.0001) // =======================================================
(PID.TID 0000.0001) %MON time_tsnumber                =                 72072
(PID.TID 0000.0001) %MON time_secondsf                =   6.4864800000000E+07
(PID.TID 0000.0001) %MON dynstat_eta_max              =   1.2507963568090E+00
(PID.TID 0000.0001) %MON dynstat_eta_min              =  -2.0793019930783E+00
(PID.TID 0000.0001) %MON dynstat_eta_mean             =   3.1754040382966E-02
(PID.TID 0000.0001) %MON dynstat_eta_sd               =   6.1166588659073E-01
(PID.TID 0000.0001) %MON dynstat_eta_del2             =   1.6800497674276E-03
(PID.TID 0000.0001) %MON dynstat_uvel_max             =   4.4664336601840E-01
(PID.TID 0000.0001) %MON dynstat_uvel_min             =  -7.8152577369268E-01
(PID.TID 0000.0001) %MON dynstat_uvel_mean            =  -2.9201270044695E-04
(PID.TID 0000.0001) %MON dynstat_uvel_sd              =   1.3117787755765E-02
(PID.TID 0000.0001) %MON dynstat_uvel_del2            =   8.8750383741247E-05
(PID.TID 0000.0001) %MON dynstat_vvel_max             =   2.9126355191070E-01
(PID.TID 0000.0001) %MON dynstat_vvel_min             =  -4.3809373460909E-01
(PID.TID 0000.0001) %MON dynstat_vvel_mean            =   4.4405136289754E-04
(PID.TID 0000.0001) %MON dynstat_vvel_sd              =   1.3627487318306E-02
(PID.TID 0000.0001) %MON dynstat_vvel_del2            =   8.5797869599351E-05
(PID.TID 0000.0001) %MON dynstat_wvel_max             =   1.0398505834593E-04
(PID.TID 0000.0001) %MON dynstat_wvel_min             =  -1.9123009687629E-04
(PID.TID 0000.0001) %MON dynstat_wvel_mean            =  -1.5697367664955E-07
(PID.TID 0000.0001) %MON dynstat_wvel_sd              =   7.7657540331437E-06
(PID.TID 0000.0001) %MON dynstat_wvel_del2            =   6.9321904448703E-08
(PID.TID 0000.0001) %MON dynstat_theta_max            =   3.0925254164268E+01
(PID.TID 0000.0001) %MON dynstat_theta_min            =  -3.0093030915027E+00
(PID.TID 0000.0001) %MON dynstat_theta_mean           =   3.9091740764349E+00
(PID.TID 0000.0001) %MON dynstat_theta_sd             =   4.5715355329479E+00
(PID.TID 0000.0001) %MON dynstat_theta_del2           =   2.6399922981188E-03
(PID.TID 0000.0001) %MON dynstat_salt_max             =   4.1347150388970E+01
(PID.TID 0000.0001) %MON dynstat_salt_min             =   1.8519103738439E+01
(PID.TID 0000.0001) %MON dynstat_salt_mean            =   3.4771917312898E+01
(PID.TID 0000.0001) %MON dynstat_salt_sd              =   5.3212466573407E-01
(PID.TID 0000.0001) %MON dynstat_salt_del2            =   1.1023771906522E-03
(PID.TID 0000.0001) %MON dynstat_sst_max              =   3.0925254164268E+01
(PID.TID 0000.0001) %MON dynstat_sst_min              =  -1.8992503610009E+00
(PID.TID 0000.0001) %MON dynstat_sst_mean             =   1.8108087862487E+01
(PID.TID 0000.0001) %MON dynstat_sst_sd               =   9.8124354745207E+00
(PID.TID 0000.0001) %MON dynstat_sst_del2             =   1.4997641424825E-02
(PID.TID 0000.0001) %MON dynstat_sss_max              =   4.1347150388970E+01
(PID.TID 0000.0001) %MON dynstat_sss_min              =   1.8752257074910E+01
(PID.TID 0000.0001) %MON dynstat_sss_mean             =   3.4621809873394E+01
(PID.TID 0000.0001) %MON dynstat_sss_sd               =   1.4868516013210E+00
(PID.TID 0000.0001) %MON dynstat_sss_del2             =   1.2421292624964E-02
(PID.TID 0000.0001) %MON forcing_qnet_max             =   1.6938603515625E+03
(PID.TID 0000.0001) %MON forcing_qnet_min             =  -1.0203215942383E+03
(PID.TID 0000.0001) %MON forcing_qnet_mean            =  -1.8340048092816E+01
(PID.TID 0000.0001) %MON forcing_qnet_sd              =   2.1687280424890E+02
(PID.TID 0000.0001) %MON forcing_qnet_del2            =   3.6174692121146E+00
(PID.TID 0000.0001) %MON forcing_qsw_max              =   0.0000000000000E+00
(PID.TID 0000.0001) %MON forcing_qsw_min              =  -1.0616059804402E+02
(PID.TID 0000.0001) %MON forcing_qsw_mean             =  -1.6559642405877E+01
(PID.TID 0000.0001) %MON forcing_qsw_sd               =   2.7998602373250E+01
(PID.TID 0000.0001) %MON forcing_qsw_del2             =   2.4388923200755E-01
(PID.TID 0000.0001) %MON forcing_empmr_max            =   5.3167534060776E-03
(PID.TID 0000.0001) %MON forcing_empmr_min            =  -7.6433226466179E-02
(PID.TID 0000.0001) %MON forcing_empmr_mean           =  -2.3223901503340E-04
(PID.TID 0000.0001) %MON forcing_empmr_sd             =   3.3666648555110E-03
(PID.TID 0000.0001) %MON forcing_empmr_del2           =   1.3281841604019E-04
(PID.TID 0000.0001) %MON forcing_fu_max               =   3.1465646941852E-01
(PID.TID 0000.0001) %MON forcing_fu_min               =  -3.6883347811939E-01
(PID.TID 0000.0001) %MON forcing_fu_mean              =  -3.5391579764260E-03
(PID.TID 0000.0001) %MON forcing_fu_sd                =   6.1433615759023E-02
(PID.TID 0000.0001) %MON forcing_fu_del2              =   6.0499457295247E-04
(PID.TID 0000.0001) %MON forcing_fv_max               =   2.8356770421699E-01
(PID.TID 0000.0001) %MON forcing_fv_min               =  -2.5057883527985E-01
(PID.TID 0000.0001) %MON forcing_fv_mean              =  -1.4923615594433E-02
(PID.TID 0000.0001) %MON forcing_fv_sd                =   6.0997841838262E-02
(PID.TID 0000.0001) %MON forcing_fv_del2              =   5.2808238012344E-04
(PID.TID 0000.0001) %MON trAdv_CFL_u_max              =   2.3016255043127E-03
(PID.TID 0000.0001) %MON trAdv_CFL_v_max              =   1.2952313933437E-03
(PID.TID 0000.0001) %MON trAdv_CFL_w_max              =   1.7227456131462E-03
(PID.TID 0000.0001) %MON advcfl_uvel_max              =   2.2711210527316E-03
(PID.TID 0000.0001) %MON advcfl_vvel_max              =   1.2808573830906E-03
(PID.TID 0000.0001) %MON advcfl_wvel_max              =   2.6585470075193E-03
(PID.TID 0000.0001) %MON advcfl_W_hf_max              =   1.7227456131462E-03
(PID.TID 0000.0001) %MON pe_b_mean                    =   4.9975615230375E-04
(PID.TID 0000.0001) %MON ke_max                       =   2.2644594384643E-01
(PID.TID 0000.0001) %MON ke_mean                      =   1.6534192305213E-04
(PID.TID 0000.0001) %MON ke_vol                       =   1.3398139267511E+18
(PID.TID 0000.0001) %MON vort_r_min                   =  -3.9475983038740E-06
(PID.TID 0000.0001) %MON vort_r_max                   =   2.0766190686533E-06
(PID.TID 0000.0001) %MON vort_a_mean                  =  -2.0549865324846E-05
(PID.TID 0000.0001) %MON vort_a_sd                    =   7.5259724923558E-05
(PID.TID 0000.0001) %MON vort_p_mean                  =  -2.4783253335516E-05
(PID.TID 0000.0001) %MON vort_p_sd                    =   1.2811920991842E-04
(PID.TID 0000.0001) %MON surfExpan_theta_mean         =  -6.1466514717306E-06
(PID.TID 0000.0001) %MON surfExpan_salt_mean          =   1.2305993246566E-06
(PID.TID 0000.0001) // =======================================================
(PID.TID 0000.0001) // End MONITOR dynamic field statistics
(PID.TID 0000.0001) // =======================================================
 cg2d: Sum(rhs),rhsMax =  -7.39119981658177E+01  3.72070294053983E+01
(PID.TID 0000.0001)      cg2d_init_res =   1.94948497402823E-01
(PID.TID 0000.0001)      cg2d_iters(min,last) =      -1      10
(PID.TID 0000.0001)      cg2d_last_res =   8.76993676170917E-08
(PID.TID 0000.0001) // =======================================================
(PID.TID 0000.0001) // Begin MONITOR dynamic field statistics
(PID.TID 0000.0001) // =======================================================
(PID.TID 0000.0001) %MON time_tsnumber                =                 72073
(PID.TID 0000.0001) %MON time_secondsf                =   6.4865700000000E+07
(PID.TID 0000.0001) %MON dynstat_eta_max              =   1.2786990569535E+00
(PID.TID 0000.0001) %MON dynstat_eta_min              =  -2.0965708800415E+00
(PID.TID 0000.0001) %MON dynstat_eta_mean             =   3.1955168656677E-02
(PID.TID 0000.0001) %MON dynstat_eta_sd               =   6.1171114221861E-01
(PID.TID 0000.0001) %MON dynstat_eta_del2             =   1.7019426205553E-03
(PID.TID 0000.0001) %MON dynstat_uvel_max             =   4.0953917354493E-01
(PID.TID 0000.0001) %MON dynstat_uvel_min             =  -7.6332105134566E-01
(PID.TID 0000.0001) %MON dynstat_uvel_mean            =  -2.9872860844258E-04
(PID.TID 0000.0001) %MON dynstat_uvel_sd              =   1.3106444429158E-02
(PID.TID 0000.0001) %MON dynstat_uvel_del2            =   8.7868571971379E-05
(PID.TID 0000.0001) %MON dynstat_vvel_max             =   2.7449090780769E-01
(PID.TID 0000.0001) %MON dynstat_vvel_min             =  -4.0158978001613E-01
(PID.TID 0000.0001) %MON dynstat_vvel_mean            =   4.2403521159006E-04
(PID.TID 0000.0001) %MON dynstat_vvel_sd              =   1.3624137402792E-02
(PID.TID 0000.0001) %MON dynstat_vvel_del2            =   8.4808222660043E-05
(PID.TID 0000.0001) %MON dynstat_wvel_max             =   1.0563883959510E-04
(PID.TID 0000.0001) %MON dynstat_wvel_min             =  -1.9123133318223E-04
(PID.TID 0000.0001) %MON dynstat_wvel_mean            =  -1.4885051054705E-07
(PID.TID 0000.0001) %MON dynstat_wvel_sd              =   7.7568303432518E-06
(PID.TID 0000.0001) %MON dynstat_wvel_del2            =   6.9144419479544E-08
(PID.TID 0000.0001) %MON dynstat_theta_max            =   3.0925136350236E+01
(PID.TID 0000.0001) %MON dynstat_theta_min            =  -3.0096485476774E+00
(PID.TID 0000.0001) %MON dynstat_theta_mean           =   3.9091765685844E+00
(PID.TID 0000.0001) %MON dynstat_theta_sd             =   4.5715442337241E+00
(PID.TID 0000.0001) %MON dynstat_theta_del2           =   2.6398785865546E-03
(PID.TID 0000.0001) %MON dynstat_salt_max             =   4.1347108426764E+01
(PID.TID 0000.0001) %MON dynstat_salt_min             =   1.8519113818947E+01
(PID.TID 0000.0001) %MON dynstat_salt_mean            =   3.4771915443112E+01
(PID.TID 0000.0001) %MON dynstat_salt_sd              =   5.3213695372947E-01
(PID.TID 0000.0001) %MON dynstat_salt_del2            =   1.1051754221712E-03
(PID.TID 0000.0001) %MON dynstat_sst_max              =   3.0925136350236E+01
(PID.TID 0000.0001) %MON dynstat_sst_min              =  -1.8992821102800E+00
(PID.TID 0000.0001) %MON dynstat_sst_mean             =   1.8108170652550E+01
(PID.TID 0000.0001) %MON dynstat_sst_sd               =   9.8125403249621E+00
(PID.TID 0000.0001) %MON dynstat_sst_del2             =   1.4995689992928E-02
(PID.TID 0000.0001) %MON dynstat_sss_max              =   4.1347108426764E+01
(PID.TID 0000.0001) %MON dynstat_sss_min              =   1.8752274463470E+01
(PID.TID 0000.0001) %MON dynstat_sss_mean             =   3.4621667263501E+01
(PID.TID 0000.0001) %MON dynstat_sss_sd               =   1.4871667792006E+00
(PID.TID 0000.0001) %MON dynstat_sss_del2             =   1.2460537775831E-02
(PID.TID 0000.0001) %MON forcing_qnet_max             =   1.6749456787109E+03
(PID.TID 0000.0001) %MON forcing_qnet_min             =  -1.1096632080078E+03
(PID.TID 0000.0001) %MON forcing_qnet_mean            =  -2.0961926931304E+01
(PID.TID 0000.0001) %MON forcing_qnet_sd              =   2.1601908905548E+02
(PID.TID 0000.0001) %MON forcing_qnet_del2            =   3.6789135522602E+00
(PID.TID 0000.0001) %MON forcing_qsw_max              =   0.0000000000000E+00
(PID.TID 0000.0001) %MON forcing_qsw_min              =  -1.0652272371485E+02
(PID.TID 0000.0001) %MON forcing_qsw_mean             =  -1.6972432305934E+01
(PID.TID 0000.0001) %MON forcing_qsw_sd               =   2.7977379073205E+01
(PID.TID 0000.0001) %MON forcing_qsw_del2             =   2.4706160251925E-01
(PID.TID 0000.0001) %MON forcing_empmr_max            =   5.2620409987867E-03
(PID.TID 0000.0001) %MON forcing_empmr_min            =  -7.5646162033081E-02
(PID.TID 0000.0001) %MON forcing_empmr_mean           =  -2.3129751476717E-04
(PID.TID 0000.0001) %MON forcing_empmr_sd             =   3.3324818748093E-03
(PID.TID 0000.0001) %MON forcing_empmr_del2           =   1.3146162001442E-04
(PID.TID 0000.0001) %MON forcing_fu_max               =   3.1051817586495E-01
(PID.TID 0000.0001) %MON forcing_fu_min               =  -3.6692991762465E-01
(PID.TID 0000.0001) %MON forcing_fu_mean              =  -3.6127314701095E-03
(PID.TID 0000.0001) %MON forcing_fu_sd                =   6.1223390290339E-02
(PID.TID 0000.0001) %MON forcing_fu_del2              =   6.0285740294354E-04
(PID.TID 0000.0001) %MON forcing_fv_max               =   2.7623779331178E-01
(PID.TID 0000.0001) %MON forcing_fv_min               =  -2.4943410617039E-01
(PID.TID 0000.0001) %MON forcing_fv_mean              =  -1.4873507149898E-02
(PID.TID 0000.0001) %MON forcing_fv_sd                =   6.0940878559942E-02
(PID.TID 0000.0001) %MON forcing_fv_del2              =   5.2613706842004E-04
(PID.TID 0000.0001) %MON trAdv_CFL_u_max              =   2.2500886700848E-03
(PID.TID 0000.0001) %MON trAdv_CFL_v_max              =   1.1881710003919E-03
(PID.TID 0000.0001) %MON trAdv_CFL_w_max              =   1.6800217487517E-03
(PID.TID 0000.0001) %MON advcfl_uvel_max              =   2.2182179629383E-03
(PID.TID 0000.0001) %MON advcfl_vvel_max              =   1.1741305434700E-03
(PID.TID 0000.0001) %MON advcfl_wvel_max              =   2.6311708533246E-03
(PID.TID 0000.0001) %MON advcfl_W_hf_max              =   1.6800217487517E-03
(PID.TID 0000.0001) %MON pe_b_mean                    =   4.9984695036288E-04
(PID.TID 0000.0001) %MON ke_max                       =   2.2506673289653E-01
(PID.TID 0000.0001) %MON ke_mean                      =   1.6515670001044E-04
(PID.TID 0000.0001) %MON ke_vol                       =   1.3398140002369E+18
(PID.TID 0000.0001) %MON vort_r_min                   =  -3.7708511124884E-06
(PID.TID 0000.0001) %MON vort_r_max                   =   2.1397279320641E-06
(PID.TID 0000.0001) %MON vort_a_mean                  =  -2.0549865324846E-05
(PID.TID 0000.0001) %MON vort_a_sd                    =   7.5259720745886E-05
(PID.TID 0000.0001) %MON vort_p_mean                  =  -2.4783251791421E-05
(PID.TID 0000.0001) %MON vort_p_sd                    =   1.2811920940232E-04
(PID.TID 0000.0001) %MON surfExpan_theta_mean         =  -6.1239656627555E-06
(PID.TID 0000.0001) %MON surfExpan_salt_mean          =   1.2139798396832E-06
(PID.TID 0000.0001) // =======================================================
(PID.TID 0000.0001) // End MONITOR dynamic field statistics
(PID.TID 0000.0001) // =======================================================
 cg2d: Sum(rhs),rhsMax =  -7.48618497580595E+01  3.69631189082210E+01
(PID.TID 0000.0001)      cg2d_init_res =   1.90137591061076E-01
(PID.TID 0000.0001)      cg2d_iters(min,last) =      -1      10
(PID.TID 0000.0001)      cg2d_last_res =   8.90520523304692E-08
(PID.TID 0000.0001) // =======================================================
(PID.TID 0000.0001) // Begin MONITOR dynamic field statistics
(PID.TID 0000.0001) // =======================================================
(PID.TID 0000.0001) %MON time_tsnumber                =                 72074
(PID.TID 0000.0001) %MON time_secondsf                =   6.4866600000000E+07
(PID.TID 0000.0001) %MON dynstat_eta_max              =   1.3004902851407E+00
(PID.TID 0000.0001) %MON dynstat_eta_min              =  -2.0830608819844E+00
(PID.TID 0000.0001) %MON dynstat_eta_mean             =   3.2153654178963E-02
(PID.TID 0000.0001) %MON dynstat_eta_sd               =   6.1173799829142E-01
(PID.TID 0000.0001) %MON dynstat_eta_del2             =   1.7125804532897E-03
(PID.TID 0000.0001) %MON dynstat_uvel_max             =   3.6854943171121E-01
(PID.TID 0000.0001) %MON dynstat_uvel_min             =  -7.4188588650217E-01
(PID.TID 0000.0001) %MON dynstat_uvel_mean            =  -3.0695425760443E-04
(PID.TID 0000.0001) %MON dynstat_uvel_sd              =   1.3093252151686E-02
(PID.TID 0000.0001) %MON dynstat_uvel_del2            =   8.7074807509352E-05
(PID.TID 0000.0001) %MON dynstat_vvel_max             =   2.7183462231160E-01
(PID.TID 0000.0001) %MON dynstat_vvel_min             =  -3.6321191749900E-01
(PID.TID 0000.0001) %MON dynstat_vvel_mean            =   4.0320818918839E-04
(PID.TID 0000.0001) %MON dynstat_vvel_sd              =   1.3625065087573E-02
(PID.TID 0000.0001) %MON dynstat_vvel_del2            =   8.4232001612376E-05
(PID.TID 0000.0001) %MON dynstat_wvel_max             =   1.1160467998383E-04
(PID.TID 0000.0001) %MON dynstat_wvel_min             =  -1.9122210663917E-04
(PID.TID 0000.0001) %MON dynstat_wvel_mean            =  -1.3982484201525E-07
(PID.TID 0000.0001) %MON dynstat_wvel_sd              =   7.7491499922888E-06
(PID.TID 0000.0001) %MON dynstat_wvel_del2            =   6.9005390181472E-08
(PID.TID 0000.0001) %MON dynstat_theta_max            =   3.0925011033653E+01
(PID.TID 0000.0001) %MON dynstat_theta_min            =  -3.0100219462935E+00
(PID.TID 0000.0001) %MON dynstat_theta_mean           =   3.9091791429423E+00
(PID.TID 0000.0001) %MON dynstat_theta_sd             =   4.5715533222100E+00
(PID.TID 0000.0001) %MON dynstat_theta_del2           =   2.6397666471610E-03
(PID.TID 0000.0001) %MON dynstat_salt_max             =   4.1347068487928E+01
(PID.TID 0000.0001) %MON dynstat_salt_min             =   1.8519123882744E+01
(PID.TID 0000.0001) %MON dynstat_salt_mean            =   3.4771913611973E+01
(PID.TID 0000.0001) %MON dynstat_salt_sd              =   5.3214905484914E-01
(PID.TID 0000.0001) %MON dynstat_salt_del2            =   1.1079162478479E-03
(PID.TID 0000.0001) %MON dynstat_sst_max              =   3.0925011033653E+01
(PID.TID 0000.0001) %MON dynstat_sst_min              =  -1.8992966243323E+00
(PID.TID 0000.0001) %MON dynstat_sst_mean             =   1.8108260007939E+01
(PID.TID 0000.0001) %MON dynstat_sst_sd               =   9.8126495867124E+00
(PID.TID 0000.0001) %MON dynstat_sst_del2             =   1.4993781269496E-02
(PID.TID 0000.0001) %MON dynstat_sss_max              =   4.1347068487928E+01
(PID.TID 0000.0001) %MON dynstat_sss_min              =   1.8752291493073E+01
(PID.TID 0000.0001) %MON dynstat_sss_mean             =   3.4621527204473E+01
(PID.TID 0000.0001) %MON dynstat_sss_sd               =   1.4874769046135E+00
(PID.TID 0000.0001) %MON dynstat_sss_del2             =   1.2498956151085E-02
(PID.TID 0000.0001) %MON forcing_qnet_max             =   1.6553109130859E+03
(PID.TID 0000.0001) %MON forcing_qnet_min             =  -1.1930505371094E+03
(PID.TID 0000.0001) %MON forcing_qnet_mean            =  -2.2849462869522E+01
(PID.TID 0000.0001) %MON forcing_qnet_sd              =   2.1464127828853E+02
(PID.TID 0000.0001) %MON forcing_qnet_del2            =   3.6897348646172E+00
(PID.TID 0000.0001) %MON forcing_qsw_max              =   0.0000000000000E+00
(PID.TID 0000.0001) %MON forcing_qsw_min              =  -1.0623984466871E+02
(PID.TID 0000.0001) %MON forcing_qsw_mean             =  -1.7175529171512E+01
(PID.TID 0000.0001) %MON forcing_qsw_sd               =   2.7933496501323E+01
(PID.TID 0000.0001) %MON forcing_qsw_del2             =   2.4706817351379E-01
(PID.TID 0000.0001) %MON forcing_empmr_max            =   5.2078207954764E-03
(PID.TID 0000.0001) %MON forcing_empmr_min            =  -7.4866645038128E-02
(PID.TID 0000.0001) %MON forcing_empmr_mean           =  -2.2825835062948E-04
(PID.TID 0000.0001) %MON forcing_empmr_sd             =   3.2984717584999E-03
(PID.TID 0000.0001) %MON forcing_empmr_del2           =   1.3009785465837E-04
(PID.TID 0000.0001) %MON forcing_fu_max               =   3.0995431672941E-01
(PID.TID 0000.0001) %MON forcing_fu_min               =  -3.6442759545562E-01
(PID.TID 0000.0001) %MON forcing_fu_mean              =  -3.6425909525065E-03
(PID.TID 0000.0001) %MON forcing_fu_sd                =   6.1111959036542E-02
(PID.TID 0000.0001) %MON forcing_fu_del2              =   6.0130181831009E-04
(PID.TID 0000.0001) %MON forcing_fv_max               =   2.6997372724437E-01
(PID.TID 0000.0001) %MON forcing_fv_min               =  -2.4896900821198E-01
(PID.TID 0000.0001) %MON forcing_fv_mean              =  -1.4834512892882E-02
(PID.TID 0000.0001) %MON forcing_fv_sd                =   6.0893462979056E-02
(PID.TID 0000.0001) %MON forcing_fv_del2              =   5.2413615475306E-04
(PID.TID 0000.0001) %MON trAdv_CFL_u_max              =   2.1888044171586E-03
(PID.TID 0000.0001) %MON trAdv_CFL_v_max              =   1.1759067583533E-03
(PID.TID 0000.0001) %MON trAdv_CFL_w_max              =   1.6334237629706E-03
(PID.TID 0000.0001) %MON advcfl_uvel_max              =   2.1559271776776E-03
(PID.TID 0000.0001) %MON advcfl_vvel_max              =   1.1191423203649E-03
(PID.TID 0000.0001) %MON advcfl_wvel_max              =   2.6040572187175E-03
(PID.TID 0000.0001) %MON advcfl_W_hf_max              =   1.6334237629706E-03
(PID.TID 0000.0001) %MON pe_b_mean                    =   4.9990764579574E-04
(PID.TID 0000.0001) %MON ke_max                       =   2.2265250824024E-01
(PID.TID 0000.0001) %MON ke_mean                      =   1.6500396585996E-04
(PID.TID 0000.0001) %MON ke_vol                       =   1.3398140734248E+18
(PID.TID 0000.0001) %MON vort_r_min                   =  -3.5775832295959E-06
(PID.TID 0000.0001) %MON vort_r_max                   =   2.2346205936282E-06
(PID.TID 0000.0001) %MON vort_a_mean                  =  -2.0549865324846E-05
(PID.TID 0000.0001) %MON vort_a_sd                    =   7.5259716295746E-05
(PID.TID 0000.0001) %MON vort_p_mean                  =  -2.4783250258896E-05
(PID.TID 0000.0001) %MON vort_p_sd                    =   1.2811920747327E-04
(PID.TID 0000.0001) %MON surfExpan_theta_mean         =  -6.0429697482872E-06
(PID.TID 0000.0001) %MON surfExpan_salt_mean          =   1.1959762029001E-06
(PID.TID 0000.0001) // =======================================================
(PID.TID 0000.0001) // End MONITOR dynamic field statistics
(PID.TID 0000.0001) // =======================================================
 cg2d: Sum(rhs),rhsMax =  -7.69074223193034E+01  3.61995746905230E+01
(PID.TID 0000.0001)      cg2d_init_res =   1.89536350780225E-01
(PID.TID 0000.0001)      cg2d_iters(min,last) =      -1      10
(PID.TID 0000.0001)      cg2d_last_res =   9.03605206426148E-08
(PID.TID 0000.0001) // =======================================================
(PID.TID 0000.0001) // Begin MONITOR dynamic field statistics
(PID.TID 0000.0001) // =======================================================
(PID.TID 0000.0001) %MON time_tsnumber                =                 72075
(PID.TID 0000.0001) %MON time_secondsf                =   6.4867500000000E+07
(PID.TID 0000.0001) %MON dynstat_eta_max              =   1.3158598772703E+00
(PID.TID 0000.0001) %MON dynstat_eta_min              =  -2.0402887783170E+00
(PID.TID 0000.0001) %MON dynstat_eta_mean             =   3.2349896591322E-02
(PID.TID 0000.0001) %MON dynstat_eta_sd               =   6.1174470657426E-01
(PID.TID 0000.0001) %MON dynstat_eta_del2             =   1.7116108044806E-03
(PID.TID 0000.0001) %MON dynstat_uvel_max             =   3.2436500879972E-01
(PID.TID 0000.0001) %MON dynstat_uvel_min             =  -7.1737142759273E-01
(PID.TID 0000.0001) %MON dynstat_uvel_mean            =  -3.1657223201238E-04
(PID.TID 0000.0001) %MON dynstat_uvel_sd              =   1.3078651547029E-02
(PID.TID 0000.0001) %MON dynstat_uvel_del2            =   8.6382909495417E-05
(PID.TID 0000.0001) %MON dynstat_vvel_max             =   2.6746204636073E-01
(PID.TID 0000.0001) %MON dynstat_vvel_min             =  -3.2323913423352E-01
(PID.TID 0000.0001) %MON dynstat_vvel_mean            =   3.8177930478791E-04
(PID.TID 0000.0001) %MON dynstat_vvel_sd              =   1.3629938784028E-02
(PID.TID 0000.0001) %MON dynstat_vvel_del2            =   8.4057680131619E-05
(PID.TID 0000.0001) %MON dynstat_wvel_max             =   1.1638714279799E-04
(PID.TID 0000.0001) %MON dynstat_wvel_min             =  -1.9122173520838E-04
(PID.TID 0000.0001) %MON dynstat_wvel_mean            =  -1.3063686545430E-07
(PID.TID 0000.0001) %MON dynstat_wvel_sd              =   7.7412575150359E-06
(PID.TID 0000.0001) %MON dynstat_wvel_del2            =   6.8884556377082E-08
(PID.TID 0000.0001) %MON dynstat_theta_max            =   3.0924878004650E+01
(PID.TID 0000.0001) %MON dynstat_theta_min            =  -3.0104223655307E+00
(PID.TID 0000.0001) %MON dynstat_theta_mean           =   3.9091817681883E+00
(PID.TID 0000.0001) %MON dynstat_theta_sd             =   4.5715626701459E+00
(PID.TID 0000.0001) %MON dynstat_theta_del2           =   2.6396551584466E-03
(PID.TID 0000.0001) %MON dynstat_salt_max             =   4.1347029779388E+01
(PID.TID 0000.0001) %MON dynstat_salt_min             =   1.8519133932286E+01
(PID.TID 0000.0001) %MON dynstat_salt_mean            =   3.4771911808298E+01
(PID.TID 0000.0001) %MON dynstat_salt_sd              =   5.3216099427398E-01
(PID.TID 0000.0001) %MON dynstat_salt_del2            =   1.1106012039658E-03
(PID.TID 0000.0001) %MON dynstat_sst_max              =   3.0924878004650E+01
(PID.TID 0000.0001) %MON dynstat_sst_min              =  -1.8992926048542E+00
(PID.TID 0000.0001) %MON dynstat_sst_mean             =   1.8108353552843E+01
(PID.TID 0000.0001) %MON dynstat_sst_sd               =   9.8127622834583E+00
(PID.TID 0000.0001) %MON dynstat_sst_del2             =   1.4991873603256E-02
(PID.TID 0000.0001) %MON dynstat_sss_max              =   4.1347029779388E+01
(PID.TID 0000.0001) %MON dynstat_sss_min              =   1.8752308170976E+01
(PID.TID 0000.0001) %MON dynstat_sss_mean             =   3.4621389069614E+01
(PID.TID 0000.0001) %MON dynstat_sss_sd               =   1.4877825246809E+00
(PID.TID 0000.0001) %MON dynstat_sss_del2             =   1.2536569751064E-02
(PID.TID 0000.0001) %MON forcing_qnet_max             =   1.6368518066406E+03
(PID.TID 0000.0001) %MON forcing_qnet_min             =  -1.4510534667969E+03
(PID.TID 0000.0001) %MON forcing_qnet_mean            =  -2.4064707919420E+01
(PID.TID 0000.0001) %MON forcing_qnet_sd              =   2.1324312338197E+02
(PID.TID 0000.0001) %MON forcing_qnet_del2            =   3.7385826233658E+00
(PID.TID 0000.0001) %MON forcing_qsw_max              =   0.0000000000000E+00
(PID.TID 0000.0001) %MON forcing_qsw_min              =  -1.0690674893582E+02
(PID.TID 0000.0001) %MON forcing_qsw_mean             =  -1.7339214598224E+01
(PID.TID 0000.0001) %MON forcing_qsw_sd               =   2.7842045187835E+01
(PID.TID 0000.0001) %MON forcing_qsw_del2             =   2.4641644676990E-01
(PID.TID 0000.0001) %MON forcing_empmr_max            =   5.1541905850172E-03
(PID.TID 0000.0001) %MON forcing_empmr_min            =  -7.4096366763115E-02
(PID.TID 0000.0001) %MON forcing_empmr_mean           =  -2.2567877421251E-04
(PID.TID 0000.0001) %MON forcing_empmr_sd             =   3.2648572109298E-03
(PID.TID 0000.0001) %MON forcing_empmr_del2           =   1.2876214984239E-04
(PID.TID 0000.0001) %MON forcing_fu_max               =   3.1090032438644E-01
(PID.TID 0000.0001) %MON forcing_fu_min               =  -3.6219201880914E-01
(PID.TID 0000.0001) %MON forcing_fu_mean              =  -3.6623695077823E-03
(PID.TID 0000.0001) %MON forcing_fu_sd                =   6.0961977327725E-02
(PID.TID 0000.0001) %MON forcing_fu_del2              =   5.9915245500981E-04
(PID.TID 0000.0001) %MON forcing_fv_max               =   2.8278282374432E-01
(PID.TID 0000.0001) %MON forcing_fv_min               =  -2.4855538149413E-01
(PID.TID 0000.0001) %MON forcing_fv_mean              =  -1.4800971087074E-02
(PID.TID 0000.0001) %MON forcing_fv_sd                =   6.0973207085790E-02
(PID.TID 0000.0001) %MON forcing_fv_del2              =   5.2356054404877E-04
(PID.TID 0000.0001) %MON trAdv_CFL_u_max              =   2.1181775396758E-03
(PID.TID 0000.0001) %MON trAdv_CFL_v_max              =   1.1782274619019E-03
(PID.TID 0000.0001) %MON trAdv_CFL_w_max              =   1.5832992093373E-03
(PID.TID 0000.0001) %MON advcfl_uvel_max              =   2.0846879356722E-03
(PID.TID 0000.0001) %MON advcfl_vvel_max              =   1.1278345250154E-03
(PID.TID 0000.0001) %MON advcfl_wvel_max              =   2.5772649308910E-03
(PID.TID 0000.0001) %MON advcfl_W_hf_max              =   1.5832992093373E-03
(PID.TID 0000.0001) %MON pe_b_mean                    =   4.9993541570624E-04
(PID.TID 0000.0001) %MON ke_max                       =   2.1929942011804E-01
(PID.TID 0000.0001) %MON ke_mean                      =   1.6488502096157E-04
(PID.TID 0000.0001) %MON ke_vol                       =   1.3398141456511E+18
(PID.TID 0000.0001) %MON vort_r_min                   =  -3.3691844506901E-06
(PID.TID 0000.0001) %MON vort_r_max                   =   2.3239572895545E-06
(PID.TID 0000.0001) %MON vort_a_mean                  =  -2.0549865324846E-05
(PID.TID 0000.0001) %MON vort_a_sd                    =   7.5259711635607E-05
(PID.TID 0000.0001) %MON vort_p_mean                  =  -2.4783248754112E-05
(PID.TID 0000.0001) %MON vort_p_sd                    =   1.2811920473952E-04
(PID.TID 0000.0001) %MON surfExpan_theta_mean         =  -5.9567670226878E-06
(PID.TID 0000.0001) %MON surfExpan_salt_mean          =   1.1800761190458E-06
(PID.TID 0000.0001) // =======================================================
(PID.TID 0000.0001) // End MONITOR dynamic field statistics
(PID.TID 0000.0001) // =======================================================
 Computing Diagnostic #     81  oceTAUX      Counter:       1   Parms: UU      U1      
           Vector  Mate for  oceTAUX      Diagnostic #     82  oceTAUY  exists 
 Computing Diagnostic #     82  oceTAUY      Counter:       1   Parms: VV      U1      
           Vector  Mate for  oceTAUY      Diagnostic #     81  oceTAUX  exists 
 Computing Diagnostic #     85  oceFWflx     Counter:       1   Parms: SM      U1      
 Computing Diagnostic #     86  oceSflux     Counter:       1   Parms: SM      U1      
 Computing Diagnostic #     87  oceQnet      Counter:       1   Parms: SM      U1      
 Computing Diagnostic #     88  oceQsw       Counter:       1   Parms: SM      U1      
 Computing Diagnostic #     27  SALT         Counter:       1   Parms: SMR     MR      
 Computing Diagnostic #     26  THETA        Counter:       1   Parms: SMR     MR      
 Computing Diagnostic #     45  UVELMASS     Counter:       1   Parms: UUr     MR      
           Vector  Mate for  UVELMASS     Diagnostic #     46  VVELMASS exists 
 Computing Diagnostic #     46  VVELMASS     Counter:       1   Parms: VVr     MR      
           Vector  Mate for  VVELMASS     Diagnostic #     45  UVELMASS exists 
 Computing Diagnostic #     83  atmPload     Counter:       1   Parms: SM      U1      
 cg2d: Sum(rhs),rhsMax =  -7.75463581933369E+01  3.61167846859855E+01
(PID.TID 0000.0001)      cg2d_init_res =   1.87090678395656E-01
(PID.TID 0000.0001)      cg2d_iters(min,last) =      -1      10
(PID.TID 0000.0001)      cg2d_last_res =   8.88706844125492E-08
(PID.TID 0000.0001) // =======================================================
(PID.TID 0000.0001) // Begin MONITOR dynamic field statistics
(PID.TID 0000.0001) // =======================================================
(PID.TID 0000.0001) %MON time_tsnumber                =                 72076
(PID.TID 0000.0001) %MON time_secondsf                =   6.4868400000000E+07
(PID.TID 0000.0001) %MON dynstat_eta_max              =   1.3245368177623E+00
(PID.TID 0000.0001) %MON dynstat_eta_min              =  -1.9702317824333E+00
(PID.TID 0000.0001) %MON dynstat_eta_mean             =   3.2544054624205E-02
(PID.TID 0000.0001) %MON dynstat_eta_sd               =   6.1173119565481E-01
(PID.TID 0000.0001) %MON dynstat_eta_del2             =   1.6992541626719E-03
(PID.TID 0000.0001) %MON dynstat_uvel_max             =   3.1367954933624E-01
(PID.TID 0000.0001) %MON dynstat_uvel_min             =  -6.8996847894456E-01
(PID.TID 0000.0001) %MON dynstat_uvel_mean            =  -3.2746231248228E-04
(PID.TID 0000.0001) %MON dynstat_uvel_sd              =   1.3063025262321E-02
(PID.TID 0000.0001) %MON dynstat_uvel_del2            =   8.5803050416145E-05
(PID.TID 0000.0001) %MON dynstat_vvel_max             =   2.6117172964123E-01
(PID.TID 0000.0001) %MON dynstat_vvel_min             =  -3.1361425852217E-01
(PID.TID 0000.0001) %MON dynstat_vvel_mean            =   3.5995748254368E-04
(PID.TID 0000.0001) %MON dynstat_vvel_sd              =   1.3637930274394E-02
(PID.TID 0000.0001) %MON dynstat_vvel_del2            =   8.4239052799356E-05
(PID.TID 0000.0001) %MON dynstat_wvel_max             =   1.1997202734146E-04
(PID.TID 0000.0001) %MON dynstat_wvel_min             =  -1.9122649326259E-04
(PID.TID 0000.0001) %MON dynstat_wvel_mean            =  -1.2133408794133E-07
(PID.TID 0000.0001) %MON dynstat_wvel_sd              =   7.7325650862816E-06
(PID.TID 0000.0001) %MON dynstat_wvel_del2            =   6.8769085957400E-08
(PID.TID 0000.0001) %MON dynstat_theta_max            =   3.0924737029641E+01
(PID.TID 0000.0001) %MON dynstat_theta_min            =  -3.0108483366392E+00
(PID.TID 0000.0001) %MON dynstat_theta_mean           =   3.9091844400742E+00
(PID.TID 0000.0001) %MON dynstat_theta_sd             =   4.5715722393472E+00
(PID.TID 0000.0001) %MON dynstat_theta_del2           =   2.6395477954729E-03
(PID.TID 0000.0001) %MON dynstat_salt_max             =   4.1346991663228E+01
(PID.TID 0000.0001) %MON dynstat_salt_min             =   1.8519143970343E+01
(PID.TID 0000.0001) %MON dynstat_salt_mean            =   3.4771910036326E+01
(PID.TID 0000.0001) %MON dynstat_salt_sd              =   5.3217276356888E-01
(PID.TID 0000.0001) %MON dynstat_salt_del2            =   1.1132321453901E-03
(PID.TID 0000.0001) %MON dynstat_sst_max              =   3.0924737029641E+01
(PID.TID 0000.0001) %MON dynstat_sst_min              =  -1.8992712756229E+00
(PID.TID 0000.0001) %MON dynstat_sst_mean             =   1.8108452615254E+01
(PID.TID 0000.0001) %MON dynstat_sst_sd               =   9.8128783688464E+00
(PID.TID 0000.0001) %MON dynstat_sst_del2             =   1.4990026909913E-02
(PID.TID 0000.0001) %MON dynstat_sss_max              =   4.1346991663228E+01
(PID.TID 0000.0001) %MON dynstat_sss_min              =   1.8752324661479E+01
(PID.TID 0000.0001) %MON dynstat_sss_mean             =   3.4621253717321E+01
(PID.TID 0000.0001) %MON dynstat_sss_sd               =   1.4880833750503E+00
(PID.TID 0000.0001) %MON dynstat_sss_del2             =   1.2573408723200E-02
(PID.TID 0000.0001) %MON forcing_qnet_max             =   1.6176831054688E+03
(PID.TID 0000.0001) %MON forcing_qnet_min             =  -2.0699350585938E+03
(PID.TID 0000.0001) %MON forcing_qnet_mean            =  -2.5164553153102E+01
(PID.TID 0000.0001) %MON forcing_qnet_sd              =   2.1342125626930E+02
(PID.TID 0000.0001) %MON forcing_qnet_del2            =   4.0173738397388E+00
(PID.TID 0000.0001) %MON forcing_qsw_max              =   0.0000000000000E+00
(PID.TID 0000.0001) %MON forcing_qsw_min              =  -1.0713687461386E+02
(PID.TID 0000.0001) %MON forcing_qsw_mean             =  -1.7452490508541E+01
(PID.TID 0000.0001) %MON forcing_qsw_sd               =   2.7711551767910E+01
(PID.TID 0000.0001) %MON forcing_qsw_del2             =   2.4512380928587E-01
(PID.TID 0000.0001) %MON forcing_empmr_max            =   5.1011508330703E-03
(PID.TID 0000.0001) %MON forcing_empmr_min            =  -7.3333643376827E-02
(PID.TID 0000.0001) %MON forcing_empmr_mean           =  -2.2328173781580E-04
(PID.TID 0000.0001) %MON forcing_empmr_sd             =   3.2315417723270E-03
(PID.TID 0000.0001) %MON forcing_empmr_del2           =   1.2743020183746E-04
(PID.TID 0000.0001) %MON forcing_fu_max               =   3.0664553219192E-01
(PID.TID 0000.0001) %MON forcing_fu_min               =  -3.6004693235064E-01
(PID.TID 0000.0001) %MON forcing_fu_mean              =  -3.7202228197101E-03
(PID.TID 0000.0001) %MON forcing_fu_sd                =   6.0657940322746E-02
(PID.TID 0000.0001) %MON forcing_fu_del2              =   5.9665778576544E-04
(PID.TID 0000.0001) %MON forcing_fv_max               =   2.8984088934200E-01
(PID.TID 0000.0001) %MON forcing_fv_min               =  -2.4719615885593E-01
(PID.TID 0000.0001) %MON forcing_fv_mean              =  -1.4777059907683E-02
(PID.TID 0000.0001) %MON forcing_fv_sd                =   6.0958838592868E-02
(PID.TID 0000.0001) %MON forcing_fv_del2              =   5.2247640074908E-04
(PID.TID 0000.0001) %MON trAdv_CFL_u_max              =   2.0387404910132E-03
(PID.TID 0000.0001) %MON trAdv_CFL_v_max              =   1.1802460882151E-03
(PID.TID 0000.0001) %MON trAdv_CFL_w_max              =   1.5300227955154E-03
(PID.TID 0000.0001) %MON advcfl_uvel_max              =   2.0050547160437E-03
(PID.TID 0000.0001) %MON advcfl_vvel_max              =   1.1363098434842E-03
(PID.TID 0000.0001) %MON advcfl_wvel_max              =   2.5507354218027E-03
(PID.TID 0000.0001) %MON advcfl_W_hf_max              =   1.5300227955154E-03
(PID.TID 0000.0001) %MON pe_b_mean                    =   4.9993015281765E-04
(PID.TID 0000.0001) %MON ke_max                       =   2.1511790242647E-01
(PID.TID 0000.0001) %MON ke_mean                      =   1.6479419292084E-04
(PID.TID 0000.0001) %MON ke_vol                       =   1.3398142170611E+18
(PID.TID 0000.0001) %MON vort_r_min                   =  -3.1472271199746E-06
(PID.TID 0000.0001) %MON vort_r_max                   =   2.4070053230349E-06
(PID.TID 0000.0001) %MON vort_a_mean                  =  -2.0549865324846E-05
(PID.TID 0000.0001) %MON vort_a_sd                    =   7.5259706830507E-05
(PID.TID 0000.0001) %MON vort_p_mean                  =  -2.4783247278336E-05
(PID.TID 0000.0001) %MON vort_p_sd                    =   1.2811920167186E-04
(PID.TID 0000.0001) %MON surfExpan_theta_mean         =  -5.8653159798952E-06
(PID.TID 0000.0001) %MON surfExpan_salt_mean          =   1.1640028989235E-06
(PID.TID 0000.0001) // =======================================================
(PID.TID 0000.0001) // End MONITOR dynamic field statistics
(PID.TID 0000.0001) // =======================================================
 cg2d: Sum(rhs),rhsMax =  -7.79363177740541E+01  3.61483703062025E+01
(PID.TID 0000.0001)      cg2d_init_res =   1.85706441838531E-01
(PID.TID 0000.0001)      cg2d_iters(min,last) =      -1      10
(PID.TID 0000.0001)      cg2d_last_res =   8.62183708396000E-08
(PID.TID 0000.0001) // =======================================================
(PID.TID 0000.0001) // Begin MONITOR dynamic field statistics
(PID.TID 0000.0001) // =======================================================
(PID.TID 0000.0001) %MON time_tsnumber                =                 72077
(PID.TID 0000.0001) %MON time_secondsf                =   6.4869300000000E+07
(PID.TID 0000.0001) %MON dynstat_eta_max              =   1.3263302884739E+00
(PID.TID 0000.0001) %MON dynstat_eta_min              =  -1.8750884694219E+00
(PID.TID 0000.0001) %MON dynstat_eta_mean             =   3.2736314082295E-02
(PID.TID 0000.0001) %MON dynstat_eta_sd               =   6.1169861672771E-01
(PID.TID 0000.0001) %MON dynstat_eta_del2             =   1.6762853531440E-03
(PID.TID 0000.0001) %MON dynstat_uvel_max             =   3.3663694593613E-01
(PID.TID 0000.0001) %MON dynstat_uvel_min             =  -6.5990440507936E-01
(PID.TID 0000.0001) %MON dynstat_uvel_mean            =  -3.3944070880276E-04
(PID.TID 0000.0001) %MON dynstat_uvel_sd              =   1.3046955926099E-02
(PID.TID 0000.0001) %MON dynstat_uvel_del2            =   8.5340528547575E-05
(PID.TID 0000.0001) %MON dynstat_vvel_max             =   2.5301046363842E-01
(PID.TID 0000.0001) %MON dynstat_vvel_min             =  -3.1534820671317E-01
(PID.TID 0000.0001) %MON dynstat_vvel_mean            =   3.3794420371953E-04
(PID.TID 0000.0001) %MON dynstat_vvel_sd              =   1.3648319725363E-02
(PID.TID 0000.0001) %MON dynstat_vvel_del2            =   8.4703670356201E-05
(PID.TID 0000.0001) %MON dynstat_wvel_max             =   1.2233790134380E-04
(PID.TID 0000.0001) %MON dynstat_wvel_min             =  -1.9123150559486E-04
(PID.TID 0000.0001) %MON dynstat_wvel_mean            =  -1.1200216007245E-07
(PID.TID 0000.0001) %MON dynstat_wvel_sd              =   7.7229297676785E-06
(PID.TID 0000.0001) %MON dynstat_wvel_del2            =   6.8647834471502E-08
(PID.TID 0000.0001) %MON dynstat_theta_max            =   3.0924587905217E+01
(PID.TID 0000.0001) %MON dynstat_theta_min            =  -3.0112979810204E+00
(PID.TID 0000.0001) %MON dynstat_theta_mean           =   3.9091873583754E+00
(PID.TID 0000.0001) %MON dynstat_theta_sd             =   4.5715827636403E+00
(PID.TID 0000.0001) %MON dynstat_theta_del2           =   2.6394092961970E-03
(PID.TID 0000.0001) %MON dynstat_salt_max             =   4.1346953772185E+01
(PID.TID 0000.0001) %MON dynstat_salt_min             =   1.8519153999931E+01
(PID.TID 0000.0001) %MON dynstat_salt_mean            =   3.4771908309064E+01
(PID.TID 0000.0001) %MON dynstat_salt_sd              =   5.3218434487407E-01
(PID.TID 0000.0001) %MON dynstat_salt_del2            =   1.1158059618896E-03
(PID.TID 0000.0001) %MON dynstat_sst_max              =   3.0924587905217E+01
(PID.TID 0000.0001) %MON dynstat_sst_min              =  -1.8992329895373E+00
(PID.TID 0000.0001) %MON dynstat_sst_mean             =   1.8108568860237E+01
(PID.TID 0000.0001) %MON dynstat_sst_sd               =   9.8130001838202E+00
(PID.TID 0000.0001) %MON dynstat_sst_del2             =   1.4987333935246E-02
(PID.TID 0000.0001) %MON dynstat_sss_max              =   4.1346953772185E+01
(PID.TID 0000.0001) %MON dynstat_sss_min              =   1.8752340903673E+01
(PID.TID 0000.0001) %MON dynstat_sss_mean             =   3.4621121187458E+01
(PID.TID 0000.0001) %MON dynstat_sss_sd               =   1.4883791073317E+00
(PID.TID 0000.0001) %MON dynstat_sss_del2             =   1.2609426009225E-02
(PID.TID 0000.0001) %MON forcing_qnet_max             =   1.5996687011719E+03
(PID.TID 0000.0001) %MON forcing_qnet_min             =  -5.4210322265625E+03
(PID.TID 0000.0001) %MON forcing_qnet_mean            =  -2.9610860607351E+01
(PID.TID 0000.0001) %MON forcing_qnet_sd              =   2.2886563807075E+02
(PID.TID 0000.0001) %MON forcing_qnet_del2            =   6.0556948322142E+00
(PID.TID 0000.0001) %MON forcing_qsw_max              =   0.0000000000000E+00
(PID.TID 0000.0001) %MON forcing_qsw_min              =  -1.0347627143169E+02
(PID.TID 0000.0001) %MON forcing_qsw_mean             =  -1.7853378059285E+01
(PID.TID 0000.0001) %MON forcing_qsw_sd               =   2.7811439618660E+01
(PID.TID 0000.0001) %MON forcing_qsw_del2             =   2.4419486646887E-01
(PID.TID 0000.0001) %MON forcing_empmr_max            =   5.0486037507653E-03
(PID.TID 0000.0001) %MON forcing_empmr_min            =  -7.2578467428684E-02
(PID.TID 0000.0001) %MON forcing_empmr_mean           =  -2.2109837680375E-04
(PID.TID 0000.0001) %MON forcing_empmr_sd             =   3.1985987567310E-03
(PID.TID 0000.0001) %MON forcing_empmr_del2           =   1.2610217046942E-04
(PID.TID 0000.0001) %MON forcing_fu_max               =   3.0616844358961E-01
(PID.TID 0000.0001) %MON forcing_fu_min               =  -3.5775145511107E-01
(PID.TID 0000.0001) %MON forcing_fu_mean              =  -3.7668011524042E-03
(PID.TID 0000.0001) %MON forcing_fu_sd                =   6.0479467761901E-02
(PID.TID 0000.0001) %MON forcing_fu_del2              =   5.9482664612428E-04
(PID.TID 0000.0001) %MON forcing_fv_max               =   2.8834095707395E-01
(PID.TID 0000.0001) %MON forcing_fv_min               =  -2.4572506703074E-01
(PID.TID 0000.0001) %MON forcing_fv_mean              =  -1.4783828144663E-02
(PID.TID 0000.0001) %MON forcing_fv_sd                =   6.0919315918235E-02
(PID.TID 0000.0001) %MON forcing_fv_del2              =   5.2063179705613E-04
(PID.TID 0000.0001) %MON trAdv_CFL_u_max              =   1.9511453512546E-03
(PID.TID 0000.0001) %MON trAdv_CFL_v_max              =   1.1819860428829E-03
(PID.TID 0000.0001) %MON trAdv_CFL_w_max              =   1.4740228899111E-03
(PID.TID 0000.0001) %MON advcfl_uvel_max              =   1.9176882421736E-03
(PID.TID 0000.0001) %MON advcfl_vvel_max              =   1.1444528875579E-03
(PID.TID 0000.0001) %MON advcfl_wvel_max              =   2.5244684323021E-03
(PID.TID 0000.0001) %MON advcfl_W_hf_max              =   1.4740228899111E-03
(PID.TID 0000.0001) %MON pe_b_mean                    =   4.9989374845697E-04
(PID.TID 0000.0001) %MON ke_max                       =   2.1022785668277E-01
(PID.TID 0000.0001) %MON ke_mean                      =   1.6472953127527E-04
(PID.TID 0000.0001) %MON ke_vol                       =   1.3398142877126E+18
(PID.TID 0000.0001) %MON vort_r_min                   =  -2.9134487867736E-06
(PID.TID 0000.0001) %MON vort_r_max                   =   2.4830835509572E-06
(PID.TID 0000.0001) %MON vort_a_mean                  =  -2.0549865324846E-05
(PID.TID 0000.0001) %MON vort_a_sd                    =   7.5259701947755E-05
(PID.TID 0000.0001) %MON vort_p_mean                  =  -2.4783245833992E-05
(PID.TID 0000.0001) %MON vort_p_sd                    =   1.2811919869325E-04
(PID.TID 0000.0001) %MON surfExpan_theta_mean         =  -5.7675697975344E-06
(PID.TID 0000.0001) %MON surfExpan_salt_mean          =   1.1471512812863E-06
(PID.TID 0000.0001) // =======================================================
(PID.TID 0000.0001) // End MONITOR dynamic field statistics
(PID.TID 0000.0001) // =======================================================
 cg2d: Sum(rhs),rhsMax =  -7.83337190350500E+01  3.61753804867963E+01
(PID.TID 0000.0001)      cg2d_init_res =   1.85744253494092E-01
(PID.TID 0000.0001)      cg2d_iters(min,last) =      -1      10
(PID.TID 0000.0001)      cg2d_last_res =   8.14182503756142E-08
(PID.TID 0000.0001) // =======================================================
(PID.TID 0000.0001) // Begin MONITOR dynamic field statistics
(PID.TID 0000.0001) // =======================================================
(PID.TID 0000.0001) %MON time_tsnumber                =                 72078
(PID.TID 0000.0001) %MON time_secondsf                =   6.4870200000000E+07
(PID.TID 0000.0001) %MON dynstat_eta_max              =   1.3210890871726E+00
(PID.TID 0000.0001) %MON dynstat_eta_min              =  -1.7573828104586E+00
(PID.TID 0000.0001) %MON dynstat_eta_mean             =   3.2927823625434E-02
(PID.TID 0000.0001) %MON dynstat_eta_sd               =   6.1165029712321E-01
(PID.TID 0000.0001) %MON dynstat_eta_del2             =   1.6439887194583E-03
(PID.TID 0000.0001) %MON dynstat_uvel_max             =   3.5821222945831E-01
(PID.TID 0000.0001) %MON dynstat_uvel_min             =  -6.5745903512654E-01
(PID.TID 0000.0001) %MON dynstat_uvel_mean            =  -3.5232620604412E-04
(PID.TID 0000.0001) %MON dynstat_uvel_sd              =   1.3030668209517E-02
(PID.TID 0000.0001) %MON dynstat_uvel_del2            =   8.4994836489264E-05
(PID.TID 0000.0001) %MON dynstat_vvel_max             =   2.4305020122989E-01
(PID.TID 0000.0001) %MON dynstat_vvel_min             =  -3.2553101349499E-01
(PID.TID 0000.0001) %MON dynstat_vvel_mean            =   3.1596380040384E-04
(PID.TID 0000.0001) %MON dynstat_vvel_sd              =   1.3660326898078E-02
(PID.TID 0000.0001) %MON dynstat_vvel_del2            =   8.5362588506510E-05
(PID.TID 0000.0001) %MON dynstat_wvel_max             =   1.2351953440223E-04
(PID.TID 0000.0001) %MON dynstat_wvel_min             =  -1.9125001773889E-04
(PID.TID 0000.0001) %MON dynstat_wvel_mean            =  -1.0375809712712E-07
(PID.TID 0000.0001) %MON dynstat_wvel_sd              =   7.7121007470447E-06
(PID.TID 0000.0001) %MON dynstat_wvel_del2            =   6.8509388253907E-08
(PID.TID 0000.0001) %MON dynstat_theta_max            =   3.0924431655259E+01
(PID.TID 0000.0001) %MON dynstat_theta_min            =  -3.0117692096081E+00
(PID.TID 0000.0001) %MON dynstat_theta_mean           =   3.9091902788712E+00
(PID.TID 0000.0001) %MON dynstat_theta_sd             =   4.5715933969766E+00
(PID.TID 0000.0001) %MON dynstat_theta_del2           =   2.6392652826593E-03
(PID.TID 0000.0001) %MON dynstat_salt_max             =   4.1346915975335E+01
(PID.TID 0000.0001) %MON dynstat_salt_min             =   1.8519164024157E+01
(PID.TID 0000.0001) %MON dynstat_salt_mean            =   3.4771906588492E+01
(PID.TID 0000.0001) %MON dynstat_salt_sd              =   5.3219575821307E-01
(PID.TID 0000.0001) %MON dynstat_salt_del2            =   1.1183228588875E-03
(PID.TID 0000.0001) %MON dynstat_sst_max              =   3.0924431655259E+01
(PID.TID 0000.0001) %MON dynstat_sst_min              =  -1.8991783452653E+00
(PID.TID 0000.0001) %MON dynstat_sst_mean             =   1.8108684798400E+01
(PID.TID 0000.0001) %MON dynstat_sst_sd               =   9.8131257480238E+00
(PID.TID 0000.0001) %MON dynstat_sst_del2             =   1.4984488927599E-02
(PID.TID 0000.0001) %MON dynstat_sss_max              =   4.1346915975335E+01
(PID.TID 0000.0001) %MON dynstat_sss_min              =   1.8752356912094E+01
(PID.TID 0000.0001) %MON dynstat_sss_mean             =   3.4620989111476E+01
(PID.TID 0000.0001) %MON dynstat_sss_sd               =   1.4886698781853E+00
(PID.TID 0000.0001) %MON dynstat_sss_del2             =   1.2644628561411E-02
(PID.TID 0000.0001) %MON forcing_qnet_max             =   1.5809542236328E+03
(PID.TID 0000.0001) %MON forcing_qnet_min             =  -4.7951967773438E+03
(PID.TID 0000.0001) %MON forcing_qnet_mean            =  -2.9778619384799E+01
(PID.TID 0000.0001) %MON forcing_qnet_sd              =   2.1766114775619E+02
(PID.TID 0000.0001) %MON forcing_qnet_del2            =   5.0395746383672E+00
(PID.TID 0000.0001) %MON forcing_qsw_max              =   0.0000000000000E+00
(PID.TID 0000.0001) %MON forcing_qsw_min              =  -1.0304936282369E+02
(PID.TID 0000.0001) %MON forcing_qsw_mean             =  -1.8036583433339E+01
(PID.TID 0000.0001) %MON forcing_qsw_sd               =   2.7799952709208E+01
(PID.TID 0000.0001) %MON forcing_qsw_del2             =   2.4294088027630E-01
(PID.TID 0000.0001) %MON forcing_empmr_max            =   4.9965479411185E-03
(PID.TID 0000.0001) %MON forcing_empmr_min            =  -7.1830838918686E-02
(PID.TID 0000.0001) %MON forcing_empmr_mean           =  -2.2023597460975E-04
(PID.TID 0000.0001) %MON forcing_empmr_sd             =   3.1658803145709E-03
(PID.TID 0000.0001) %MON forcing_empmr_del2           =   1.2479528971015E-04
(PID.TID 0000.0001) %MON forcing_fu_max               =   2.9886428714041E-01
(PID.TID 0000.0001) %MON forcing_fu_min               =  -3.5565760631706E-01
(PID.TID 0000.0001) %MON forcing_fu_mean              =  -3.8514343511473E-03
(PID.TID 0000.0001) %MON forcing_fu_sd                =   6.0203767704123E-02
(PID.TID 0000.0001) %MON forcing_fu_del2              =   5.9223191958976E-04
(PID.TID 0000.0001) %MON forcing_fv_max               =   2.8881567860813E-01
(PID.TID 0000.0001) %MON forcing_fv_min               =  -2.4515929902772E-01
(PID.TID 0000.0001) %MON forcing_fv_mean              =  -1.4802963498053E-02
(PID.TID 0000.0001) %MON forcing_fv_sd                =   6.0961182859460E-02
(PID.TID 0000.0001) %MON forcing_fv_del2              =   5.2004639760326E-04
(PID.TID 0000.0001) %MON trAdv_CFL_u_max              =   1.8968548922040E-03
(PID.TID 0000.0001) %MON trAdv_CFL_v_max              =   1.1834632199223E-03
(PID.TID 0000.0001) %MON trAdv_CFL_w_max              =   1.4157388005079E-03
(PID.TID 0000.0001) %MON advcfl_uvel_max              =   1.8966641490932E-03
(PID.TID 0000.0001) %MON advcfl_vvel_max              =   1.1521471718385E-03
(PID.TID 0000.0001) %MON advcfl_wvel_max              =   2.4984639623891E-03
(PID.TID 0000.0001) %MON advcfl_W_hf_max              =   1.4157388005079E-03
(PID.TID 0000.0001) %MON pe_b_mean                    =   4.9983172778529E-04
(PID.TID 0000.0001) %MON ke_max                       =   2.0475398482037E-01
(PID.TID 0000.0001) %MON ke_mean                      =   1.6468397984988E-04
(PID.TID 0000.0001) %MON ke_vol                       =   1.3398143576733E+18
(PID.TID 0000.0001) %MON vort_r_min                   =  -2.6697314393426E-06
(PID.TID 0000.0001) %MON vort_r_max                   =   2.5515703416875E-06
(PID.TID 0000.0001) %MON vort_a_mean                  =  -2.0549865324846E-05
(PID.TID 0000.0001) %MON vort_a_sd                    =   7.5259697052184E-05
(PID.TID 0000.0001) %MON vort_p_mean                  =  -2.4783244421434E-05
(PID.TID 0000.0001) %MON vort_p_sd                    =   1.2811919612309E-04
(PID.TID 0000.0001) %MON surfExpan_theta_mean         =  -5.6818180242804E-06
(PID.TID 0000.0001) %MON surfExpan_salt_mean          =   1.1310852031311E-06
(PID.TID 0000.0001) // =======================================================
(PID.TID 0000.0001) // End MONITOR dynamic field statistics
(PID.TID 0000.0001) // =======================================================
 cg2d: Sum(rhs),rhsMax =  -7.87400460479282E+01  3.61972163400282E+01
(PID.TID 0000.0001)      cg2d_init_res =   1.86833179526944E-01
(PID.TID 0000.0001)      cg2d_iters(min,last) =      -1      10
(PID.TID 0000.0001)      cg2d_last_res =   7.55301388623213E-08
(PID.TID 0000.0001) // =======================================================
(PID.TID 0000.0001) // Begin MONITOR dynamic field statistics
(PID.TID 0000.0001) // =======================================================
(PID.TID 0000.0001) %MON time_tsnumber                =                 72079
(PID.TID 0000.0001) %MON time_secondsf                =   6.4871100000000E+07
(PID.TID 0000.0001) %MON dynstat_eta_max              =   1.3087296564163E+00
(PID.TID 0000.0001) %MON dynstat_eta_min              =  -1.6198939753816E+00
(PID.TID 0000.0001) %MON dynstat_eta_mean             =   3.3118603145074E-02
(PID.TID 0000.0001) %MON dynstat_eta_sd               =   6.1158962296768E-01
(PID.TID 0000.0001) %MON dynstat_eta_del2             =   1.6040943155472E-03
(PID.TID 0000.0001) %MON dynstat_uvel_max             =   3.7763303057018E-01
(PID.TID 0000.0001) %MON dynstat_uvel_min             =  -6.7074211232607E-01
(PID.TID 0000.0001) %MON dynstat_uvel_mean            =  -3.6589971930800E-04
(PID.TID 0000.0001) %MON dynstat_uvel_sd              =   1.3014330390451E-02
(PID.TID 0000.0001) %MON dynstat_uvel_del2            =   8.4760692533959E-05
(PID.TID 0000.0001) %MON dynstat_vvel_max             =   2.3138236597166E-01
(PID.TID 0000.0001) %MON dynstat_vvel_min             =  -3.6171249969736E-01
(PID.TID 0000.0001) %MON dynstat_vvel_mean            =   2.9424867080999E-04
(PID.TID 0000.0001) %MON dynstat_vvel_sd              =   1.3673018430743E-02
(PID.TID 0000.0001) %MON dynstat_vvel_del2            =   8.6120652228646E-05
(PID.TID 0000.0001) %MON dynstat_wvel_max             =   1.2353173171853E-04
(PID.TID 0000.0001) %MON dynstat_wvel_min             =  -1.9127704519384E-04
(PID.TID 0000.0001) %MON dynstat_wvel_mean            =  -9.5582658768747E-08
(PID.TID 0000.0001) %MON dynstat_wvel_sd              =   7.7004492147062E-06
(PID.TID 0000.0001) %MON dynstat_wvel_del2            =   6.8347690834310E-08
(PID.TID 0000.0001) %MON dynstat_theta_max            =   3.0924266913808E+01
(PID.TID 0000.0001) %MON dynstat_theta_min            =  -3.0122598104770E+00
(PID.TID 0000.0001) %MON dynstat_theta_mean           =   3.9091932109918E+00
(PID.TID 0000.0001) %MON dynstat_theta_sd             =   4.5716043653850E+00
(PID.TID 0000.0001) %MON dynstat_theta_del2           =   2.6391676027815E-03
(PID.TID 0000.0001) %MON dynstat_salt_max             =   4.1346878287412E+01
(PID.TID 0000.0001) %MON dynstat_salt_min             =   1.8519174045979E+01
(PID.TID 0000.0001) %MON dynstat_salt_mean            =   3.4771904890492E+01
(PID.TID 0000.0001) %MON dynstat_salt_sd              =   5.3220706874839E-01
(PID.TID 0000.0001) %MON dynstat_salt_del2            =   1.1207890647949E-03
(PID.TID 0000.0001) %MON dynstat_sst_max              =   3.0924266913808E+01
(PID.TID 0000.0001) %MON dynstat_sst_min              =  -1.8991070556583E+00
(PID.TID 0000.0001) %MON dynstat_sst_mean             =   1.8108801925460E+01
(PID.TID 0000.0001) %MON dynstat_sst_sd               =   9.8132612727981E+00
(PID.TID 0000.0001) %MON dynstat_sst_del2             =   1.4982945819592E-02
(PID.TID 0000.0001) %MON dynstat_sss_max              =   4.1346878287412E+01
(PID.TID 0000.0001) %MON dynstat_sss_min              =   1.8752372693821E+01
(PID.TID 0000.0001) %MON dynstat_sss_mean             =   3.4620858770407E+01
(PID.TID 0000.0001) %MON dynstat_sss_sd               =   1.4889574891518E+00
(PID.TID 0000.0001) %MON dynstat_sss_del2             =   1.2679105170592E-02
(PID.TID 0000.0001) %MON forcing_qnet_max             =   1.5633737792969E+03
(PID.TID 0000.0001) %MON forcing_qnet_min             =  -3.5710373535156E+03
(PID.TID 0000.0001) %MON forcing_qnet_mean            =  -3.0124222891631E+01
(PID.TID 0000.0001) %MON forcing_qnet_sd              =   2.1123974416913E+02
(PID.TID 0000.0001) %MON forcing_qnet_del2            =   4.3322942322485E+00
(PID.TID 0000.0001) %MON forcing_qsw_max              =   0.0000000000000E+00
(PID.TID 0000.0001) %MON forcing_qsw_min              =  -1.0276695171127E+02
(PID.TID 0000.0001) %MON forcing_qsw_mean             =  -1.8168144597093E+01
(PID.TID 0000.0001) %MON forcing_qsw_sd               =   2.7765898277329E+01
(PID.TID 0000.0001) %MON forcing_qsw_del2             =   2.4121548008374E-01
(PID.TID 0000.0001) %MON forcing_empmr_max            =   4.9450825899839E-03
(PID.TID 0000.0001) %MON forcing_empmr_min            =  -7.1091599762440E-02
(PID.TID 0000.0001) %MON forcing_empmr_mean           =  -2.1939644758642E-04
(PID.TID 0000.0001) %MON forcing_empmr_sd             =   3.1335139332897E-03
(PID.TID 0000.0001) %MON forcing_empmr_del2           =   1.2350661770740E-04
(PID.TID 0000.0001) %MON forcing_fu_max               =   2.8235179251505E-01
(PID.TID 0000.0001) %MON forcing_fu_min               =  -3.5243625639250E-01
(PID.TID 0000.0001) %MON forcing_fu_mean              =  -3.9717124180327E-03
(PID.TID 0000.0001) %MON forcing_fu_sd                =   5.9760270377371E-02
(PID.TID 0000.0001) %MON forcing_fu_del2              =   5.8867599537226E-04
(PID.TID 0000.0001) %MON forcing_fv_max               =   2.8654070108502E-01
(PID.TID 0000.0001) %MON forcing_fv_min               =  -2.4568461723499E-01
(PID.TID 0000.0001) %MON forcing_fv_mean              =  -1.4812741477205E-02
(PID.TID 0000.0001) %MON forcing_fv_sd                =   6.0916643966426E-02
(PID.TID 0000.0001) %MON forcing_fv_del2              =   5.1897618236545E-04
(PID.TID 0000.0001) %MON trAdv_CFL_u_max              =   1.9360527881465E-03
(PID.TID 0000.0001) %MON trAdv_CFL_v_max              =   1.1846687301660E-03
(PID.TID 0000.0001) %MON trAdv_CFL_w_max              =   1.3556108303443E-03
(PID.TID 0000.0001) %MON advcfl_uvel_max              =   1.9349837020508E-03
(PID.TID 0000.0001) %MON advcfl_vvel_max              =   1.1803998284695E-03
(PID.TID 0000.0001) %MON advcfl_wvel_max              =   2.4727512960849E-03
(PID.TID 0000.0001) %MON advcfl_W_hf_max              =   1.3556108303443E-03
(PID.TID 0000.0001) %MON pe_b_mean                    =   4.9974961496829E-04
(PID.TID 0000.0001) %MON ke_max                       =   1.9881890229300E-01
(PID.TID 0000.0001) %MON ke_mean                      =   1.6464779271024E-04
(PID.TID 0000.0001) %MON ke_vol                       =   1.3398144273611E+18
(PID.TID 0000.0001) %MON vort_r_min                   =  -2.4180842442942E-06
(PID.TID 0000.0001) %MON vort_r_max                   =   2.6119027669126E-06
(PID.TID 0000.0001) %MON vort_a_mean                  =  -2.0549865324846E-05
(PID.TID 0000.0001) %MON vort_a_sd                    =   7.5259692204906E-05
(PID.TID 0000.0001) %MON vort_p_mean                  =  -2.4783243032607E-05
(PID.TID 0000.0001) %MON vort_p_sd                    =   1.2811919421835E-04
(PID.TID 0000.0001) %MON surfExpan_theta_mean         =  -5.5915736017737E-06
(PID.TID 0000.0001) %MON surfExpan_salt_mean          =   1.1157860223853E-06
(PID.TID 0000.0001) // =======================================================
(PID.TID 0000.0001) // End MONITOR dynamic field statistics
(PID.TID 0000.0001) // =======================================================
 Computing Diagnostic #     81  oceTAUX      Counter:       1   Parms: UU      U1      
           Vector  Mate for  oceTAUX      Diagnostic #     82  oceTAUY  exists 
 Computing Diagnostic #     82  oceTAUY      Counter:       1   Parms: VV      U1      
           Vector  Mate for  oceTAUY      Diagnostic #     81  oceTAUX  exists 
 Computing Diagnostic #     85  oceFWflx     Counter:       1   Parms: SM      U1      
 Computing Diagnostic #     86  oceSflux     Counter:       1   Parms: SM      U1      
 Computing Diagnostic #     87  oceQnet      Counter:       1   Parms: SM      U1      
 Computing Diagnostic #     88  oceQsw       Counter:       1   Parms: SM      U1      
 Computing Diagnostic #     27  SALT         Counter:       1   Parms: SMR     MR      
 Computing Diagnostic #     26  THETA        Counter:       1   Parms: SMR     MR      
 Computing Diagnostic #     45  UVELMASS     Counter:       1   Parms: UUr     MR      
           Vector  Mate for  UVELMASS     Diagnostic #     46  VVELMASS exists 
 Computing Diagnostic #     46  VVELMASS     Counter:       1   Parms: VVr     MR      
           Vector  Mate for  VVELMASS     Diagnostic #     45  UVELMASS exists 
 Computing Diagnostic #     83  atmPload     Counter:       1   Parms: SM      U1      
 cg2d: Sum(rhs),rhsMax =  -7.91510598381666E+01  3.62136129145803E+01
(PID.TID 0000.0001)      cg2d_init_res =   1.88487401348997E-01
(PID.TID 0000.0001)      cg2d_iters(min,last) =      -1      10
(PID.TID 0000.0001)      cg2d_last_res =   7.01364789516113E-08
(PID.TID 0000.0001) // =======================================================
(PID.TID 0000.0001) // Begin MONITOR dynamic field statistics
(PID.TID 0000.0001) // =======================================================
(PID.TID 0000.0001) %MON time_tsnumber                =                 72080
(PID.TID 0000.0001) %MON time_secondsf                =   6.4872000000000E+07
(PID.TID 0000.0001) %MON dynstat_eta_max              =   1.2892500096982E+00
(PID.TID 0000.0001) %MON dynstat_eta_min              =  -1.5618626683580E+00
(PID.TID 0000.0001) %MON dynstat_eta_mean             =   3.3306558699438E-02
(PID.TID 0000.0001) %MON dynstat_eta_sd               =   6.1151825134019E-01
(PID.TID 0000.0001) %MON dynstat_eta_del2             =   1.5587015742471E-03
(PID.TID 0000.0001) %MON dynstat_uvel_max             =   3.9389094870742E-01
(PID.TID 0000.0001) %MON dynstat_uvel_min             =  -6.8240578648996E-01
(PID.TID 0000.0001) %MON dynstat_uvel_mean            =  -3.7990466918404E-04
(PID.TID 0000.0001) %MON dynstat_uvel_sd              =   1.2998219926544E-02
(PID.TID 0000.0001) %MON dynstat_uvel_del2            =   8.4628329060514E-05
(PID.TID 0000.0001) %MON dynstat_vvel_max             =   2.4769775510229E-01
(PID.TID 0000.0001) %MON dynstat_vvel_min             =  -3.9128215923818E-01
(PID.TID 0000.0001) %MON dynstat_vvel_mean            =   2.7303064024228E-04
(PID.TID 0000.0001) %MON dynstat_vvel_sd              =   1.3685570179692E-02
(PID.TID 0000.0001) %MON dynstat_vvel_del2            =   8.6887138539932E-05
(PID.TID 0000.0001) %MON dynstat_wvel_max             =   1.2240793875989E-04
(PID.TID 0000.0001) %MON dynstat_wvel_min             =  -1.9131390225756E-04
(PID.TID 0000.0001) %MON dynstat_wvel_mean            =  -8.6831788519364E-08
(PID.TID 0000.0001) %MON dynstat_wvel_sd              =   7.6867688448939E-06
(PID.TID 0000.0001) %MON dynstat_wvel_del2            =   6.8156944321710E-08
(PID.TID 0000.0001) %MON dynstat_theta_max            =   3.0924094730242E+01
(PID.TID 0000.0001) %MON dynstat_theta_min            =  -3.0127677099801E+00
(PID.TID 0000.0001) %MON dynstat_theta_mean           =   3.9091961422237E+00
(PID.TID 0000.0001) %MON dynstat_theta_sd             =   4.5716154343058E+00
(PID.TID 0000.0001) %MON dynstat_theta_del2           =   2.6390677882771E-03
(PID.TID 0000.0001) %MON dynstat_salt_max             =   4.1346840866023E+01
(PID.TID 0000.0001) %MON dynstat_salt_min             =   1.8519184068144E+01
(PID.TID 0000.0001) %MON dynstat_salt_mean            =   3.4771903218169E+01
(PID.TID 0000.0001) %MON dynstat_salt_sd              =   5.3221818089163E-01
(PID.TID 0000.0001) %MON dynstat_salt_del2            =   1.1232024652705E-03
(PID.TID 0000.0001) %MON dynstat_sst_max              =   3.0924094730242E+01
(PID.TID 0000.0001) %MON dynstat_sst_min              =  -1.8990213117722E+00
(PID.TID 0000.0001) %MON dynstat_sst_mean             =   1.8108920121332E+01
(PID.TID 0000.0001) %MON dynstat_sst_sd               =   9.8133999703367E+00
(PID.TID 0000.0001) %MON dynstat_sst_del2             =   1.4981324703727E-02
(PID.TID 0000.0001) %MON dynstat_sss_max              =   4.1346840866023E+01
(PID.TID 0000.0001) %MON dynstat_sss_min              =   1.8752388255499E+01
(PID.TID 0000.0001) %MON dynstat_sss_mean             =   3.4620730344538E+01
(PID.TID 0000.0001) %MON dynstat_sss_sd               =   1.4892394187999E+00
(PID.TID 0000.0001) %MON dynstat_sss_del2             =   1.2712826496238E-02
(PID.TID 0000.0001) %MON forcing_qnet_max             =   1.5451030273438E+03
(PID.TID 0000.0001) %MON forcing_qnet_min             =  -1.8033471679688E+03
(PID.TID 0000.0001) %MON forcing_qnet_mean            =  -3.0536505712008E+01
(PID.TID 0000.0001) %MON forcing_qnet_sd              =   2.0448794683756E+02
(PID.TID 0000.0001) %MON forcing_qnet_del2            =   3.6924110539659E+00
(PID.TID 0000.0001) %MON forcing_qsw_max              =   0.0000000000000E+00
(PID.TID 0000.0001) %MON forcing_qsw_min              =  -1.0277031162353E+02
(PID.TID 0000.0001) %MON forcing_qsw_mean             =  -1.8245843026077E+01
(PID.TID 0000.0001) %MON forcing_qsw_sd               =   2.7711554150280E+01
(PID.TID 0000.0001) %MON forcing_qsw_del2             =   2.3905665731140E-01
(PID.TID 0000.0001) %MON forcing_empmr_max            =   4.8941094428301E-03
(PID.TID 0000.0001) %MON forcing_empmr_min            =  -7.0359081029892E-02
(PID.TID 0000.0001) %MON forcing_empmr_mean           =  -2.1614888751794E-04
(PID.TID 0000.0001) %MON forcing_empmr_sd             =   3.1015185965897E-03
(PID.TID 0000.0001) %MON forcing_empmr_del2           =   1.2222730600670E-04
(PID.TID 0000.0001) %MON forcing_fu_max               =   2.7167769047061E-01
(PID.TID 0000.0001) %MON forcing_fu_min               =  -3.4728302808891E-01
(PID.TID 0000.0001) %MON forcing_fu_mean              =  -4.0764359855602E-03
(PID.TID 0000.0001) %MON forcing_fu_sd                =   5.9258922482908E-02
(PID.TID 0000.0001) %MON forcing_fu_del2              =   5.8476635094426E-04
(PID.TID 0000.0001) %MON forcing_fv_max               =   2.8438074695986E-01
(PID.TID 0000.0001) %MON forcing_fv_min               =  -2.4717773353833E-01
(PID.TID 0000.0001) %MON forcing_fv_mean              =  -1.4830204780362E-02
(PID.TID 0000.0001) %MON forcing_fv_sd                =   6.0890024762072E-02
(PID.TID 0000.0001) %MON forcing_fv_del2              =   5.1829880599724E-04
(PID.TID 0000.0001) %MON trAdv_CFL_u_max              =   1.9706876157305E-03
(PID.TID 0000.0001) %MON trAdv_CFL_v_max              =   1.2735549530627E-03
(PID.TID 0000.0001) %MON trAdv_CFL_w_max              =   1.2941221274629E-03
(PID.TID 0000.0001) %MON advcfl_uvel_max              =   1.9686315362906E-03
(PID.TID 0000.0001) %MON advcfl_vvel_max              =   1.2768964136831E-03
(PID.TID 0000.0001) %MON advcfl_wvel_max              =   2.4472723836484E-03
(PID.TID 0000.0001) %MON advcfl_W_hf_max              =   1.3190416527572E-03
(PID.TID 0000.0001) %MON pe_b_mean                    =   4.9964992893069E-04
(PID.TID 0000.0001) %MON ke_max                       =   1.9253875260470E-01
(PID.TID 0000.0001) %MON ke_mean                      =   1.6461382322132E-04
(PID.TID 0000.0001) %MON ke_vol                       =   1.3398144967832E+18
(PID.TID 0000.0001) %MON vort_r_min                   =  -2.1964757462842E-06
(PID.TID 0000.0001) %MON vort_r_max                   =   2.6635870255688E-06
(PID.TID 0000.0001) %MON vort_a_mean                  =  -2.0549865324846E-05
(PID.TID 0000.0001) %MON vort_a_sd                    =   7.5259687467074E-05
(PID.TID 0000.0001) %MON vort_p_mean                  =  -2.4783241667228E-05
(PID.TID 0000.0001) %MON vort_p_sd                    =   1.2811919320058E-04
(PID.TID 0000.0001) %MON surfExpan_theta_mean         =  -5.4506052814430E-06
(PID.TID 0000.0001) %MON surfExpan_salt_mean          =   1.0972903266085E-06
(PID.TID 0000.0001) // =======================================================
(PID.TID 0000.0001) // End MONITOR dynamic field statistics
(PID.TID 0000.0001) // =======================================================
 cg2d: Sum(rhs),rhsMax =  -7.95706208429325E+01  3.62237018109197E+01
(PID.TID 0000.0001)      cg2d_init_res =   1.90358328457805E-01
(PID.TID 0000.0001)      cg2d_iters(min,last) =      -1      10
(PID.TID 0000.0001)      cg2d_last_res =   6.19081233160142E-08
(PID.TID 0000.0001) // =======================================================
(PID.TID 0000.0001) // Begin MONITOR dynamic field statistics
(PID.TID 0000.0001) // =======================================================
(PID.TID 0000.0001) %MON time_tsnumber                =                 72081
(PID.TID 0000.0001) %MON time_secondsf                =   6.4872900000000E+07
(PID.TID 0000.0001) %MON dynstat_eta_max              =   1.2627011902808E+00
(PID.TID 0000.0001) %MON dynstat_eta_min              =  -1.5607507489458E+00
(PID.TID 0000.0001) %MON dynstat_eta_mean             =   3.3492437065715E-02
(PID.TID 0000.0001) %MON dynstat_eta_sd               =   6.1143914251110E-01
(PID.TID 0000.0001) %MON dynstat_eta_del2             =   1.5101662593156E-03
(PID.TID 0000.0001) %MON dynstat_uvel_max             =   4.0674823755385E-01
(PID.TID 0000.0001) %MON dynstat_uvel_min             =  -6.9232673686907E-01
(PID.TID 0000.0001) %MON dynstat_uvel_mean            =  -3.9407305390659E-04
(PID.TID 0000.0001) %MON dynstat_uvel_sd              =   1.2982660838987E-02
(PID.TID 0000.0001) %MON dynstat_uvel_del2            =   8.4584756317178E-05
(PID.TID 0000.0001) %MON dynstat_vvel_max             =   2.7243428806326E-01
(PID.TID 0000.0001) %MON dynstat_vvel_min             =  -4.1403315997054E-01
(PID.TID 0000.0001) %MON dynstat_vvel_mean            =   2.5254812917336E-04
(PID.TID 0000.0001) %MON dynstat_vvel_sd              =   1.3697227808423E-02
(PID.TID 0000.0001) %MON dynstat_vvel_del2            =   8.7582398315291E-05
(PID.TID 0000.0001) %MON dynstat_wvel_max             =   1.2019723745348E-04
(PID.TID 0000.0001) %MON dynstat_wvel_min             =  -1.9136458493184E-04
(PID.TID 0000.0001) %MON dynstat_wvel_mean            =  -7.9081882471171E-08
(PID.TID 0000.0001) %MON dynstat_wvel_sd              =   7.6725268026408E-06
(PID.TID 0000.0001) %MON dynstat_wvel_del2            =   6.7935064068298E-08
(PID.TID 0000.0001) %MON dynstat_theta_max            =   3.0923913795725E+01
(PID.TID 0000.0001) %MON dynstat_theta_min            =  -3.0132910126011E+00
(PID.TID 0000.0001) %MON dynstat_theta_mean           =   3.9091992162346E+00
(PID.TID 0000.0001) %MON dynstat_theta_sd             =   4.5716271825214E+00
(PID.TID 0000.0001) %MON dynstat_theta_del2           =   2.6389652101815E-03
(PID.TID 0000.0001) %MON dynstat_salt_max             =   4.1346804194476E+01
(PID.TID 0000.0001) %MON dynstat_salt_min             =   1.8519194093134E+01
(PID.TID 0000.0001) %MON dynstat_salt_mean            =   3.4771901568430E+01
(PID.TID 0000.0001) %MON dynstat_salt_sd              =   5.3222912300924E-01
(PID.TID 0000.0001) %MON dynstat_salt_del2            =   1.1255633132184E-03
(PID.TID 0000.0001) %MON dynstat_sst_max              =   3.0923913795725E+01
(PID.TID 0000.0001) %MON dynstat_sst_min              =  -1.8989246230492E+00
(PID.TID 0000.0001) %MON dynstat_sst_mean             =   1.8109049377009E+01
(PID.TID 0000.0001) %MON dynstat_sst_sd               =   9.8135465158369E+00
(PID.TID 0000.0001) %MON dynstat_sst_del2             =   1.4979618875607E-02
(PID.TID 0000.0001) %MON dynstat_sss_max              =   4.1346804194476E+01
(PID.TID 0000.0001) %MON dynstat_sss_min              =   1.8752403528123E+01
(PID.TID 0000.0001) %MON dynstat_sss_mean             =   3.4620603686394E+01
(PID.TID 0000.0001) %MON dynstat_sss_sd               =   1.4895163440828E+00
(PID.TID 0000.0001) %MON dynstat_sss_del2             =   1.2745798500995E-02
(PID.TID 0000.0001) %MON forcing_qnet_max             =   1.5279453125000E+03
(PID.TID 0000.0001) %MON forcing_qnet_min             =  -2.3196289419637E+03
(PID.TID 0000.0001) %MON forcing_qnet_mean            =  -3.3202865039932E+01
(PID.TID 0000.0001) %MON forcing_qnet_sd              =   2.0194376084063E+02
(PID.TID 0000.0001) %MON forcing_qnet_del2            =   3.8560156079670E+00
(PID.TID 0000.0001) %MON forcing_qsw_max              =   0.0000000000000E+00
(PID.TID 0000.0001) %MON forcing_qsw_min              =  -1.0420787926497E+02
(PID.TID 0000.0001) %MON forcing_qsw_mean             =  -1.8546658501721E+01
(PID.TID 0000.0001) %MON forcing_qsw_sd               =   2.7835637679829E+01
(PID.TID 0000.0001) %MON forcing_qsw_del2             =   2.3622631714473E-01
(PID.TID 0000.0001) %MON forcing_empmr_max            =   4.8437267541885E-03
(PID.TID 0000.0001) %MON forcing_empmr_min            =  -6.9634944200516E-02
(PID.TID 0000.0001) %MON forcing_empmr_mean           =  -2.1376012121883E-04
(PID.TID 0000.0001) %MON forcing_empmr_sd             =   3.0699118153607E-03
(PID.TID 0000.0001) %MON forcing_empmr_del2           =   1.2096008201311E-04
(PID.TID 0000.0001) %MON forcing_fu_max               =   2.6659013778254E-01
(PID.TID 0000.0001) %MON forcing_fu_min               =  -3.4269314774473E-01
(PID.TID 0000.0001) %MON forcing_fu_mean              =  -4.1533280650782E-03
(PID.TID 0000.0001) %MON forcing_fu_sd                =   5.8896520624652E-02
(PID.TID 0000.0001) %MON forcing_fu_del2              =   5.8134446839525E-04
(PID.TID 0000.0001) %MON forcing_fv_max               =   2.8067013213552E-01
(PID.TID 0000.0001) %MON forcing_fv_min               =  -2.4912696226364E-01
(PID.TID 0000.0001) %MON forcing_fv_mean              =  -1.4853186062448E-02
(PID.TID 0000.0001) %MON forcing_fv_sd                =   6.0833228658141E-02
(PID.TID 0000.0001) %MON forcing_fv_del2              =   5.1684663854388E-04
(PID.TID 0000.0001) %MON trAdv_CFL_u_max              =   2.0003992644496E-03
(PID.TID 0000.0001) %MON trAdv_CFL_v_max              =   1.3526893545211E-03
(PID.TID 0000.0001) %MON trAdv_CFL_w_max              =   1.2317763323664E-03
(PID.TID 0000.0001) %MON advcfl_uvel_max              =   1.9972518911776E-03
(PID.TID 0000.0001) %MON advcfl_vvel_max              =   1.3511412279610E-03
(PID.TID 0000.0001) %MON advcfl_wvel_max              =   2.4220850156701E-03
(PID.TID 0000.0001) %MON advcfl_W_hf_max              =   1.3192676542783E-03
(PID.TID 0000.0001) %MON pe_b_mean                    =   4.9953756097836E-04
(PID.TID 0000.0001) %MON ke_max                       =   1.8601964019066E-01
(PID.TID 0000.0001) %MON ke_mean                      =   1.6457628012508E-04
(PID.TID 0000.0001) %MON ke_vol                       =   1.3398145651777E+18
(PID.TID 0000.0001) %MON vort_r_min                   =  -2.2284085453888E-06
(PID.TID 0000.0001) %MON vort_r_max                   =   2.7062055514791E-06
(PID.TID 0000.0001) %MON vort_a_mean                  =  -2.0549865324846E-05
(PID.TID 0000.0001) %MON vort_a_sd                    =   7.5259682900382E-05
(PID.TID 0000.0001) %MON vort_p_mean                  =  -2.4783240338368E-05
(PID.TID 0000.0001) %MON vort_p_sd                    =   1.2811919330435E-04
(PID.TID 0000.0001) %MON surfExpan_theta_mean         =  -5.3151295547257E-06
(PID.TID 0000.0001) %MON surfExpan_salt_mean          =   1.0793772247564E-06
(PID.TID 0000.0001) // =======================================================
(PID.TID 0000.0001) // End MONITOR dynamic field statistics
(PID.TID 0000.0001) // =======================================================
 cg2d: Sum(rhs),rhsMax =  -7.99980211225053E+01  3.62288316721249E+01
(PID.TID 0000.0001)      cg2d_init_res =   1.92091819570644E-01
(PID.TID 0000.0001)      cg2d_iters(min,last) =      -1      10
(PID.TID 0000.0001)      cg2d_last_res =   5.15675058843954E-08
(PID.TID 0000.0001) // =======================================================
(PID.TID 0000.0001) // Begin MONITOR dynamic field statistics
(PID.TID 0000.0001) // =======================================================
(PID.TID 0000.0001) %MON time_tsnumber                =                 72082
(PID.TID 0000.0001) %MON time_secondsf                =   6.4873800000000E+07
(PID.TID 0000.0001) %MON dynstat_eta_max              =   1.2292099548766E+00
(PID.TID 0000.0001) %MON dynstat_eta_min              =  -1.5596162574670E+00
(PID.TID 0000.0001) %MON dynstat_eta_mean             =   3.3677104635533E-02
(PID.TID 0000.0001) %MON dynstat_eta_sd               =   6.1135642058009E-01
(PID.TID 0000.0001) %MON dynstat_eta_del2             =   1.4610089364542E-03
(PID.TID 0000.0001) %MON dynstat_uvel_max             =   4.1606015111859E-01
(PID.TID 0000.0001) %MON dynstat_uvel_min             =  -7.0039508863256E-01
(PID.TID 0000.0001) %MON dynstat_uvel_mean            =  -4.0815052847573E-04
(PID.TID 0000.0001) %MON dynstat_uvel_sd              =   1.2967858726122E-02
(PID.TID 0000.0001) %MON dynstat_uvel_del2            =   8.4614871517094E-05
(PID.TID 0000.0001) %MON dynstat_vvel_max             =   2.9324143670745E-01
(PID.TID 0000.0001) %MON dynstat_vvel_min             =  -4.2986339724748E-01
(PID.TID 0000.0001) %MON dynstat_vvel_mean            =   2.3303732859611E-04
(PID.TID 0000.0001) %MON dynstat_vvel_sd              =   1.3707320998040E-02
(PID.TID 0000.0001) %MON dynstat_vvel_del2            =   8.8143713155428E-05
(PID.TID 0000.0001) %MON dynstat_wvel_max             =   1.1696603054313E-04
(PID.TID 0000.0001) %MON dynstat_wvel_min             =  -1.9142477361757E-04
(PID.TID 0000.0001) %MON dynstat_wvel_mean            =  -7.2696606748453E-08
(PID.TID 0000.0001) %MON dynstat_wvel_sd              =   7.6574982870339E-06
(PID.TID 0000.0001) %MON dynstat_wvel_del2            =   6.7684796600536E-08
(PID.TID 0000.0001) %MON dynstat_theta_max            =   3.0923725190145E+01
(PID.TID 0000.0001) %MON dynstat_theta_min            =  -3.0138281423504E+00
(PID.TID 0000.0001) %MON dynstat_theta_mean           =   3.9092023413069E+00
(PID.TID 0000.0001) %MON dynstat_theta_sd             =   4.5716392181697E+00
(PID.TID 0000.0001) %MON dynstat_theta_del2           =   2.6388624035147E-03
(PID.TID 0000.0001) %MON dynstat_salt_max             =   4.1346768880373E+01
(PID.TID 0000.0001) %MON dynstat_salt_min             =   1.8519204123119E+01
(PID.TID 0000.0001) %MON dynstat_salt_mean            =   3.4771899945205E+01
(PID.TID 0000.0001) %MON dynstat_salt_sd              =   5.3223991044907E-01
(PID.TID 0000.0001) %MON dynstat_salt_del2            =   1.1278733103358E-03
(PID.TID 0000.0001) %MON dynstat_sst_max              =   3.0923725190145E+01
(PID.TID 0000.0001) %MON dynstat_sst_min              =  -1.8988150519319E+00
(PID.TID 0000.0001) %MON dynstat_sst_mean             =   1.8109182843780E+01
(PID.TID 0000.0001) %MON dynstat_sst_sd               =   9.8136974694451E+00
(PID.TID 0000.0001) %MON dynstat_sst_del2             =   1.4977906681903E-02
(PID.TID 0000.0001) %MON dynstat_sss_max              =   4.1346768880373E+01
(PID.TID 0000.0001) %MON dynstat_sss_min              =   1.8752418667662E+01
(PID.TID 0000.0001) %MON dynstat_sss_mean             =   3.4620479088811E+01
(PID.TID 0000.0001) %MON dynstat_sss_sd               =   1.4897886695078E+00
(PID.TID 0000.0001) %MON dynstat_sss_del2             =   1.2778046494442E-02
(PID.TID 0000.0001) %MON forcing_qnet_max             =   1.5109918212891E+03
(PID.TID 0000.0001) %MON forcing_qnet_min             =  -2.5766429595757E+03
(PID.TID 0000.0001) %MON forcing_qnet_mean            =  -3.4174328518475E+01
(PID.TID 0000.0001) %MON forcing_qnet_sd              =   2.0052612589838E+02
(PID.TID 0000.0001) %MON forcing_qnet_del2            =   3.8738620154893E+00
(PID.TID 0000.0001) %MON forcing_qsw_max              =   0.0000000000000E+00
(PID.TID 0000.0001) %MON forcing_qsw_min              =  -1.0431626036323E+02
(PID.TID 0000.0001) %MON forcing_qsw_mean             =  -1.8723580640446E+01
(PID.TID 0000.0001) %MON forcing_qsw_sd               =   2.7931231654802E+01
(PID.TID 0000.0001) %MON forcing_qsw_del2             =   2.3528663960193E-01
(PID.TID 0000.0001) %MON forcing_empmr_max            =   4.7938362695277E-03
(PID.TID 0000.0001) %MON forcing_empmr_min            =  -6.8917527794838E-02
(PID.TID 0000.0001) %MON forcing_empmr_mean           =  -2.1236770529072E-04
(PID.TID 0000.0001) %MON forcing_empmr_sd             =   3.0384028694882E-03
(PID.TID 0000.0001) %MON forcing_empmr_del2           =   1.1970406553647E-04
(PID.TID 0000.0001) %MON forcing_fu_max               =   2.6799036209194E-01
(PID.TID 0000.0001) %MON forcing_fu_min               =  -3.4067282070610E-01
(PID.TID 0000.0001) %MON forcing_fu_mean              =  -4.1915398445807E-03
(PID.TID 0000.0001) %MON forcing_fu_sd                =   5.8656238005270E-02
(PID.TID 0000.0001) %MON forcing_fu_del2              =   5.7906607222799E-04
(PID.TID 0000.0001) %MON forcing_fv_max               =   2.7723204370256E-01
(PID.TID 0000.0001) %MON forcing_fv_min               =  -2.5022696804420E-01
(PID.TID 0000.0001) %MON forcing_fv_mean              =  -1.4891332406674E-02
(PID.TID 0000.0001) %MON forcing_fv_sd                =   6.0659912551667E-02
(PID.TID 0000.0001) %MON forcing_fv_del2              =   5.1389772398713E-04
(PID.TID 0000.0001) %MON trAdv_CFL_u_max              =   2.0248638106425E-03
(PID.TID 0000.0001) %MON trAdv_CFL_v_max              =   1.4077508295166E-03
(PID.TID 0000.0001) %MON trAdv_CFL_w_max              =   1.1737033628897E-03
(PID.TID 0000.0001) %MON advcfl_uvel_max              =   2.0205277954005E-03
(PID.TID 0000.0001) %MON advcfl_vvel_max              =   1.4028010665951E-03
(PID.TID 0000.0001) %MON advcfl_wvel_max              =   2.3971314015596E-03
(PID.TID 0000.0001) %MON advcfl_W_hf_max              =   1.3160212260842E-03
(PID.TID 0000.0001) %MON pe_b_mean                    =   4.9941930813347E-04
(PID.TID 0000.0001) %MON ke_max                       =   1.7935681631826E-01
(PID.TID 0000.0001) %MON ke_mean                      =   1.6452895460764E-04
(PID.TID 0000.0001) %MON ke_vol                       =   1.3398146328164E+18
(PID.TID 0000.0001) %MON vort_r_min                   =  -2.2543783412373E-06
(PID.TID 0000.0001) %MON vort_r_max                   =   2.7394349806987E-06
(PID.TID 0000.0001) %MON vort_a_mean                  =  -2.0549865324846E-05
(PID.TID 0000.0001) %MON vort_a_sd                    =   7.5259678557546E-05
(PID.TID 0000.0001) %MON vort_p_mean                  =  -2.4783239039585E-05
(PID.TID 0000.0001) %MON vort_p_sd                    =   1.2811919456665E-04
(PID.TID 0000.0001) %MON surfExpan_theta_mean         =  -5.2006098460921E-06
(PID.TID 0000.0001) %MON surfExpan_salt_mean          =   1.0605392286256E-06
(PID.TID 0000.0001) // =======================================================
(PID.TID 0000.0001) // End MONITOR dynamic field statistics
(PID.TID 0000.0001) // =======================================================
 cg2d: Sum(rhs),rhsMax =  -8.04266232861899E+01  3.62309173351118E+01
(PID.TID 0000.0001)      cg2d_init_res =   1.93462612083398E-01
(PID.TID 0000.0001)      cg2d_iters(min,last) =      -1      10
(PID.TID 0000.0001)      cg2d_last_res =   4.40646668168188E-08
(PID.TID 0000.0001) // =======================================================
(PID.TID 0000.0001) // Begin MONITOR dynamic field statistics
(PID.TID 0000.0001) // =======================================================
(PID.TID 0000.0001) %MON time_tsnumber                =                 72083
(PID.TID 0000.0001) %MON time_secondsf                =   6.4874700000000E+07
(PID.TID 0000.0001) %MON dynstat_eta_max              =   1.1889700376421E+00
(PID.TID 0000.0001) %MON dynstat_eta_min              =  -1.5584909647424E+00
(PID.TID 0000.0001) %MON dynstat_eta_mean             =   3.3859484247036E-02
(PID.TID 0000.0001) %MON dynstat_eta_sd               =   6.1127141521382E-01
(PID.TID 0000.0001) %MON dynstat_eta_del2             =   1.4137414613656E-03
(PID.TID 0000.0001) %MON dynstat_uvel_max             =   4.2177652227943E-01
(PID.TID 0000.0001) %MON dynstat_uvel_min             =  -7.0651002159258E-01
(PID.TID 0000.0001) %MON dynstat_uvel_mean            =  -4.2194361016356E-04
(PID.TID 0000.0001) %MON dynstat_uvel_sd              =   1.2953911570002E-02
(PID.TID 0000.0001) %MON dynstat_uvel_del2            =   8.4701300776622E-05
(PID.TID 0000.0001) %MON dynstat_vvel_max             =   3.0992585858076E-01
(PID.TID 0000.0001) %MON dynstat_vvel_min             =  -4.3876941279145E-01
(PID.TID 0000.0001) %MON dynstat_vvel_mean            =   2.1474473471633E-04
(PID.TID 0000.0001) %MON dynstat_vvel_sd              =   1.3715442003980E-02
(PID.TID 0000.0001) %MON dynstat_vvel_del2            =   8.8527689996920E-05
(PID.TID 0000.0001) %MON dynstat_wvel_max             =   1.1277420922818E-04
(PID.TID 0000.0001) %MON dynstat_wvel_min             =  -1.9149852208149E-04
(PID.TID 0000.0001) %MON dynstat_wvel_mean            =  -6.6332578802137E-08
(PID.TID 0000.0001) %MON dynstat_wvel_sd              =   7.6426502681007E-06
(PID.TID 0000.0001) %MON dynstat_wvel_del2            =   6.7407397337259E-08
(PID.TID 0000.0001) %MON dynstat_theta_max            =   3.0923529743011E+01
(PID.TID 0000.0001) %MON dynstat_theta_min            =  -3.0143778282228E+00
(PID.TID 0000.0001) %MON dynstat_theta_mean           =   3.9092054499222E+00
(PID.TID 0000.0001) %MON dynstat_theta_sd             =   4.5716512510302E+00
(PID.TID 0000.0001) %MON dynstat_theta_del2           =   2.6387587439159E-03
(PID.TID 0000.0001) %MON dynstat_salt_max             =   4.1346735605272E+01
(PID.TID 0000.0001) %MON dynstat_salt_min             =   1.8519214159901E+01
(PID.TID 0000.0001) %MON dynstat_salt_mean            =   3.4771898340386E+01
(PID.TID 0000.0001) %MON dynstat_salt_sd              =   5.3225053249965E-01
(PID.TID 0000.0001) %MON dynstat_salt_del2            =   1.1301329348527E-03
(PID.TID 0000.0001) %MON dynstat_sst_max              =   3.0923529743011E+01
(PID.TID 0000.0001) %MON dynstat_sst_min              =  -1.8986964484518E+00
(PID.TID 0000.0001) %MON dynstat_sst_mean             =   1.8109316735332E+01
(PID.TID 0000.0001) %MON dynstat_sst_sd               =   9.8138494391025E+00
(PID.TID 0000.0001) %MON dynstat_sst_del2             =   1.4976178042359E-02
(PID.TID 0000.0001) %MON dynstat_sss_max              =   4.1346735605272E+01
(PID.TID 0000.0001) %MON dynstat_sss_min              =   1.8752433680692E+01
(PID.TID 0000.0001) %MON dynstat_sss_mean             =   3.4620356002578E+01
(PID.TID 0000.0001) %MON dynstat_sss_sd               =   1.4900560708595E+00
(PID.TID 0000.0001) %MON dynstat_sss_del2             =   1.2809578823797E-02
(PID.TID 0000.0001) %MON forcing_qnet_max             =   1.4933624267578E+03
(PID.TID 0000.0001) %MON forcing_qnet_min             =  -8.7899508770689E+02
(PID.TID 0000.0001) %MON forcing_qnet_mean            =  -3.4215495093151E+01
(PID.TID 0000.0001) %MON forcing_qnet_sd              =   1.9448838659453E+02
(PID.TID 0000.0001) %MON forcing_qnet_del2            =   3.2265187786457E+00
(PID.TID 0000.0001) %MON forcing_qsw_max              =   0.0000000000000E+00
(PID.TID 0000.0001) %MON forcing_qsw_min              =  -1.0399373701051E+02
(PID.TID 0000.0001) %MON forcing_qsw_mean             =  -1.8852518729797E+01
(PID.TID 0000.0001) %MON forcing_qsw_sd               =   2.8006083036120E+01
(PID.TID 0000.0001) %MON forcing_qsw_del2             =   2.3409538060393E-01
(PID.TID 0000.0001) %MON forcing_empmr_max            =   4.7444375231862E-03
(PID.TID 0000.0001) %MON forcing_empmr_min            =  -6.8208500742912E-02
(PID.TID 0000.0001) %MON forcing_empmr_mean           =  -2.0973655322795E-04
(PID.TID 0000.0001) %MON forcing_empmr_sd             =   3.0075825193990E-03
(PID.TID 0000.0001) %MON forcing_empmr_del2           =   1.1845830850824E-04
(PID.TID 0000.0001) %MON forcing_fu_max               =   2.7388695496318E-01
(PID.TID 0000.0001) %MON forcing_fu_min               =  -3.4125584714993E-01
(PID.TID 0000.0001) %MON forcing_fu_mean              =  -4.2860147255113E-03
(PID.TID 0000.0001) %MON forcing_fu_sd                =   5.8431971361403E-02
(PID.TID 0000.0001) %MON forcing_fu_del2              =   5.7701904568566E-04
(PID.TID 0000.0001) %MON forcing_fv_max               =   2.7296268707979E-01
(PID.TID 0000.0001) %MON forcing_fv_min               =  -2.5086116870277E-01
(PID.TID 0000.0001) %MON forcing_fv_mean              =  -1.4911865673838E-02
(PID.TID 0000.0001) %MON forcing_fv_sd                =   6.0559509750165E-02
(PID.TID 0000.0001) %MON forcing_fv_del2              =   5.1201284075905E-04
(PID.TID 0000.0001) %MON trAdv_CFL_u_max              =   2.0437802919941E-03
(PID.TID 0000.0001) %MON trAdv_CFL_v_max              =   1.4387873785945E-03
(PID.TID 0000.0001) %MON trAdv_CFL_w_max              =   1.1776713908491E-03
(PID.TID 0000.0001) %MON advcfl_uvel_max              =   2.0381683988445E-03
(PID.TID 0000.0001) %MON advcfl_vvel_max              =   1.4318646439646E-03
(PID.TID 0000.0001) %MON advcfl_wvel_max              =   2.3724695910578E-03
(PID.TID 0000.0001) %MON advcfl_W_hf_max              =   1.3096015071441E-03
(PID.TID 0000.0001) %MON pe_b_mean                    =   4.9929723924849E-04
(PID.TID 0000.0001) %MON ke_max                       =   1.7262898619205E-01
(PID.TID 0000.0001) %MON ke_mean                      =   1.6446766665731E-04
(PID.TID 0000.0001) %MON ke_vol                       =   1.3398147000145E+18
(PID.TID 0000.0001) %MON vort_r_min                   =  -2.2740606214916E-06
(PID.TID 0000.0001) %MON vort_r_max                   =   2.7630309476532E-06
(PID.TID 0000.0001) %MON vort_a_mean                  =  -2.0549865324846E-05
(PID.TID 0000.0001) %MON vort_a_sd                    =   7.5259674488499E-05
(PID.TID 0000.0001) %MON vort_p_mean                  =  -2.4783237763320E-05
(PID.TID 0000.0001) %MON vort_p_sd                    =   1.2811919697515E-04
(PID.TID 0000.0001) %MON surfExpan_theta_mean         =  -5.0601555924627E-06
(PID.TID 0000.0001) %MON surfExpan_salt_mean          =   1.0407652288395E-06
(PID.TID 0000.0001) // =======================================================
(PID.TID 0000.0001) // End MONITOR dynamic field statistics
(PID.TID 0000.0001) // =======================================================
 Computing Diagnostic #     81  oceTAUX      Counter:       1   Parms: UU      U1      
           Vector  Mate for  oceTAUX      Diagnostic #     82  oceTAUY  exists 
 Computing Diagnostic #     82  oceTAUY      Counter:       1   Parms: VV      U1      
           Vector  Mate for  oceTAUY      Diagnostic #     81  oceTAUX  exists 
 Computing Diagnostic #     85  oceFWflx     Counter:       1   Parms: SM      U1      
 Computing Diagnostic #     86  oceSflux     Counter:       1   Parms: SM      U1      
 Computing Diagnostic #     87  oceQnet      Counter:       1   Parms: SM      U1      
 Computing Diagnostic #     88  oceQsw       Counter:       1   Parms: SM      U1      
 Computing Diagnostic #     27  SALT         Counter:       1   Parms: SMR     MR      
 Computing Diagnostic #     26  THETA        Counter:       1   Parms: SMR     MR      
 Computing Diagnostic #     45  UVELMASS     Counter:       1   Parms: UUr     MR      
           Vector  Mate for  UVELMASS     Diagnostic #     46  VVELMASS exists 
 Computing Diagnostic #     46  VVELMASS     Counter:       1   Parms: VVr     MR      
           Vector  Mate for  VVELMASS     Diagnostic #     45  UVELMASS exists 
 Computing Diagnostic #     83  atmPload     Counter:       1   Parms: SM      U1      
 cg2d: Sum(rhs),rhsMax =  -8.08567043555171E+01  3.62305812988765E+01
(PID.TID 0000.0001)      cg2d_init_res =   1.94249252681853E-01
(PID.TID 0000.0001)      cg2d_iters(min,last) =      -1      10
(PID.TID 0000.0001)      cg2d_last_res =   4.06613767865029E-08
(PID.TID 0000.0001) // =======================================================
(PID.TID 0000.0001) // Begin MONITOR dynamic field statistics
(PID.TID 0000.0001) // =======================================================
(PID.TID 0000.0001) %MON time_tsnumber                =                 72084
(PID.TID 0000.0001) %MON time_secondsf                =   6.4875600000000E+07
(PID.TID 0000.0001) %MON dynstat_eta_max              =   1.1422457753368E+00
(PID.TID 0000.0001) %MON dynstat_eta_min              =  -1.5573544990679E+00
(PID.TID 0000.0001) %MON dynstat_eta_mean             =   3.4040231992405E-02
(PID.TID 0000.0001) %MON dynstat_eta_sd               =   6.1118481769320E-01
(PID.TID 0000.0001) %MON dynstat_eta_del2             =   1.3706960604420E-03
(PID.TID 0000.0001) %MON dynstat_uvel_max             =   4.2394060191289E-01
(PID.TID 0000.0001) %MON dynstat_uvel_min             =  -7.1056508068031E-01
(PID.TID 0000.0001) %MON dynstat_uvel_mean            =  -4.3525429197137E-04
(PID.TID 0000.0001) %MON dynstat_uvel_sd              =   1.2940786416736E-02
(PID.TID 0000.0001) %MON dynstat_uvel_del2            =   8.4826731253211E-05
(PID.TID 0000.0001) %MON dynstat_vvel_max             =   3.2236955405029E-01
(PID.TID 0000.0001) %MON dynstat_vvel_min             =  -4.4085164849586E-01
(PID.TID 0000.0001) %MON dynstat_vvel_mean            =   1.9788359057206E-04
(PID.TID 0000.0001) %MON dynstat_vvel_sd              =   1.3721305747601E-02
(PID.TID 0000.0001) %MON dynstat_vvel_del2            =   8.8711266395692E-05
(PID.TID 0000.0001) %MON dynstat_wvel_max             =   1.0770010313388E-04
(PID.TID 0000.0001) %MON dynstat_wvel_min             =  -1.9158207548206E-04
(PID.TID 0000.0001) %MON dynstat_wvel_mean            =  -6.1452982831568E-08
(PID.TID 0000.0001) %MON dynstat_wvel_sd              =   7.6281404175654E-06
(PID.TID 0000.0001) %MON dynstat_wvel_del2            =   6.7107976412824E-08
(PID.TID 0000.0001) %MON dynstat_theta_max            =   3.0923326205151E+01
(PID.TID 0000.0001) %MON dynstat_theta_min            =  -3.0149392228761E+00
(PID.TID 0000.0001) %MON dynstat_theta_mean           =   3.9092085599743E+00
(PID.TID 0000.0001) %MON dynstat_theta_sd             =   4.5716633619764E+00
(PID.TID 0000.0001) %MON dynstat_theta_del2           =   2.6386531170351E-03
(PID.TID 0000.0001) %MON dynstat_salt_max             =   4.1346705435660E+01
(PID.TID 0000.0001) %MON dynstat_salt_min             =   1.8519224204896E+01
(PID.TID 0000.0001) %MON dynstat_salt_mean            =   3.4771896755993E+01
(PID.TID 0000.0001) %MON dynstat_salt_sd              =   5.3226100600211E-01
(PID.TID 0000.0001) %MON dynstat_salt_del2            =   1.1323424106350E-03
(PID.TID 0000.0001) %MON dynstat_sst_max              =   3.0923326205151E+01
(PID.TID 0000.0001) %MON dynstat_sst_min              =  -1.8985705234712E+00
(PID.TID 0000.0001) %MON dynstat_sst_mean             =   1.8109451897117E+01
(PID.TID 0000.0001) %MON dynstat_sst_sd               =   9.8140036355048E+00
(PID.TID 0000.0001) %MON dynstat_sst_del2             =   1.4974382041990E-02
(PID.TID 0000.0001) %MON dynstat_sss_max              =   4.1346705435660E+01
(PID.TID 0000.0001) %MON dynstat_sss_min              =   1.8752448496507E+01
(PID.TID 0000.0001) %MON dynstat_sss_mean             =   3.4620234666971E+01
(PID.TID 0000.0001) %MON dynstat_sss_sd               =   1.4903190291246E+00
(PID.TID 0000.0001) %MON dynstat_sss_del2             =   1.2840399895401E-02
(PID.TID 0000.0001) %MON forcing_qnet_max             =   1.4768166503906E+03
(PID.TID 0000.0001) %MON forcing_qnet_min             =  -8.6914828522961E+02
(PID.TID 0000.0001) %MON forcing_qnet_mean            =  -3.4379186026198E+01
(PID.TID 0000.0001) %MON forcing_qnet_sd              =   1.9300688223698E+02
(PID.TID 0000.0001) %MON forcing_qnet_del2            =   3.1943997792260E+00
(PID.TID 0000.0001) %MON forcing_qsw_max              =   0.0000000000000E+00
(PID.TID 0000.0001) %MON forcing_qsw_min              =  -1.0412664861425E+02
(PID.TID 0000.0001) %MON forcing_qsw_mean             =  -1.8935423780366E+01
(PID.TID 0000.0001) %MON forcing_qsw_sd               =   2.8057249818208E+01
(PID.TID 0000.0001) %MON forcing_qsw_del2             =   2.3266338571132E-01
(PID.TID 0000.0001) %MON forcing_empmr_max            =   4.6955309808254E-03
(PID.TID 0000.0001) %MON forcing_empmr_min            =  -6.7506186664104E-02
(PID.TID 0000.0001) %MON forcing_empmr_mean           =  -2.0785990717492E-04
(PID.TID 0000.0001) %MON forcing_empmr_sd             =   2.9767098210888E-03
(PID.TID 0000.0001) %MON forcing_empmr_del2           =   1.1722094455588E-04
(PID.TID 0000.0001) %MON forcing_fu_max               =   2.7282114629899E-01
(PID.TID 0000.0001) %MON forcing_fu_min               =  -3.4068843762392E-01
(PID.TID 0000.0001) %MON forcing_fu_mean              =  -4.3723418041032E-03
(PID.TID 0000.0001) %MON forcing_fu_sd                =   5.8113096508898E-02
(PID.TID 0000.0001) %MON forcing_fu_del2              =   5.7456871160973E-04
(PID.TID 0000.0001) %MON forcing_fv_max               =   2.7172804562834E-01
(PID.TID 0000.0001) %MON forcing_fv_min               =  -2.5286309568397E-01
(PID.TID 0000.0001) %MON forcing_fv_mean              =  -1.4935565721018E-02
(PID.TID 0000.0001) %MON forcing_fv_sd                =   6.0470476026589E-02
(PID.TID 0000.0001) %MON forcing_fv_del2              =   5.1012409537869E-04
(PID.TID 0000.0001) %MON trAdv_CFL_u_max              =   2.0568282739051E-03
(PID.TID 0000.0001) %MON trAdv_CFL_v_max              =   1.4462446279658E-03
(PID.TID 0000.0001) %MON trAdv_CFL_w_max              =   1.1814568337659E-03
(PID.TID 0000.0001) %MON advcfl_uvel_max              =   2.0498665956647E-03
(PID.TID 0000.0001) %MON advcfl_vvel_max              =   1.4386597386057E-03
(PID.TID 0000.0001) %MON advcfl_wvel_max              =   2.3480412752732E-03
(PID.TID 0000.0001) %MON advcfl_W_hf_max              =   1.3003308755098E-03
(PID.TID 0000.0001) %MON pe_b_mean                    =   4.9917253787594E-04
(PID.TID 0000.0001) %MON ke_max                       =   1.7355532231989E-01
(PID.TID 0000.0001) %MON ke_mean                      =   1.6438820417013E-04
(PID.TID 0000.0001) %MON ke_vol                       =   1.3398147663800E+18
(PID.TID 0000.0001) %MON vort_r_min                   =  -2.2871127366879E-06
(PID.TID 0000.0001) %MON vort_r_max                   =   2.7767839629721E-06
(PID.TID 0000.0001) %MON vort_a_mean                  =  -2.0549865324846E-05
(PID.TID 0000.0001) %MON vort_a_sd                    =   7.5259670736425E-05
(PID.TID 0000.0001) %MON vort_p_mean                  =  -2.4783236516757E-05
(PID.TID 0000.0001) %MON vort_p_sd                    =   1.2811920045142E-04
(PID.TID 0000.0001) %MON surfExpan_theta_mean         =  -4.9350851349744E-06
(PID.TID 0000.0001) %MON surfExpan_salt_mean          =   1.0202833502731E-06
(PID.TID 0000.0001) // =======================================================
(PID.TID 0000.0001) // End MONITOR dynamic field statistics
(PID.TID 0000.0001) // =======================================================
 cg2d: Sum(rhs),rhsMax =  -8.12843802653122E+01  3.62284643309226E+01
(PID.TID 0000.0001)      cg2d_init_res =   1.94383592294722E-01
(PID.TID 0000.0001)      cg2d_iters(min,last) =      -1      10
(PID.TID 0000.0001)      cg2d_last_res =   3.87119039046964E-08
(PID.TID 0000.0001) // =======================================================
(PID.TID 0000.0001) // Begin MONITOR dynamic field statistics
(PID.TID 0000.0001) // =======================================================
(PID.TID 0000.0001) %MON time_tsnumber                =                 72085
(PID.TID 0000.0001) %MON time_secondsf                =   6.4876500000000E+07
(PID.TID 0000.0001) %MON dynstat_eta_max              =   1.0893571237391E+00
(PID.TID 0000.0001) %MON dynstat_eta_min              =  -1.5564353756575E+00
(PID.TID 0000.0001) %MON dynstat_eta_mean             =   3.4218281714989E-02
(PID.TID 0000.0001) %MON dynstat_eta_sd               =   6.1109693851197E-01
(PID.TID 0000.0001) %MON dynstat_eta_del2             =   1.3338377487053E-03
(PID.TID 0000.0001) %MON dynstat_uvel_max             =   4.2268519760689E-01
(PID.TID 0000.0001) %MON dynstat_uvel_min             =  -7.1249431087701E-01
(PID.TID 0000.0001) %MON dynstat_uvel_mean            =  -4.4793744091580E-04
(PID.TID 0000.0001) %MON dynstat_uvel_sd              =   1.2928578439561E-02
(PID.TID 0000.0001) %MON dynstat_uvel_del2            =   8.4974330819977E-05
(PID.TID 0000.0001) %MON dynstat_vvel_max             =   3.3052725696131E-01
(PID.TID 0000.0001) %MON dynstat_vvel_min             =  -4.3630546438348E-01
(PID.TID 0000.0001) %MON dynstat_vvel_mean            =   1.8265755561818E-04
(PID.TID 0000.0001) %MON dynstat_vvel_sd              =   1.3724682582450E-02
(PID.TID 0000.0001) %MON dynstat_vvel_del2            =   8.8690509514461E-05
(PID.TID 0000.0001) %MON dynstat_wvel_max             =   1.0484971573262E-04
(PID.TID 0000.0001) %MON dynstat_wvel_min             =  -1.9167907279624E-04
(PID.TID 0000.0001) %MON dynstat_wvel_mean            =  -5.6483036050362E-08
(PID.TID 0000.0001) %MON dynstat_wvel_sd              =   7.6151299794688E-06
(PID.TID 0000.0001) %MON dynstat_wvel_del2            =   6.6792325321026E-08
(PID.TID 0000.0001) %MON dynstat_theta_max            =   3.0923114439735E+01
(PID.TID 0000.0001) %MON dynstat_theta_min            =  -3.0155118122161E+00
(PID.TID 0000.0001) %MON dynstat_theta_mean           =   3.9092117889753E+00
(PID.TID 0000.0001) %MON dynstat_theta_sd             =   4.5716760954696E+00
(PID.TID 0000.0001) %MON dynstat_theta_del2           =   2.6385437796027E-03
(PID.TID 0000.0001) %MON dynstat_salt_max             =   4.1346679402992E+01
(PID.TID 0000.0001) %MON dynstat_salt_min             =   1.8519234259121E+01
(PID.TID 0000.0001) %MON dynstat_salt_mean            =   3.4771895201602E+01
(PID.TID 0000.0001) %MON dynstat_salt_sd              =   5.3227131649906E-01
(PID.TID 0000.0001) %MON dynstat_salt_del2            =   1.1345023943933E-03
(PID.TID 0000.0001) %MON dynstat_sst_max              =   3.0923114439735E+01
(PID.TID 0000.0001) %MON dynstat_sst_min              =  -1.8984401890143E+00
(PID.TID 0000.0001) %MON dynstat_sst_mean             =   1.8109597568889E+01
(PID.TID 0000.0001) %MON dynstat_sst_sd               =   9.8141655778479E+00
(PID.TID 0000.0001) %MON dynstat_sst_del2             =   1.4972515205591E-02
(PID.TID 0000.0001) %MON dynstat_sss_max              =   4.1346679402992E+01
(PID.TID 0000.0001) %MON dynstat_sss_min              =   1.8752463120185E+01
(PID.TID 0000.0001) %MON dynstat_sss_mean             =   3.4620115746682E+01
(PID.TID 0000.0001) %MON dynstat_sss_sd               =   1.4905772463802E+00
(PID.TID 0000.0001) %MON dynstat_sss_del2             =   1.2870521298508E-02
(PID.TID 0000.0001) %MON forcing_qnet_max             =   1.4604675292969E+03
(PID.TID 0000.0001) %MON forcing_qnet_min             =  -8.5919475115710E+02
(PID.TID 0000.0001) %MON forcing_qnet_mean            =  -3.6683262559862E+01
(PID.TID 0000.0001) %MON forcing_qnet_sd              =   1.9200066727491E+02
(PID.TID 0000.0001) %MON forcing_qnet_del2            =   3.2238427016049E+00
(PID.TID 0000.0001) %MON forcing_qsw_max              =   0.0000000000000E+00
(PID.TID 0000.0001) %MON forcing_qsw_min              =  -1.0760914520729E+02
(PID.TID 0000.0001) %MON forcing_qsw_mean             =  -1.9301604375344E+01
(PID.TID 0000.0001) %MON forcing_qsw_sd               =   2.8533784461536E+01
(PID.TID 0000.0001) %MON forcing_qsw_del2             =   2.3276908107437E-01
(PID.TID 0000.0001) %MON forcing_empmr_max            =   4.6472148969769E-03
(PID.TID 0000.0001) %MON forcing_empmr_min            =  -6.6810585558414E-02
(PID.TID 0000.0001) %MON forcing_empmr_mean           =  -2.0475718097066E-04
(PID.TID 0000.0001) %MON forcing_empmr_sd             =   2.9463488140758E-03
(PID.TID 0000.0001) %MON forcing_empmr_del2           =   1.1600111643148E-04
(PID.TID 0000.0001) %MON forcing_fu_max               =   2.6969944031769E-01
(PID.TID 0000.0001) %MON forcing_fu_min               =  -3.3942478081891E-01
(PID.TID 0000.0001) %MON forcing_fu_mean              =  -4.4756304831303E-03
(PID.TID 0000.0001) %MON forcing_fu_sd                =   5.7790244224767E-02
(PID.TID 0000.0001) %MON forcing_fu_del2              =   5.7217533123110E-04
(PID.TID 0000.0001) %MON forcing_fv_max               =   2.6856306527158E-01
(PID.TID 0000.0001) %MON forcing_fv_min               =  -2.5496814667027E-01
(PID.TID 0000.0001) %MON forcing_fv_mean              =  -1.4964723410190E-02
(PID.TID 0000.0001) %MON forcing_fv_sd                =   6.0344362718524E-02
(PID.TID 0000.0001) %MON forcing_fv_del2              =   5.0921319512362E-04
(PID.TID 0000.0001) %MON trAdv_CFL_u_max              =   2.0638012449056E-03
(PID.TID 0000.0001) %MON trAdv_CFL_v_max              =   1.4309420697137E-03
(PID.TID 0000.0001) %MON trAdv_CFL_w_max              =   1.2002088312384E-03
(PID.TID 0000.0001) %MON advcfl_uvel_max              =   2.0554321161823E-03
(PID.TID 0000.0001) %MON advcfl_vvel_max              =   1.4238238815343E-03
(PID.TID 0000.0001) %MON advcfl_wvel_max              =   2.3238464542057E-03
(PID.TID 0000.0001) %MON advcfl_W_hf_max              =   1.2885052886063E-03
(PID.TID 0000.0001) %MON pe_b_mean                    =   4.9904561100667E-04
(PID.TID 0000.0001) %MON ke_max                       =   1.7927165886114E-01
(PID.TID 0000.0001) %MON ke_mean                      =   1.6428859603471E-04
(PID.TID 0000.0001) %MON ke_vol                       =   1.3398148321517E+18
(PID.TID 0000.0001) %MON vort_r_min                   =  -2.2933223958379E-06
(PID.TID 0000.0001) %MON vort_r_max                   =   2.7806481462704E-06
(PID.TID 0000.0001) %MON vort_a_mean                  =  -2.0549865324846E-05
(PID.TID 0000.0001) %MON vort_a_sd                    =   7.5259667342451E-05
(PID.TID 0000.0001) %MON vort_p_mean                  =  -2.4783235292036E-05
(PID.TID 0000.0001) %MON vort_p_sd                    =   1.2811920478059E-04
(PID.TID 0000.0001) %MON surfExpan_theta_mean         =  -4.7966329220696E-06
(PID.TID 0000.0001) %MON surfExpan_salt_mean          =   9.9854190534369E-07
(PID.TID 0000.0001) // =======================================================
(PID.TID 0000.0001) // End MONITOR dynamic field statistics
(PID.TID 0000.0001) // =======================================================
 cg2d: Sum(rhs),rhsMax =  -8.17097806895614E+01  3.62257867334164E+01
(PID.TID 0000.0001)      cg2d_init_res =   1.93728537580737E-01
(PID.TID 0000.0001)      cg2d_iters(min,last) =      -1      10
(PID.TID 0000.0001)      cg2d_last_res =   3.84953027141952E-08
(PID.TID 0000.0001) // =======================================================
(PID.TID 0000.0001) // Begin MONITOR dynamic field statistics
(PID.TID 0000.0001) // =======================================================
(PID.TID 0000.0001) %MON time_tsnumber                =                 72086
(PID.TID 0000.0001) %MON time_secondsf                =   6.4877400000000E+07
(PID.TID 0000.0001) %MON dynstat_eta_max              =   1.0306949723727E+00
(PID.TID 0000.0001) %MON dynstat_eta_min              =  -1.5567032032591E+00
(PID.TID 0000.0001) %MON dynstat_eta_mean             =   3.4394820248249E-02
(PID.TID 0000.0001) %MON dynstat_eta_sd               =   6.1100636213094E-01
(PID.TID 0000.0001) %MON dynstat_eta_del2             =   1.3045703066339E-03
(PID.TID 0000.0001) %MON dynstat_uvel_max             =   4.1822662590975E-01
(PID.TID 0000.0001) %MON dynstat_uvel_min             =  -7.1223042642740E-01
(PID.TID 0000.0001) %MON dynstat_uvel_mean            =  -4.5986981004237E-04
(PID.TID 0000.0001) %MON dynstat_uvel_sd              =   1.2917186329628E-02
(PID.TID 0000.0001) %MON dynstat_uvel_del2            =   8.5127917153039E-05
(PID.TID 0000.0001) %MON dynstat_vvel_max             =   3.3442225441566E-01
(PID.TID 0000.0001) %MON dynstat_vvel_min             =  -4.2542154993799E-01
(PID.TID 0000.0001) %MON dynstat_vvel_mean            =   1.6924141165332E-04
(PID.TID 0000.0001) %MON dynstat_vvel_sd              =   1.3725576870053E-02
(PID.TID 0000.0001) %MON dynstat_vvel_del2            =   8.8479536979213E-05
(PID.TID 0000.0001) %MON dynstat_wvel_max             =   1.0506579693142E-04
(PID.TID 0000.0001) %MON dynstat_wvel_min             =  -1.9178591295977E-04
(PID.TID 0000.0001) %MON dynstat_wvel_mean            =  -5.3035743837222E-08
(PID.TID 0000.0001) %MON dynstat_wvel_sd              =   7.6043777786523E-06
(PID.TID 0000.0001) %MON dynstat_wvel_del2            =   6.6467755768251E-08
(PID.TID 0000.0001) %MON dynstat_theta_max            =   3.0922894340186E+01
(PID.TID 0000.0001) %MON dynstat_theta_min            =  -3.0160954448075E+00
(PID.TID 0000.0001) %MON dynstat_theta_mean           =   3.9092150525638E+00
(PID.TID 0000.0001) %MON dynstat_theta_sd             =   4.5716890362214E+00
(PID.TID 0000.0001) %MON dynstat_theta_del2           =   2.6384291308465E-03
(PID.TID 0000.0001) %MON dynstat_salt_max             =   4.1346658585186E+01
(PID.TID 0000.0001) %MON dynstat_salt_min             =   1.8519244323221E+01
(PID.TID 0000.0001) %MON dynstat_salt_mean            =   3.4771893667202E+01
(PID.TID 0000.0001) %MON dynstat_salt_sd              =   5.3228145474718E-01
(PID.TID 0000.0001) %MON dynstat_salt_del2            =   1.1366127663121E-03
(PID.TID 0000.0001) %MON dynstat_sst_max              =   3.0922894340186E+01
(PID.TID 0000.0001) %MON dynstat_sst_min              =  -1.8983050722915E+00
(PID.TID 0000.0001) %MON dynstat_sst_mean             =   1.8109747148669E+01
(PID.TID 0000.0001) %MON dynstat_sst_sd               =   9.8143303839724E+00
(PID.TID 0000.0001) %MON dynstat_sst_del2             =   1.4970520265838E-02
(PID.TID 0000.0001) %MON dynstat_sss_max              =   4.1346658585186E+01
(PID.TID 0000.0001) %MON dynstat_sss_min              =   1.8752477481437E+01
(PID.TID 0000.0001) %MON dynstat_sss_mean             =   3.4619998481646E+01
(PID.TID 0000.0001) %MON dynstat_sss_sd               =   1.4908303903999E+00
(PID.TID 0000.0001) %MON dynstat_sss_del2             =   1.2899941773333E-02
(PID.TID 0000.0001) %MON forcing_qnet_max             =   1.4443122558594E+03
(PID.TID 0000.0001) %MON forcing_qnet_min             =  -8.4893867383726E+02
(PID.TID 0000.0001) %MON forcing_qnet_mean            =  -3.7402071938522E+01
(PID.TID 0000.0001) %MON forcing_qnet_sd              =   1.9118649853897E+02
(PID.TID 0000.0001) %MON forcing_qnet_del2            =   3.2202909528124E+00
(PID.TID 0000.0001) %MON forcing_qsw_max              =   0.0000000000000E+00
(PID.TID 0000.0001) %MON forcing_qsw_min              =  -1.0786511749625E+02
(PID.TID 0000.0001) %MON forcing_qsw_mean             =  -1.9499631226271E+01
(PID.TID 0000.0001) %MON forcing_qsw_sd               =   2.8723348767379E+01
(PID.TID 0000.0001) %MON forcing_qsw_del2             =   2.3273194463903E-01
(PID.TID 0000.0001) %MON forcing_empmr_max            =   4.5992922969162E-03
(PID.TID 0000.0001) %MON forcing_empmr_min            =  -6.6122531890869E-02
(PID.TID 0000.0001) %MON forcing_empmr_mean           =  -2.0301931324935E-04
(PID.TID 0000.0001) %MON forcing_empmr_sd             =   2.9161344126493E-03
(PID.TID 0000.0001) %MON forcing_empmr_del2           =   1.1478695541622E-04
(PID.TID 0000.0001) %MON forcing_fu_max               =   2.6223202460939E-01
(PID.TID 0000.0001) %MON forcing_fu_min               =  -3.3854638643522E-01
(PID.TID 0000.0001) %MON forcing_fu_mean              =  -4.5453476477110E-03
(PID.TID 0000.0001) %MON forcing_fu_sd                =   5.7286729979374E-02
(PID.TID 0000.0001) %MON forcing_fu_del2              =   5.6755305717213E-04
(PID.TID 0000.0001) %MON forcing_fv_max               =   2.6322369312780E-01
(PID.TID 0000.0001) %MON forcing_fv_min               =  -2.5614461192048E-01
(PID.TID 0000.0001) %MON forcing_fv_mean              =  -1.4994534842107E-02
(PID.TID 0000.0001) %MON forcing_fv_sd                =   6.0175168397525E-02
(PID.TID 0000.0001) %MON forcing_fv_del2              =   5.0752565097289E-04
(PID.TID 0000.0001) %MON trAdv_CFL_u_max              =   2.0644860793880E-03
(PID.TID 0000.0001) %MON trAdv_CFL_v_max              =   1.3940436886058E-03
(PID.TID 0000.0001) %MON trAdv_CFL_w_max              =   1.2324448247764E-03
(PID.TID 0000.0001) %MON advcfl_uvel_max              =   2.0546708517561E-03
(PID.TID 0000.0001) %MON advcfl_vvel_max              =   1.3883056985705E-03
(PID.TID 0000.0001) %MON advcfl_wvel_max              =   2.2999141527259E-03
(PID.TID 0000.0001) %MON advcfl_W_hf_max              =   1.2744155705935E-03
(PID.TID 0000.0001) %MON pe_b_mean                    =   4.9891426020129E-04
(PID.TID 0000.0001) %MON ke_max                       =   1.8414960084551E-01
(PID.TID 0000.0001) %MON ke_mean                      =   1.6416752483983E-04
(PID.TID 0000.0001) %MON ke_vol                       =   1.3398148969417E+18
(PID.TID 0000.0001) %MON vort_r_min                   =  -2.2924730246794E-06
(PID.TID 0000.0001) %MON vort_r_max                   =   2.7746126731730E-06
(PID.TID 0000.0001) %MON vort_a_mean                  =  -2.0549865324846E-05
(PID.TID 0000.0001) %MON vort_a_sd                    =   7.5259664334600E-05
(PID.TID 0000.0001) %MON vort_p_mean                  =  -2.4783234097363E-05
(PID.TID 0000.0001) %MON vort_p_sd                    =   1.2811920973496E-04
(PID.TID 0000.0001) %MON surfExpan_theta_mean         =  -4.6741460926273E-06
(PID.TID 0000.0001) %MON surfExpan_salt_mean          =   9.7593995444110E-07
(PID.TID 0000.0001) // =======================================================
(PID.TID 0000.0001) // End MONITOR dynamic field statistics
(PID.TID 0000.0001) // =======================================================
 cg2d: Sum(rhs),rhsMax =  -8.21288852674414E+01  3.62241328809253E+01
(PID.TID 0000.0001)      cg2d_init_res =   1.92342620392531E-01
(PID.TID 0000.0001)      cg2d_iters(min,last) =      -1      10
(PID.TID 0000.0001)      cg2d_last_res =   3.94102565776441E-08
(PID.TID 0000.0001) // =======================================================
(PID.TID 0000.0001) // Begin MONITOR dynamic field statistics
(PID.TID 0000.0001) // =======================================================
(PID.TID 0000.0001) %MON time_tsnumber                =                 72087
(PID.TID 0000.0001) %MON time_secondsf                =   6.4878300000000E+07
(PID.TID 0000.0001) %MON dynstat_eta_max              =   9.8325528905341E-01
(PID.TID 0000.0001) %MON dynstat_eta_min              =  -1.5570674004342E+00
(PID.TID 0000.0001) %MON dynstat_eta_mean             =   3.4569659327146E-02
(PID.TID 0000.0001) %MON dynstat_eta_sd               =   6.1091193273926E-01
(PID.TID 0000.0001) %MON dynstat_eta_del2             =   1.2835910275207E-03
(PID.TID 0000.0001) %MON dynstat_uvel_max             =   4.1085634188101E-01
(PID.TID 0000.0001) %MON dynstat_uvel_min             =  -7.0972094281870E-01
(PID.TID 0000.0001) %MON dynstat_uvel_mean            =  -4.7100732922228E-04
(PID.TID 0000.0001) %MON dynstat_uvel_sd              =   1.2906806515972E-02
(PID.TID 0000.0001) %MON dynstat_uvel_del2            =   8.5275333561396E-05
(PID.TID 0000.0001) %MON dynstat_vvel_max             =   3.3414456234533E-01
(PID.TID 0000.0001) %MON dynstat_vvel_min             =  -4.0857472243678E-01
(PID.TID 0000.0001) %MON dynstat_vvel_mean            =   1.5780061285053E-04
(PID.TID 0000.0001) %MON dynstat_vvel_sd              =   1.3724239407144E-02
(PID.TID 0000.0001) %MON dynstat_vvel_del2            =   8.8107235463204E-05
(PID.TID 0000.0001) %MON dynstat_wvel_max             =   1.0530103215573E-04
(PID.TID 0000.0001) %MON dynstat_wvel_min             =  -1.9190246545493E-04
(PID.TID 0000.0001) %MON dynstat_wvel_mean            =  -5.0369674606386E-08
(PID.TID 0000.0001) %MON dynstat_wvel_sd              =   7.5952369713971E-06
(PID.TID 0000.0001) %MON dynstat_wvel_del2            =   6.6143258550121E-08
(PID.TID 0000.0001) %MON dynstat_theta_max            =   3.0922665781201E+01
(PID.TID 0000.0001) %MON dynstat_theta_min            =  -3.0166902729857E+00
(PID.TID 0000.0001) %MON dynstat_theta_mean           =   3.9092183348962E+00
(PID.TID 0000.0001) %MON dynstat_theta_sd             =   4.5717020965242E+00
(PID.TID 0000.0001) %MON dynstat_theta_del2           =   2.6383109048482E-03
(PID.TID 0000.0001) %MON dynstat_salt_max             =   4.1346644403379E+01
(PID.TID 0000.0001) %MON dynstat_salt_min             =   1.8519254397472E+01
(PID.TID 0000.0001) %MON dynstat_salt_mean            =   3.4771892154432E+01
(PID.TID 0000.0001) %MON dynstat_salt_sd              =   5.3229141720997E-01
(PID.TID 0000.0001) %MON dynstat_salt_del2            =   1.1386740690021E-03
(PID.TID 0000.0001) %MON dynstat_sst_max              =   3.0922665781201E+01
(PID.TID 0000.0001) %MON dynstat_sst_min              =  -1.8981693206025E+00
(PID.TID 0000.0001) %MON dynstat_sst_mean             =   1.8109899220734E+01
(PID.TID 0000.0001) %MON dynstat_sst_sd               =   9.8144964485459E+00
(PID.TID 0000.0001) %MON dynstat_sst_del2             =   1.4968431351233E-02
(PID.TID 0000.0001) %MON dynstat_sss_max              =   4.1346644403379E+01
(PID.TID 0000.0001) %MON dynstat_sss_min              =   1.8752491658574E+01
(PID.TID 0000.0001) %MON dynstat_sss_mean             =   3.4619882970342E+01
(PID.TID 0000.0001) %MON dynstat_sss_sd               =   1.4910783971524E+00
(PID.TID 0000.0001) %MON dynstat_sss_del2             =   1.2928669025645E-02
(PID.TID 0000.0001) %MON forcing_qnet_max             =   1.4274997558594E+03
(PID.TID 0000.0001) %MON forcing_qnet_min             =  -8.3941103584216E+02
(PID.TID 0000.0001) %MON forcing_qnet_mean            =  -3.7824420589381E+01
(PID.TID 0000.0001) %MON forcing_qnet_sd              =   1.9171166874540E+02
(PID.TID 0000.0001) %MON forcing_qnet_del2            =   3.2826460364511E+00
(PID.TID 0000.0001) %MON forcing_qsw_max              =   0.0000000000000E+00
(PID.TID 0000.0001) %MON forcing_qsw_min              =  -1.0766501214020E+02
(PID.TID 0000.0001) %MON forcing_qsw_mean             =  -1.9652176777516E+01
(PID.TID 0000.0001) %MON forcing_qsw_sd               =   2.8879935726167E+01
(PID.TID 0000.0001) %MON forcing_qsw_del2             =   2.3248791359028E-01
(PID.TID 0000.0001) %MON forcing_empmr_max            =   4.5519596897066E-03
(PID.TID 0000.0001) %MON forcing_empmr_min            =  -6.5442033112049E-02
(PID.TID 0000.0001) %MON forcing_empmr_mean           =  -2.0106494073205E-04
(PID.TID 0000.0001) %MON forcing_empmr_sd             =   2.8864859508679E-03
(PID.TID 0000.0001) %MON forcing_empmr_del2           =   1.1357903968205E-04
(PID.TID 0000.0001) %MON forcing_fu_max               =   2.5625339024183E-01
(PID.TID 0000.0001) %MON forcing_fu_min               =  -3.3824242457626E-01
(PID.TID 0000.0001) %MON forcing_fu_mean              =  -4.6754353110434E-03
(PID.TID 0000.0001) %MON forcing_fu_sd                =   5.7066461982305E-02
(PID.TID 0000.0001) %MON forcing_fu_del2              =   5.6688095083253E-04
(PID.TID 0000.0001) %MON forcing_fv_max               =   2.6003285867172E-01
(PID.TID 0000.0001) %MON forcing_fv_min               =  -2.5685776355096E-01
(PID.TID 0000.0001) %MON forcing_fv_mean              =  -1.4985738553975E-02
(PID.TID 0000.0001) %MON forcing_fv_sd                =   6.0069582276400E-02
(PID.TID 0000.0001) %MON forcing_fv_del2              =   5.0558452869734E-04
(PID.TID 0000.0001) %MON trAdv_CFL_u_max              =   2.0587095658592E-03
(PID.TID 0000.0001) %MON trAdv_CFL_v_max              =   1.3370355160177E-03
(PID.TID 0000.0001) %MON trAdv_CFL_w_max              =   1.2562838421407E-03
(PID.TID 0000.0001) %MON advcfl_uvel_max              =   2.0474313929624E-03
(PID.TID 0000.0001) %MON advcfl_vvel_max              =   1.3333283552127E-03
(PID.TID 0000.0001) %MON advcfl_wvel_max              =   2.2762446299843E-03
(PID.TID 0000.0001) %MON advcfl_W_hf_max              =   1.2582953050775E-03
(PID.TID 0000.0001) %MON pe_b_mean                    =   4.9877658648743E-04
(PID.TID 0000.0001) %MON ke_max                       =   1.8809979102485E-01
(PID.TID 0000.0001) %MON ke_mean                      =   1.6403039462949E-04
(PID.TID 0000.0001) %MON ke_vol                       =   1.3398149611817E+18
(PID.TID 0000.0001) %MON vort_r_min                   =  -2.3036670015527E-06
(PID.TID 0000.0001) %MON vort_r_max                   =   2.7587463814440E-06
(PID.TID 0000.0001) %MON vort_a_mean                  =  -2.0549865324846E-05
(PID.TID 0000.0001) %MON vort_a_sd                    =   7.5259661742728E-05
(PID.TID 0000.0001) %MON vort_p_mean                  =  -2.4783232923020E-05
(PID.TID 0000.0001) %MON vort_p_sd                    =   1.2811921497765E-04
(PID.TID 0000.0001) %MON surfExpan_theta_mean         =  -4.5617793055379E-06
(PID.TID 0000.0001) %MON surfExpan_salt_mean          =   9.5281899216651E-07
(PID.TID 0000.0001) // =======================================================
(PID.TID 0000.0001) // End MONITOR dynamic field statistics
(PID.TID 0000.0001) // =======================================================
 Computing Diagnostic #     81  oceTAUX      Counter:       1   Parms: UU      U1      
           Vector  Mate for  oceTAUX      Diagnostic #     82  oceTAUY  exists 
 Computing Diagnostic #     82  oceTAUY      Counter:       1   Parms: VV      U1      
           Vector  Mate for  oceTAUY      Diagnostic #     81  oceTAUX  exists 
 Computing Diagnostic #     85  oceFWflx     Counter:       1   Parms: SM      U1      
 Computing Diagnostic #     86  oceSflux     Counter:       1   Parms: SM      U1      
 Computing Diagnostic #     87  oceQnet      Counter:       1   Parms: SM      U1      
 Computing Diagnostic #     88  oceQsw       Counter:       1   Parms: SM      U1      
 Computing Diagnostic #     27  SALT         Counter:       1   Parms: SMR     MR      
 Computing Diagnostic #     26  THETA        Counter:       1   Parms: SMR     MR      
 Computing Diagnostic #     45  UVELMASS     Counter:       1   Parms: UUr     MR      
           Vector  Mate for  UVELMASS     Diagnostic #     46  VVELMASS exists 
 Computing Diagnostic #     46  VVELMASS     Counter:       1   Parms: VVr     MR      
           Vector  Mate for  VVELMASS     Diagnostic #     45  UVELMASS exists 
 Computing Diagnostic #     83  atmPload     Counter:       1   Parms: SM      U1      
 cg2d: Sum(rhs),rhsMax =  -8.25382537987954E+01  3.62245524448634E+01
(PID.TID 0000.0001)      cg2d_init_res =   1.90185345605068E-01
(PID.TID 0000.0001)      cg2d_iters(min,last) =      -1      10
(PID.TID 0000.0001)      cg2d_last_res =   3.92262255820903E-08
(PID.TID 0000.0001) // =======================================================
(PID.TID 0000.0001) // Begin MONITOR dynamic field statistics
(PID.TID 0000.0001) // =======================================================
(PID.TID 0000.0001) %MON time_tsnumber                =                 72088
(PID.TID 0000.0001) %MON time_secondsf                =   6.4879200000000E+07
(PID.TID 0000.0001) %MON dynstat_eta_max              =   9.8133664261018E-01
(PID.TID 0000.0001) %MON dynstat_eta_min              =  -1.5575375808066E+00
(PID.TID 0000.0001) %MON dynstat_eta_mean             =   3.4742372971426E-02
(PID.TID 0000.0001) %MON dynstat_eta_sd               =   6.1081032951581E-01
(PID.TID 0000.0001) %MON dynstat_eta_del2             =   1.2708615915079E-03
(PID.TID 0000.0001) %MON dynstat_uvel_max             =   4.0093101683035E-01
(PID.TID 0000.0001) %MON dynstat_uvel_min             =  -7.0489066850869E-01
(PID.TID 0000.0001) %MON dynstat_uvel_mean            =  -4.8131900413874E-04
(PID.TID 0000.0001) %MON dynstat_uvel_sd              =   1.2897348240036E-02
(PID.TID 0000.0001) %MON dynstat_uvel_del2            =   8.5404527371265E-05
(PID.TID 0000.0001) %MON dynstat_vvel_max             =   3.2984303194154E-01
(PID.TID 0000.0001) %MON dynstat_vvel_min             =  -3.8622202955897E-01
(PID.TID 0000.0001) %MON dynstat_vvel_mean            =   1.4843480750983E-04
(PID.TID 0000.0001) %MON dynstat_vvel_sd              =   1.3720922289740E-02
(PID.TID 0000.0001) %MON dynstat_vvel_del2            =   8.7614711138612E-05
(PID.TID 0000.0001) %MON dynstat_wvel_max             =   1.0554480558538E-04
(PID.TID 0000.0001) %MON dynstat_wvel_min             =  -1.9203216981754E-04
(PID.TID 0000.0001) %MON dynstat_wvel_mean            =  -4.7769935002189E-08
(PID.TID 0000.0001) %MON dynstat_wvel_sd              =   7.5890918613240E-06
(PID.TID 0000.0001) %MON dynstat_wvel_del2            =   6.5825963072061E-08
(PID.TID 0000.0001) %MON dynstat_theta_max            =   3.0922428677577E+01
(PID.TID 0000.0001) %MON dynstat_theta_min            =  -3.0172966913666E+00
(PID.TID 0000.0001) %MON dynstat_theta_mean           =   3.9092216208096E+00
(PID.TID 0000.0001) %MON dynstat_theta_sd             =   4.5717152949757E+00
(PID.TID 0000.0001) %MON dynstat_theta_del2           =   2.6381903266270E-03
(PID.TID 0000.0001) %MON dynstat_salt_max             =   4.1346638111105E+01
(PID.TID 0000.0001) %MON dynstat_salt_min             =   1.8519264481866E+01
(PID.TID 0000.0001) %MON dynstat_salt_mean            =   3.4771890672917E+01
(PID.TID 0000.0001) %MON dynstat_salt_sd              =   5.3230120891181E-01
(PID.TID 0000.0001) %MON dynstat_salt_del2            =   1.1406874070112E-03
(PID.TID 0000.0001) %MON dynstat_sst_max              =   3.0922428677577E+01
(PID.TID 0000.0001) %MON dynstat_sst_min              =  -1.8980325505570E+00
(PID.TID 0000.0001) %MON dynstat_sst_mean             =   1.8110053470316E+01
(PID.TID 0000.0001) %MON dynstat_sst_sd               =   9.8146658508193E+00
(PID.TID 0000.0001) %MON dynstat_sst_del2             =   1.4966285149790E-02
(PID.TID 0000.0001) %MON dynstat_sss_max              =   4.1346638111105E+01
(PID.TID 0000.0001) %MON dynstat_sss_min              =   1.8752505656079E+01
(PID.TID 0000.0001) %MON dynstat_sss_mean             =   3.4619769999745E+01
(PID.TID 0000.0001) %MON dynstat_sss_sd               =   1.4913215444667E+00
(PID.TID 0000.0001) %MON dynstat_sss_del2             =   1.2956719843333E-02
(PID.TID 0000.0001) %MON forcing_qnet_max             =   1.4117327880859E+03
(PID.TID 0000.0001) %MON forcing_qnet_min             =  -8.2875381874914E+02
(PID.TID 0000.0001) %MON forcing_qnet_mean            =  -3.8132398122641E+01
(PID.TID 0000.0001) %MON forcing_qnet_sd              =   1.9124172137901E+02
(PID.TID 0000.0001) %MON forcing_qnet_del2            =   3.1983031795640E+00
(PID.TID 0000.0001) %MON forcing_qsw_max              =   0.0000000000000E+00
(PID.TID 0000.0001) %MON forcing_qsw_min              =  -1.0700967303042E+02
(PID.TID 0000.0001) %MON forcing_qsw_mean             =  -1.9751302878172E+01
(PID.TID 0000.0001) %MON forcing_qsw_sd               =   2.9006361453599E+01
(PID.TID 0000.0001) %MON forcing_qsw_del2             =   2.3203857468297E-01
(PID.TID 0000.0001) %MON forcing_empmr_max            =   4.5050214976072E-03
(PID.TID 0000.0001) %MON forcing_empmr_min            =  -6.4768247306347E-02
(PID.TID 0000.0001) %MON forcing_empmr_mean           =  -1.9862069092259E-04
(PID.TID 0000.0001) %MON forcing_empmr_sd             =   2.8568419391703E-03
(PID.TID 0000.0001) %MON forcing_empmr_del2           =   1.1236906573951E-04
(PID.TID 0000.0001) %MON forcing_fu_max               =   2.5115359969885E-01
(PID.TID 0000.0001) %MON forcing_fu_min               =  -3.3817976104193E-01
(PID.TID 0000.0001) %MON forcing_fu_mean              =  -4.8339486184028E-03
(PID.TID 0000.0001) %MON forcing_fu_sd                =   5.6841577201710E-02
(PID.TID 0000.0001) %MON forcing_fu_del2              =   5.6530501604283E-04
(PID.TID 0000.0001) %MON forcing_fv_max               =   2.5718488189616E-01
(PID.TID 0000.0001) %MON forcing_fv_min               =  -2.5780137356908E-01
(PID.TID 0000.0001) %MON forcing_fv_mean              =  -1.4997017083354E-02
(PID.TID 0000.0001) %MON forcing_fv_sd                =   5.9947514048660E-02
(PID.TID 0000.0001) %MON forcing_fv_del2              =   5.0420268800686E-04
(PID.TID 0000.0001) %MON trAdv_CFL_u_max              =   2.0462302209424E-03
(PID.TID 0000.0001) %MON trAdv_CFL_v_max              =   1.2616799183372E-03
(PID.TID 0000.0001) %MON trAdv_CFL_w_max              =   1.2722945997763E-03
(PID.TID 0000.0001) %MON advcfl_uvel_max              =   2.0334968242295E-03
(PID.TID 0000.0001) %MON advcfl_vvel_max              =   1.2603833647551E-03
(PID.TID 0000.0001) %MON advcfl_wvel_max              =   2.2528086019599E-03
(PID.TID 0000.0001) %MON advcfl_W_hf_max              =   1.2722945997763E-03
(PID.TID 0000.0001) %MON pe_b_mean                    =   4.9862714664364E-04
(PID.TID 0000.0001) %MON ke_max                       =   1.9102625769976E-01
(PID.TID 0000.0001) %MON ke_mean                      =   1.6387923095606E-04
(PID.TID 0000.0001) %MON ke_vol                       =   1.3398150248033E+18
(PID.TID 0000.0001) %MON vort_r_min                   =  -2.3417958958659E-06
(PID.TID 0000.0001) %MON vort_r_max                   =   2.7331238841549E-06
(PID.TID 0000.0001) %MON vort_a_mean                  =  -2.0549865324846E-05
(PID.TID 0000.0001) %MON vort_a_sd                    =   7.5259659580897E-05
(PID.TID 0000.0001) %MON vort_p_mean                  =  -2.4783231770028E-05
(PID.TID 0000.0001) %MON vort_p_sd                    =   1.2811922022350E-04
(PID.TID 0000.0001) %MON surfExpan_theta_mean         =  -4.4325409213055E-06
(PID.TID 0000.0001) %MON surfExpan_salt_mean          =   9.3065337046272E-07
(PID.TID 0000.0001) // =======================================================
(PID.TID 0000.0001) // End MONITOR dynamic field statistics
(PID.TID 0000.0001) // =======================================================
 cg2d: Sum(rhs),rhsMax =  -8.29367019947631E+01  3.62280315393883E+01
(PID.TID 0000.0001)      cg2d_init_res =   1.87350651061524E-01
(PID.TID 0000.0001)      cg2d_iters(min,last) =      -1      10
(PID.TID 0000.0001)      cg2d_last_res =   3.90045969797499E-08
(PID.TID 0000.0001) // =======================================================
(PID.TID 0000.0001) // Begin MONITOR dynamic field statistics
(PID.TID 0000.0001) // =======================================================
(PID.TID 0000.0001) %MON time_tsnumber                =                 72089
(PID.TID 0000.0001) %MON time_secondsf                =   6.4880100000000E+07
(PID.TID 0000.0001) %MON dynstat_eta_max              =   9.7889906034138E-01
(PID.TID 0000.0001) %MON dynstat_eta_min              =  -1.5581252938106E+00
(PID.TID 0000.0001) %MON dynstat_eta_mean             =   3.4913442428232E-02
(PID.TID 0000.0001) %MON dynstat_eta_sd               =   6.1069884926048E-01
(PID.TID 0000.0001) %MON dynstat_eta_del2             =   1.2656172033841E-03
(PID.TID 0000.0001) %MON dynstat_uvel_max             =   3.8886096468109E-01
(PID.TID 0000.0001) %MON dynstat_uvel_min             =  -6.9775383174696E-01
(PID.TID 0000.0001) %MON dynstat_uvel_mean            =  -4.9078390077169E-04
(PID.TID 0000.0001) %MON dynstat_uvel_sd              =   1.2888772964411E-02
(PID.TID 0000.0001) %MON dynstat_uvel_del2            =   8.5506646120156E-05
(PID.TID 0000.0001) %MON dynstat_vvel_max             =   3.2172135868409E-01
(PID.TID 0000.0001) %MON dynstat_vvel_min             =  -3.5889298074992E-01
(PID.TID 0000.0001) %MON dynstat_vvel_mean            =   1.4122159697917E-04
(PID.TID 0000.0001) %MON dynstat_vvel_sd              =   1.3715986015796E-02
(PID.TID 0000.0001) %MON dynstat_vvel_del2            =   8.7049953091021E-05
(PID.TID 0000.0001) %MON dynstat_wvel_max             =   1.0578545122841E-04
(PID.TID 0000.0001) %MON dynstat_wvel_min             =  -1.9216737179192E-04
(PID.TID 0000.0001) %MON dynstat_wvel_mean            =  -4.6092850300577E-08
(PID.TID 0000.0001) %MON dynstat_wvel_sd              =   7.5865211308418E-06
(PID.TID 0000.0001) %MON dynstat_wvel_del2            =   6.5521351166405E-08
(PID.TID 0000.0001) %MON dynstat_theta_max            =   3.0922182919320E+01
(PID.TID 0000.0001) %MON dynstat_theta_min            =  -3.0179152425511E+00
(PID.TID 0000.0001) %MON dynstat_theta_mean           =   3.9092250142696E+00
(PID.TID 0000.0001) %MON dynstat_theta_sd             =   4.5717291112080E+00
(PID.TID 0000.0001) %MON dynstat_theta_del2           =   2.6380669595830E-03
(PID.TID 0000.0001) %MON dynstat_salt_max             =   4.1346640957253E+01
(PID.TID 0000.0001) %MON dynstat_salt_min             =   1.8519274576112E+01
(PID.TID 0000.0001) %MON dynstat_salt_mean            =   3.4771889214441E+01
(PID.TID 0000.0001) %MON dynstat_salt_sd              =   5.3231087537579E-01
(PID.TID 0000.0001) %MON dynstat_salt_del2            =   1.1426549923074E-03
(PID.TID 0000.0001) %MON dynstat_sst_max              =   3.0922182919320E+01
(PID.TID 0000.0001) %MON dynstat_sst_min              =  -1.8978966059875E+00
(PID.TID 0000.0001) %MON dynstat_sst_mean             =   1.8110217110826E+01
(PID.TID 0000.0001) %MON dynstat_sst_sd               =   9.8148440698419E+00
(PID.TID 0000.0001) %MON dynstat_sst_del2             =   1.4964072249674E-02
(PID.TID 0000.0001) %MON dynstat_sss_max              =   4.1346640957253E+01
(PID.TID 0000.0001) %MON dynstat_sss_min              =   1.8752519477830E+01
(PID.TID 0000.0001) %MON dynstat_sss_mean             =   3.4619658980441E+01
(PID.TID 0000.0001) %MON dynstat_sss_sd               =   1.4915610031870E+00
(PID.TID 0000.0001) %MON dynstat_sss_del2             =   1.2984125791794E-02
(PID.TID 0000.0001) %MON forcing_qnet_max             =   1.3961529541016E+03
(PID.TID 0000.0001) %MON forcing_qnet_min             =  -8.1850091528012E+02
(PID.TID 0000.0001) %MON forcing_qnet_mean            =  -4.0052069432378E+01
(PID.TID 0000.0001) %MON forcing_qnet_sd              =   1.9294510569586E+02
(PID.TID 0000.0001) %MON forcing_qnet_del2            =   3.2240283431346E+00
(PID.TID 0000.0001) %MON forcing_qsw_max              =   0.0000000000000E+00
(PID.TID 0000.0001) %MON forcing_qsw_min              =  -1.0758357407400E+02
(PID.TID 0000.0001) %MON forcing_qsw_mean             =  -2.0102610319742E+01
(PID.TID 0000.0001) %MON forcing_qsw_sd               =   2.9294197325810E+01
(PID.TID 0000.0001) %MON forcing_qsw_del2             =   2.3460072686958E-01
(PID.TID 0000.0001) %MON forcing_empmr_max            =   4.4586728326976E-03
(PID.TID 0000.0001) %MON forcing_empmr_min            =  -6.4102016389370E-02
(PID.TID 0000.0001) %MON forcing_empmr_mean           =  -1.9672987532668E-04
(PID.TID 0000.0001) %MON forcing_empmr_sd             =   2.8276393064243E-03
(PID.TID 0000.0001) %MON forcing_empmr_del2           =   1.1119298689967E-04
(PID.TID 0000.0001) %MON forcing_fu_max               =   2.5245857496052E-01
(PID.TID 0000.0001) %MON forcing_fu_min               =  -3.3826461495549E-01
(PID.TID 0000.0001) %MON forcing_fu_mean              =  -4.9539514622407E-03
(PID.TID 0000.0001) %MON forcing_fu_sd                =   5.6618407455986E-02
(PID.TID 0000.0001) %MON forcing_fu_del2              =   5.6374384780221E-04
(PID.TID 0000.0001) %MON forcing_fv_max               =   2.5526144036635E-01
(PID.TID 0000.0001) %MON forcing_fv_min               =  -2.5793097896052E-01
(PID.TID 0000.0001) %MON forcing_fv_mean              =  -1.5004086490239E-02
(PID.TID 0000.0001) %MON forcing_fv_sd                =   5.9779272420825E-02
(PID.TID 0000.0001) %MON forcing_fv_del2              =   5.0225671819925E-04
(PID.TID 0000.0001) %MON trAdv_CFL_u_max              =   2.0270637228857E-03
(PID.TID 0000.0001) %MON trAdv_CFL_v_max              =   1.1700001507247E-03
(PID.TID 0000.0001) %MON trAdv_CFL_w_max              =   1.2811736095781E-03
(PID.TID 0000.0001) %MON advcfl_uvel_max              =   2.0129081917814E-03
(PID.TID 0000.0001) %MON advcfl_vvel_max              =   1.1711987096674E-03
(PID.TID 0000.0001) %MON advcfl_wvel_max              =   2.2296353526737E-03
(PID.TID 0000.0001) %MON advcfl_W_hf_max              =   1.2811736095781E-03
(PID.TID 0000.0001) %MON pe_b_mean                    =   4.9846158996758E-04
(PID.TID 0000.0001) %MON ke_max                       =   1.9288508469204E-01
(PID.TID 0000.0001) %MON ke_mean                      =   1.6371808227600E-04
(PID.TID 0000.0001) %MON ke_vol                       =   1.3398150876515E+18
(PID.TID 0000.0001) %MON vort_r_min                   =  -2.3797637908647E-06
(PID.TID 0000.0001) %MON vort_r_max                   =   2.6980309904106E-06
(PID.TID 0000.0001) %MON vort_a_mean                  =  -2.0549865324846E-05
(PID.TID 0000.0001) %MON vort_a_sd                    =   7.5259657857906E-05
(PID.TID 0000.0001) %MON vort_p_mean                  =  -2.4783230640533E-05
(PID.TID 0000.0001) %MON vort_p_sd                    =   1.2811922517216E-04
(PID.TID 0000.0001) %MON surfExpan_theta_mean         =  -4.3198754891740E-06
(PID.TID 0000.0001) %MON surfExpan_salt_mean          =   9.0969989629357E-07
(PID.TID 0000.0001) // =======================================================
(PID.TID 0000.0001) // End MONITOR dynamic field statistics
(PID.TID 0000.0001) // =======================================================
 cg2d: Sum(rhs),rhsMax =  -8.33207713495414E+01  3.62353115449648E+01
(PID.TID 0000.0001)      cg2d_init_res =   1.83947890106549E-01
(PID.TID 0000.0001)      cg2d_iters(min,last) =      -1      10
(PID.TID 0000.0001)      cg2d_last_res =   3.86666191102661E-08
(PID.TID 0000.0001) // =======================================================
(PID.TID 0000.0001) // Begin MONITOR dynamic field statistics
(PID.TID 0000.0001) // =======================================================
(PID.TID 0000.0001) %MON time_tsnumber                =                 72090
(PID.TID 0000.0001) %MON time_secondsf                =   6.4881000000000E+07
(PID.TID 0000.0001) %MON dynstat_eta_max              =   9.7601209031748E-01
(PID.TID 0000.0001) %MON dynstat_eta_min              =  -1.5588420814333E+00
(PID.TID 0000.0001) %MON dynstat_eta_mean             =   3.5082170483856E-02
(PID.TID 0000.0001) %MON dynstat_eta_sd               =   6.1057349766921E-01
(PID.TID 0000.0001) %MON dynstat_eta_del2             =   1.2665291811914E-03
(PID.TID 0000.0001) %MON dynstat_uvel_max             =   3.7509753782032E-01
(PID.TID 0000.0001) %MON dynstat_uvel_min             =  -6.8833237953601E-01
(PID.TID 0000.0001) %MON dynstat_uvel_mean            =  -4.9942090940277E-04
(PID.TID 0000.0001) %MON dynstat_uvel_sd              =   1.2881051508109E-02
(PID.TID 0000.0001) %MON dynstat_uvel_del2            =   8.5575671570013E-05
(PID.TID 0000.0001) %MON dynstat_vvel_max             =   3.1003715855093E-01
(PID.TID 0000.0001) %MON dynstat_vvel_min             =  -3.3819013228852E-01
(PID.TID 0000.0001) %MON dynstat_vvel_mean            =   1.3621399452637E-04
(PID.TID 0000.0001) %MON dynstat_vvel_sd              =   1.3709850968091E-02
(PID.TID 0000.0001) %MON dynstat_vvel_del2            =   8.6464946432408E-05
(PID.TID 0000.0001) %MON dynstat_wvel_max             =   1.0603123304642E-04
(PID.TID 0000.0001) %MON dynstat_wvel_min             =  -1.9231160801699E-04
(PID.TID 0000.0001) %MON dynstat_wvel_mean            =  -4.4423918542323E-08
(PID.TID 0000.0001) %MON dynstat_wvel_sd              =   7.5853915412249E-06
(PID.TID 0000.0001) %MON dynstat_wvel_del2            =   6.5229435920882E-08
(PID.TID 0000.0001) %MON dynstat_theta_max            =   3.0921929593956E+01
(PID.TID 0000.0001) %MON dynstat_theta_min            =  -3.0185466019048E+00
(PID.TID 0000.0001) %MON dynstat_theta_mean           =   3.9092284547981E+00
(PID.TID 0000.0001) %MON dynstat_theta_sd             =   4.5717432297790E+00
(PID.TID 0000.0001) %MON dynstat_theta_del2           =   2.6379422094977E-03
(PID.TID 0000.0001) %MON dynstat_salt_max             =   4.1346654542839E+01
(PID.TID 0000.0001) %MON dynstat_salt_min             =   1.8519284679737E+01
(PID.TID 0000.0001) %MON dynstat_salt_mean            =   3.4771887781968E+01
(PID.TID 0000.0001) %MON dynstat_salt_sd              =   5.3232037775958E-01
(PID.TID 0000.0001) %MON dynstat_salt_del2            =   1.1445772609099E-03
(PID.TID 0000.0001) %MON dynstat_sst_max              =   3.0921929593956E+01
(PID.TID 0000.0001) %MON dynstat_sst_min              =  -1.8977633054454E+00
(PID.TID 0000.0001) %MON dynstat_sst_mean             =   1.8110386170549E+01
(PID.TID 0000.0001) %MON dynstat_sst_sd               =   9.8150263429000E+00
(PID.TID 0000.0001) %MON dynstat_sst_del2             =   1.4961820324590E-02
(PID.TID 0000.0001) %MON dynstat_sss_max              =   4.1346654542839E+01
(PID.TID 0000.0001) %MON dynstat_sss_min              =   1.8752533095986E+01
(PID.TID 0000.0001) %MON dynstat_sss_mean             =   3.4619550019891E+01
(PID.TID 0000.0001) %MON dynstat_sss_sd               =   1.4917958082017E+00
(PID.TID 0000.0001) %MON dynstat_sss_del2             =   1.3010892903471E-02
(PID.TID 0000.0001) %MON forcing_qnet_max             =   1.3807578125000E+03
(PID.TID 0000.0001) %MON forcing_qnet_min             =  -8.0751735917034E+02
(PID.TID 0000.0001) %MON forcing_qnet_mean            =  -4.1113847843571E+01
(PID.TID 0000.0001) %MON forcing_qnet_sd              =   1.9430483366886E+02
(PID.TID 0000.0001) %MON forcing_qnet_del2            =   3.1773844566747E+00
(PID.TID 0000.0001) %MON forcing_qsw_max              =   0.0000000000000E+00
(PID.TID 0000.0001) %MON forcing_qsw_min              =  -1.0783445526307E+02
(PID.TID 0000.0001) %MON forcing_qsw_mean             =  -2.0319645628421E+01
(PID.TID 0000.0001) %MON forcing_qsw_sd               =   2.9488257015747E+01
(PID.TID 0000.0001) %MON forcing_qsw_del2             =   2.3576293143453E-01
(PID.TID 0000.0001) %MON forcing_empmr_max            =   4.4127185828984E-03
(PID.TID 0000.0001) %MON forcing_empmr_min            =  -6.3441649079323E-02
(PID.TID 0000.0001) %MON forcing_empmr_mean           =  -1.9403726396630E-04
(PID.TID 0000.0001) %MON forcing_empmr_sd             =   2.7979743249757E-03
(PID.TID 0000.0001) %MON forcing_empmr_del2           =   1.1000041139199E-04
(PID.TID 0000.0001) %MON forcing_fu_max               =   2.5261214889930E-01
(PID.TID 0000.0001) %MON forcing_fu_min               =  -3.3964143420854E-01
(PID.TID 0000.0001) %MON forcing_fu_mean              =  -5.0481840638000E-03
(PID.TID 0000.0001) %MON forcing_fu_sd                =   5.6443392433874E-02
(PID.TID 0000.0001) %MON forcing_fu_del2              =   5.6276742830610E-04
(PID.TID 0000.0001) %MON forcing_fv_max               =   2.5321268526415E-01
(PID.TID 0000.0001) %MON forcing_fv_min               =  -2.5741162335712E-01
(PID.TID 0000.0001) %MON forcing_fv_mean              =  -1.4985081625149E-02
(PID.TID 0000.0001) %MON forcing_fv_sd                =   5.9604465785599E-02
(PID.TID 0000.0001) %MON forcing_fv_del2              =   5.0050443211423E-04
(PID.TID 0000.0001) %MON trAdv_CFL_u_max              =   2.0012474647307E-03
(PID.TID 0000.0001) %MON trAdv_CFL_v_max              =   1.1580789745033E-03
(PID.TID 0000.0001) %MON trAdv_CFL_w_max              =   1.2837274809797E-03
(PID.TID 0000.0001) %MON advcfl_uvel_max              =   1.9857288092097E-03
(PID.TID 0000.0001) %MON advcfl_vvel_max              =   1.1612662858939E-03
(PID.TID 0000.0001) %MON advcfl_wvel_max              =   2.2066660549330E-03
(PID.TID 0000.0001) %MON advcfl_W_hf_max              =   1.2837274809797E-03
(PID.TID 0000.0001) %MON pe_b_mean                    =   4.9827335991168E-04
(PID.TID 0000.0001) %MON ke_max                       =   1.9364820398416E-01
(PID.TID 0000.0001) %MON ke_mean                      =   1.6355190195554E-04
(PID.TID 0000.0001) %MON ke_vol                       =   1.3398151499014E+18
(PID.TID 0000.0001) %MON vort_r_min                   =  -2.4276760110645E-06
(PID.TID 0000.0001) %MON vort_r_max                   =   2.6538522516160E-06
(PID.TID 0000.0001) %MON vort_a_mean                  =  -2.0549865324846E-05
(PID.TID 0000.0001) %MON vort_a_sd                    =   7.5259656575126E-05
(PID.TID 0000.0001) %MON vort_p_mean                  =  -2.4783229529612E-05
(PID.TID 0000.0001) %MON vort_p_sd                    =   1.2811922955033E-04
(PID.TID 0000.0001) %MON surfExpan_theta_mean         =  -4.1894713042147E-06
(PID.TID 0000.0001) %MON surfExpan_salt_mean          =   8.8727683638870E-07
(PID.TID 0000.0001) // =======================================================
(PID.TID 0000.0001) // End MONITOR dynamic field statistics
(PID.TID 0000.0001) // =======================================================
 cg2d: Sum(rhs),rhsMax =  -8.36898458308411E+01  3.62467110552359E+01
(PID.TID 0000.0001)      cg2d_init_res =   1.80082814011768E-01
(PID.TID 0000.0001)      cg2d_iters(min,last) =      -1      10
(PID.TID 0000.0001)      cg2d_last_res =   3.79743499267323E-08
(PID.TID 0000.0001) // =======================================================
(PID.TID 0000.0001) // Begin MONITOR dynamic field statistics
(PID.TID 0000.0001) // =======================================================
(PID.TID 0000.0001) %MON time_tsnumber                =                 72091
(PID.TID 0000.0001) %MON time_secondsf                =   6.4881900000000E+07
(PID.TID 0000.0001) %MON dynstat_eta_max              =   9.7268649238495E-01
(PID.TID 0000.0001) %MON dynstat_eta_min              =  -1.5596967312443E+00
(PID.TID 0000.0001) %MON dynstat_eta_mean             =   3.5248654739499E-02
(PID.TID 0000.0001) %MON dynstat_eta_sd               =   6.1043149790002E-01
(PID.TID 0000.0001) %MON dynstat_eta_del2             =   1.2719470078549E-03
(PID.TID 0000.0001) %MON dynstat_uvel_max             =   3.6011978071370E-01
(PID.TID 0000.0001) %MON dynstat_uvel_min             =  -6.7665799294010E-01
(PID.TID 0000.0001) %MON dynstat_uvel_mean            =  -5.0726204219258E-04
(PID.TID 0000.0001) %MON dynstat_uvel_sd              =   1.2874048274967E-02
(PID.TID 0000.0001) %MON dynstat_uvel_del2            =   8.5607124634565E-05
(PID.TID 0000.0001) %MON dynstat_vvel_max             =   2.9509013959970E-01
(PID.TID 0000.0001) %MON dynstat_vvel_min             =  -3.3989870301348E-01
(PID.TID 0000.0001) %MON dynstat_vvel_mean            =   1.3340646140484E-04
(PID.TID 0000.0001) %MON dynstat_vvel_sd              =   1.3703050951705E-02
(PID.TID 0000.0001) %MON dynstat_vvel_del2            =   8.5910232929073E-05
(PID.TID 0000.0001) %MON dynstat_wvel_max             =   1.0628206535628E-04
(PID.TID 0000.0001) %MON dynstat_wvel_min             =  -1.9245678045725E-04
(PID.TID 0000.0001) %MON dynstat_wvel_mean            =  -4.3473339334792E-08
(PID.TID 0000.0001) %MON dynstat_wvel_sd              =   7.5876508261429E-06
(PID.TID 0000.0001) %MON dynstat_wvel_del2            =   6.4959080460654E-08
(PID.TID 0000.0001) %MON dynstat_theta_max            =   3.0921667456158E+01
(PID.TID 0000.0001) %MON dynstat_theta_min            =  -3.0191914545707E+00
(PID.TID 0000.0001) %MON dynstat_theta_mean           =   3.9092319273632E+00
(PID.TID 0000.0001) %MON dynstat_theta_sd             =   4.5717575343342E+00
(PID.TID 0000.0001) %MON dynstat_theta_del2           =   2.6378159930873E-03
(PID.TID 0000.0001) %MON dynstat_salt_max             =   4.1346680027358E+01
(PID.TID 0000.0001) %MON dynstat_salt_min             =   1.8519294792150E+01
(PID.TID 0000.0001) %MON dynstat_salt_mean            =   3.4771886374425E+01
(PID.TID 0000.0001) %MON dynstat_salt_sd              =   5.3232973352750E-01
(PID.TID 0000.0001) %MON dynstat_salt_del2            =   1.1464552593084E-03
(PID.TID 0000.0001) %MON dynstat_sst_max              =   3.0921667456158E+01
(PID.TID 0000.0001) %MON dynstat_sst_min              =  -1.8976343555519E+00
(PID.TID 0000.0001) %MON dynstat_sst_mean             =   1.8110559209958E+01
(PID.TID 0000.0001) %MON dynstat_sst_sd               =   9.8152104257672E+00
(PID.TID 0000.0001) %MON dynstat_sst_del2             =   1.4959530455761E-02
(PID.TID 0000.0001) %MON dynstat_sss_max              =   4.1346680027358E+01
(PID.TID 0000.0001) %MON dynstat_sss_min              =   1.8752546544916E+01
(PID.TID 0000.0001) %MON dynstat_sss_mean             =   3.4619443098353E+01
(PID.TID 0000.0001) %MON dynstat_sss_sd               =   1.4920264891323E+00
(PID.TID 0000.0001) %MON dynstat_sss_del2             =   1.3037036654596E-02
(PID.TID 0000.0001) %MON forcing_qnet_max             =   1.3655455322266E+03
(PID.TID 0000.0001) %MON forcing_qnet_min             =  -7.9726140826091E+02
(PID.TID 0000.0001) %MON forcing_qnet_mean            =  -4.1762823510047E+01
(PID.TID 0000.0001) %MON forcing_qnet_sd              =   1.9639833026028E+02
(PID.TID 0000.0001) %MON forcing_qnet_del2            =   3.1944796215097E+00
(PID.TID 0000.0001) %MON forcing_qsw_max              =   0.0000000000000E+00
(PID.TID 0000.0001) %MON forcing_qsw_min              =  -1.0768108923642E+02
(PID.TID 0000.0001) %MON forcing_qsw_mean             =  -2.0491212037093E+01
(PID.TID 0000.0001) %MON forcing_qsw_sd               =   2.9635389796900E+01
(PID.TID 0000.0001) %MON forcing_qsw_del2             =   2.3661445465903E-01
(PID.TID 0000.0001) %MON forcing_empmr_max            =   4.3672560714185E-03
(PID.TID 0000.0001) %MON forcing_empmr_min            =  -6.2788844108582E-02
(PID.TID 0000.0001) %MON forcing_empmr_mean           =  -1.9145689399021E-04
(PID.TID 0000.0001) %MON forcing_empmr_sd             =   2.7691626866580E-03
(PID.TID 0000.0001) %MON forcing_empmr_del2           =   1.0884499418857E-04
(PID.TID 0000.0001) %MON forcing_fu_max               =   2.5160302476540E-01
(PID.TID 0000.0001) %MON forcing_fu_min               =  -3.3700208300303E-01
(PID.TID 0000.0001) %MON forcing_fu_mean              =  -5.1154128966257E-03
(PID.TID 0000.0001) %MON forcing_fu_sd                =   5.6188479226057E-02
(PID.TID 0000.0001) %MON forcing_fu_del2              =   5.6073073549155E-04
(PID.TID 0000.0001) %MON forcing_fv_max               =   2.4826029058976E-01
(PID.TID 0000.0001) %MON forcing_fv_min               =  -2.5730140104517E-01
(PID.TID 0000.0001) %MON forcing_fv_mean              =  -1.4990394472391E-02
(PID.TID 0000.0001) %MON forcing_fv_sd                =   5.9420281038685E-02
(PID.TID 0000.0001) %MON forcing_fv_del2              =   4.9870635835170E-04
(PID.TID 0000.0001) %MON trAdv_CFL_u_max              =   1.9688465311502E-03
(PID.TID 0000.0001) %MON trAdv_CFL_v_max              =   1.1487541501950E-03
(PID.TID 0000.0001) %MON trAdv_CFL_w_max              =   1.2808490589318E-03
(PID.TID 0000.0001) %MON advcfl_uvel_max              =   1.9520500713171E-03
(PID.TID 0000.0001) %MON advcfl_vvel_max              =   1.1511227271702E-03
(PID.TID 0000.0001) %MON advcfl_wvel_max              =   2.1839597950811E-03
(PID.TID 0000.0001) %MON advcfl_W_hf_max              =   1.2808490589318E-03
(PID.TID 0000.0001) %MON pe_b_mean                    =   4.9805796021483E-04
(PID.TID 0000.0001) %MON ke_max                       =   1.9330009720229E-01
(PID.TID 0000.0001) %MON ke_mean                      =   1.6338583922480E-04
(PID.TID 0000.0001) %MON ke_vol                       =   1.3398152112993E+18
(PID.TID 0000.0001) %MON vort_r_min                   =  -2.4746578067189E-06
(PID.TID 0000.0001) %MON vort_r_max                   =   2.6009966211558E-06
(PID.TID 0000.0001) %MON vort_a_mean                  =  -2.0549865324846E-05
(PID.TID 0000.0001) %MON vort_a_sd                    =   7.5259655720229E-05
(PID.TID 0000.0001) %MON vort_p_mean                  =  -2.4783228440708E-05
(PID.TID 0000.0001) %MON vort_p_sd                    =   1.2811923315619E-04
(PID.TID 0000.0001) %MON surfExpan_theta_mean         =  -4.0771694227189E-06
(PID.TID 0000.0001) %MON surfExpan_salt_mean          =   8.6621443074850E-07
(PID.TID 0000.0001) // =======================================================
(PID.TID 0000.0001) // End MONITOR dynamic field statistics
(PID.TID 0000.0001) // =======================================================
 Computing Diagnostic #     81  oceTAUX      Counter:       1   Parms: UU      U1      
           Vector  Mate for  oceTAUX      Diagnostic #     82  oceTAUY  exists 
 Computing Diagnostic #     82  oceTAUY      Counter:       1   Parms: VV      U1      
           Vector  Mate for  oceTAUY      Diagnostic #     81  oceTAUX  exists 
 Computing Diagnostic #     85  oceFWflx     Counter:       1   Parms: SM      U1      
 Computing Diagnostic #     86  oceSflux     Counter:       1   Parms: SM      U1      
 Computing Diagnostic #     87  oceQnet      Counter:       1   Parms: SM      U1      
 Computing Diagnostic #     88  oceQsw       Counter:       1   Parms: SM      U1      
 Computing Diagnostic #     27  SALT         Counter:       1   Parms: SMR     MR      
 Computing Diagnostic #     26  THETA        Counter:       1   Parms: SMR     MR      
 Computing Diagnostic #     45  UVELMASS     Counter:       1   Parms: UUr     MR      
           Vector  Mate for  UVELMASS     Diagnostic #     46  VVELMASS exists 
 Computing Diagnostic #     46  VVELMASS     Counter:       1   Parms: VVr     MR      
           Vector  Mate for  VVELMASS     Diagnostic #     45  UVELMASS exists 
 Computing Diagnostic #     83  atmPload     Counter:       1   Parms: SM      U1      
 cg2d: Sum(rhs),rhsMax =  -8.40459468715145E+01  3.62621119050481E+01
(PID.TID 0000.0001)      cg2d_init_res =   1.75879007756680E-01
(PID.TID 0000.0001)      cg2d_iters(min,last) =      -1      10
(PID.TID 0000.0001)      cg2d_last_res =   3.70464933737752E-08
(PID.TID 0000.0001) // =======================================================
(PID.TID 0000.0001) // Begin MONITOR dynamic field statistics
(PID.TID 0000.0001) // =======================================================
(PID.TID 0000.0001) %MON time_tsnumber                =                 72092
(PID.TID 0000.0001) %MON time_secondsf                =   6.4882800000000E+07
(PID.TID 0000.0001) %MON dynstat_eta_max              =   9.6900608003517E-01
(PID.TID 0000.0001) %MON dynstat_eta_min              =  -1.5606963071714E+00
(PID.TID 0000.0001) %MON dynstat_eta_mean             =   3.5413678592339E-02
(PID.TID 0000.0001) %MON dynstat_eta_sd               =   6.1026987343379E-01
(PID.TID 0000.0001) %MON dynstat_eta_del2             =   1.2801241579981E-03
(PID.TID 0000.0001) %MON dynstat_uvel_max             =   3.4442069212030E-01
(PID.TID 0000.0001) %MON dynstat_uvel_min             =  -6.6277685745563E-01
(PID.TID 0000.0001) %MON dynstat_uvel_mean            =  -5.1437540704619E-04
(PID.TID 0000.0001) %MON dynstat_uvel_sd              =   1.2867678653171E-02
(PID.TID 0000.0001) %MON dynstat_uvel_del2            =   8.5599885958651E-05
(PID.TID 0000.0001) %MON dynstat_vvel_max             =   3.0502983410382E-01
(PID.TID 0000.0001) %MON dynstat_vvel_min             =  -3.4158741862240E-01
(PID.TID 0000.0001) %MON dynstat_vvel_mean            =   1.3276817315030E-04
(PID.TID 0000.0001) %MON dynstat_vvel_sd              =   1.3696055698855E-02
(PID.TID 0000.0001) %MON dynstat_vvel_del2            =   8.5430569230996E-05
(PID.TID 0000.0001) %MON dynstat_wvel_max             =   1.0651533343654E-04
(PID.TID 0000.0001) %MON dynstat_wvel_min             =  -1.9260810011012E-04
(PID.TID 0000.0001) %MON dynstat_wvel_mean            =  -4.3177496382963E-08
(PID.TID 0000.0001) %MON dynstat_wvel_sd              =   7.5922607227574E-06
(PID.TID 0000.0001) %MON dynstat_wvel_del2            =   6.4711243375933E-08
(PID.TID 0000.0001) %MON dynstat_theta_max            =   3.0921397620753E+01
(PID.TID 0000.0001) %MON dynstat_theta_min            =  -3.0198504512884E+00
(PID.TID 0000.0001) %MON dynstat_theta_mean           =   3.9092354312225E+00
(PID.TID 0000.0001) %MON dynstat_theta_sd             =   4.5717720438412E+00
(PID.TID 0000.0001) %MON dynstat_theta_del2           =   2.6376760264981E-03
(PID.TID 0000.0001) %MON dynstat_salt_max             =   4.1346718922920E+01
(PID.TID 0000.0001) %MON dynstat_salt_min             =   1.8519304912668E+01
(PID.TID 0000.0001) %MON dynstat_salt_mean            =   3.4771884986942E+01
(PID.TID 0000.0001) %MON dynstat_salt_sd              =   5.3233894878903E-01
(PID.TID 0000.0001) %MON dynstat_salt_del2            =   1.1482871670113E-03
(PID.TID 0000.0001) %MON dynstat_sst_max              =   3.0921397620753E+01
(PID.TID 0000.0001) %MON dynstat_sst_min              =  -1.8975124737155E+00
(PID.TID 0000.0001) %MON dynstat_sst_mean             =   1.8110736346702E+01
(PID.TID 0000.0001) %MON dynstat_sst_sd               =   9.8153953291851E+00
(PID.TID 0000.0001) %MON dynstat_sst_del2             =   1.4956837932906E-02
(PID.TID 0000.0001) %MON dynstat_sss_max              =   4.1346718922920E+01
(PID.TID 0000.0001) %MON dynstat_sss_min              =   1.8752559828560E+01
(PID.TID 0000.0001) %MON dynstat_sss_mean             =   3.4619337491921E+01
(PID.TID 0000.0001) %MON dynstat_sss_sd               =   1.4922534276919E+00
(PID.TID 0000.0001) %MON dynstat_sss_del2             =   1.3062547175139E-02
(PID.TID 0000.0001) %MON forcing_qnet_max             =   1.3505133056641E+03
(PID.TID 0000.0001) %MON forcing_qnet_min             =  -7.8712313710505E+02
(PID.TID 0000.0001) %MON forcing_qnet_mean            =  -4.2369963441441E+01
(PID.TID 0000.0001) %MON forcing_qnet_sd              =   1.9836121840209E+02
(PID.TID 0000.0001) %MON forcing_qnet_del2            =   3.1634926277052E+00
(PID.TID 0000.0001) %MON forcing_qsw_max              =   0.0000000000000E+00
(PID.TID 0000.0001) %MON forcing_qsw_min              =  -1.0723275969116E+02
(PID.TID 0000.0001) %MON forcing_qsw_mean             =  -2.0618003099047E+01
(PID.TID 0000.0001) %MON forcing_qsw_sd               =   2.9731781344654E+01
(PID.TID 0000.0001) %MON forcing_qsw_del2             =   2.3714772248461E-01
(PID.TID 0000.0001) %MON forcing_empmr_max            =   4.3222852982581E-03
(PID.TID 0000.0001) %MON forcing_empmr_min            =  -6.2141906470060E-02
(PID.TID 0000.0001) %MON forcing_empmr_mean           =  -1.8977743076618E-04
(PID.TID 0000.0001) %MON forcing_empmr_sd             =   2.7410240423094E-03
(PID.TID 0000.0001) %MON forcing_empmr_del2           =   1.0771546228190E-04
(PID.TID 0000.0001) %MON forcing_fu_max               =   2.4460032318172E-01
(PID.TID 0000.0001) %MON forcing_fu_min               =  -3.3636048920747E-01
(PID.TID 0000.0001) %MON forcing_fu_mean              =  -5.2174985875775E-03
(PID.TID 0000.0001) %MON forcing_fu_sd                =   5.5894822566004E-02
(PID.TID 0000.0001) %MON forcing_fu_del2              =   5.5882841200542E-04
(PID.TID 0000.0001) %MON forcing_fv_max               =   2.4416906536847E-01
(PID.TID 0000.0001) %MON forcing_fv_min               =  -2.5697671103609E-01
(PID.TID 0000.0001) %MON forcing_fv_mean              =  -1.5010716983087E-02
(PID.TID 0000.0001) %MON forcing_fv_sd                =   5.9171641654326E-02
(PID.TID 0000.0001) %MON forcing_fv_del2              =   4.9630204598787E-04
(PID.TID 0000.0001) %MON trAdv_CFL_u_max              =   1.9299683311138E-03
(PID.TID 0000.0001) %MON trAdv_CFL_v_max              =   1.1377919689025E-03
(PID.TID 0000.0001) %MON trAdv_CFL_w_max              =   1.2734872024368E-03
(PID.TID 0000.0001) %MON advcfl_uvel_max              =   1.9120052158730E-03
(PID.TID 0000.0001) %MON advcfl_vvel_max              =   1.1389073556255E-03
(PID.TID 0000.0001) %MON advcfl_wvel_max              =   2.1614576163499E-03
(PID.TID 0000.0001) %MON advcfl_W_hf_max              =   1.2734872024368E-03
(PID.TID 0000.0001) %MON pe_b_mean                    =   4.9781064095374E-04
(PID.TID 0000.0001) %MON ke_max                       =   1.9184174858265E-01
(PID.TID 0000.0001) %MON ke_mean                      =   1.6322485604630E-04
(PID.TID 0000.0001) %MON ke_vol                       =   1.3398152718807E+18
(PID.TID 0000.0001) %MON vort_r_min                   =  -2.5204051022556E-06
(PID.TID 0000.0001) %MON vort_r_max                   =   2.5399323290971E-06
(PID.TID 0000.0001) %MON vort_a_mean                  =  -2.0549865324846E-05
(PID.TID 0000.0001) %MON vort_a_sd                    =   7.5259655271188E-05
(PID.TID 0000.0001) %MON vort_p_mean                  =  -2.4783227371403E-05
(PID.TID 0000.0001) %MON vort_p_sd                    =   1.2811923578944E-04
(PID.TID 0000.0001) %MON surfExpan_theta_mean         =  -3.9796908415515E-06
(PID.TID 0000.0001) %MON surfExpan_salt_mean          =   8.4599677251620E-07
(PID.TID 0000.0001) // =======================================================
(PID.TID 0000.0001) // End MONITOR dynamic field statistics
(PID.TID 0000.0001) // =======================================================
 cg2d: Sum(rhs),rhsMax =  -8.43896857213323E+01  3.62809459131430E+01
(PID.TID 0000.0001)      cg2d_init_res =   1.71422859228862E-01
(PID.TID 0000.0001)      cg2d_iters(min,last) =      -1      10
(PID.TID 0000.0001)      cg2d_last_res =   3.55197755354061E-08
(PID.TID 0000.0001) // =======================================================
(PID.TID 0000.0001) // Begin MONITOR dynamic field statistics
(PID.TID 0000.0001) // =======================================================
(PID.TID 0000.0001) %MON time_tsnumber                =                 72093
(PID.TID 0000.0001) %MON time_secondsf                =   6.4883700000000E+07
(PID.TID 0000.0001) %MON dynstat_eta_max              =   9.6498927136108E-01
(PID.TID 0000.0001) %MON dynstat_eta_min              =  -1.5618456377964E+00
(PID.TID 0000.0001) %MON dynstat_eta_mean             =   3.5576985285914E-02
(PID.TID 0000.0001) %MON dynstat_eta_sd               =   6.1008534954478E-01
(PID.TID 0000.0001) %MON dynstat_eta_del2             =   1.2893567881772E-03
(PID.TID 0000.0001) %MON dynstat_uvel_max             =   3.2849351274831E-01
(PID.TID 0000.0001) %MON dynstat_uvel_min             =  -6.4676199103871E-01
(PID.TID 0000.0001) %MON dynstat_uvel_mean            =  -5.2081184446583E-04
(PID.TID 0000.0001) %MON dynstat_uvel_sd              =   1.2861963748536E-02
(PID.TID 0000.0001) %MON dynstat_uvel_del2            =   8.5555207187691E-05
(PID.TID 0000.0001) %MON dynstat_vvel_max             =   3.3182037605836E-01
(PID.TID 0000.0001) %MON dynstat_vvel_min             =  -3.4325219088296E-01
(PID.TID 0000.0001) %MON dynstat_vvel_mean            =   1.3423818552847E-04
(PID.TID 0000.0001) %MON dynstat_vvel_sd              =   1.3689433566279E-02
(PID.TID 0000.0001) %MON dynstat_vvel_del2            =   8.5062059907302E-05
(PID.TID 0000.0001) %MON dynstat_wvel_max             =   1.0675054026822E-04
(PID.TID 0000.0001) %MON dynstat_wvel_min             =  -1.9275235870092E-04
(PID.TID 0000.0001) %MON dynstat_wvel_mean            =  -4.3168068511344E-08
(PID.TID 0000.0001) %MON dynstat_wvel_sd              =   7.5991760180556E-06
(PID.TID 0000.0001) %MON dynstat_wvel_del2            =   6.4488134016979E-08
(PID.TID 0000.0001) %MON dynstat_theta_max            =   3.0921118848839E+01
(PID.TID 0000.0001) %MON dynstat_theta_min            =  -3.0205241422759E+00
(PID.TID 0000.0001) %MON dynstat_theta_mean           =   3.9092391521860E+00
(PID.TID 0000.0001) %MON dynstat_theta_sd             =   4.5717875923092E+00
(PID.TID 0000.0001) %MON dynstat_theta_del2           =   2.6375416984244E-03
(PID.TID 0000.0001) %MON dynstat_salt_max             =   4.1346772346651E+01
(PID.TID 0000.0001) %MON dynstat_salt_min             =   1.8519315040598E+01
(PID.TID 0000.0001) %MON dynstat_salt_mean            =   3.4771883622790E+01
(PID.TID 0000.0001) %MON dynstat_salt_sd              =   5.3234803636080E-01
(PID.TID 0000.0001) %MON dynstat_salt_del2            =   1.1500804929655E-03
(PID.TID 0000.0001) %MON dynstat_sst_max              =   3.0921118848839E+01
(PID.TID 0000.0001) %MON dynstat_sst_min              =  -1.8973990906973E+00
(PID.TID 0000.0001) %MON dynstat_sst_mean             =   1.8110931940760E+01
(PID.TID 0000.0001) %MON dynstat_sst_sd               =   9.8155925693276E+00
(PID.TID 0000.0001) %MON dynstat_sst_del2             =   1.4954290657463E-02
(PID.TID 0000.0001) %MON dynstat_sss_max              =   4.1346772346651E+01
(PID.TID 0000.0001) %MON dynstat_sss_min              =   1.8752572950461E+01
(PID.TID 0000.0001) %MON dynstat_sss_mean             =   3.4619234219370E+01
(PID.TID 0000.0001) %MON dynstat_sss_sd               =   1.4924767188970E+00
(PID.TID 0000.0001) %MON dynstat_sss_del2             =   1.3087502964319E-02
(PID.TID 0000.0001) %MON forcing_qnet_max             =   1.3348503417969E+03
(PID.TID 0000.0001) %MON forcing_qnet_min             =  -7.7636425971684E+02
(PID.TID 0000.0001) %MON forcing_qnet_mean            =  -4.6168373614580E+01
(PID.TID 0000.0001) %MON forcing_qnet_sd              =   2.0271919201790E+02
(PID.TID 0000.0001) %MON forcing_qnet_del2            =   3.2620165179975E+00
(PID.TID 0000.0001) %MON forcing_qsw_max              =   0.0000000000000E+00
(PID.TID 0000.0001) %MON forcing_qsw_min              =  -1.0597298293914E+02
(PID.TID 0000.0001) %MON forcing_qsw_mean             =  -2.1309241744703E+01
(PID.TID 0000.0001) %MON forcing_qsw_sd               =   3.0342523458981E+01
(PID.TID 0000.0001) %MON forcing_qsw_del2             =   2.3873942638353E-01
(PID.TID 0000.0001) %MON forcing_empmr_max            =   4.2777084745467E-03
(PID.TID 0000.0001) %MON forcing_empmr_min            =  -6.1502519994974E-02
(PID.TID 0000.0001) %MON forcing_empmr_mean           =  -1.8780269761081E-04
(PID.TID 0000.0001) %MON forcing_empmr_sd             =   2.7133990126218E-03
(PID.TID 0000.0001) %MON forcing_empmr_del2           =   1.0661075966802E-04
(PID.TID 0000.0001) %MON forcing_fu_max               =   2.4513418630934E-01
(PID.TID 0000.0001) %MON forcing_fu_min               =  -3.3677794183726E-01
(PID.TID 0000.0001) %MON forcing_fu_mean              =  -5.3164884705690E-03
(PID.TID 0000.0001) %MON forcing_fu_sd                =   5.5742691853478E-02
(PID.TID 0000.0001) %MON forcing_fu_del2              =   5.5842852688094E-04
(PID.TID 0000.0001) %MON forcing_fv_max               =   2.4004081642324E-01
(PID.TID 0000.0001) %MON forcing_fv_min               =  -2.5570538403490E-01
(PID.TID 0000.0001) %MON forcing_fv_mean              =  -1.4994583403783E-02
(PID.TID 0000.0001) %MON forcing_fv_sd                =   5.8993246702900E-02
(PID.TID 0000.0001) %MON forcing_fv_del2              =   4.9453508803061E-04
(PID.TID 0000.0001) %MON trAdv_CFL_u_max              =   1.8847992749973E-03
(PID.TID 0000.0001) %MON trAdv_CFL_v_max              =   1.2170407251285E-03
(PID.TID 0000.0001) %MON trAdv_CFL_w_max              =   1.2626230088697E-03
(PID.TID 0000.0001) %MON advcfl_uvel_max              =   1.8658048880006E-03
(PID.TID 0000.0001) %MON advcfl_vvel_max              =   1.1749574512886E-03
(PID.TID 0000.0001) %MON advcfl_wvel_max              =   2.1392180867817E-03
(PID.TID 0000.0001) %MON advcfl_W_hf_max              =   1.2626230088697E-03
(PID.TID 0000.0001) %MON pe_b_mean                    =   4.9752607810842E-04
(PID.TID 0000.0001) %MON ke_max                       =   1.8929702448266E-01
(PID.TID 0000.0001) %MON ke_mean                      =   1.6307641287192E-04
(PID.TID 0000.0001) %MON ke_vol                       =   1.3398153319307E+18
(PID.TID 0000.0001) %MON vort_r_min                   =  -2.5646530727771E-06
(PID.TID 0000.0001) %MON vort_r_max                   =   2.4712086917165E-06
(PID.TID 0000.0001) %MON vort_a_mean                  =  -2.0549865324846E-05
(PID.TID 0000.0001) %MON vort_a_sd                    =   7.5259655203875E-05
(PID.TID 0000.0001) %MON vort_p_mean                  =  -2.4783226315109E-05
(PID.TID 0000.0001) %MON vort_p_sd                    =   1.2811923726318E-04
(PID.TID 0000.0001) %MON surfExpan_theta_mean         =  -3.8839433272515E-06
(PID.TID 0000.0001) %MON surfExpan_salt_mean          =   8.2760665579697E-07
(PID.TID 0000.0001) // =======================================================
(PID.TID 0000.0001) // End MONITOR dynamic field statistics
(PID.TID 0000.0001) // =======================================================
 cg2d: Sum(rhs),rhsMax =  -8.47229587298956E+01  3.63022321303542E+01
(PID.TID 0000.0001)      cg2d_init_res =   1.66934113283741E-01
(PID.TID 0000.0001)      cg2d_iters(min,last) =      -1      10
(PID.TID 0000.0001)      cg2d_last_res =   3.62886781474938E-08
(PID.TID 0000.0001) // =======================================================
(PID.TID 0000.0001) // Begin MONITOR dynamic field statistics
(PID.TID 0000.0001) // =======================================================
(PID.TID 0000.0001) %MON time_tsnumber                =                 72094
(PID.TID 0000.0001) %MON time_secondsf                =   6.4884600000000E+07
(PID.TID 0000.0001) %MON dynstat_eta_max              =   9.6070506467305E-01
(PID.TID 0000.0001) %MON dynstat_eta_min              =  -1.5631449788067E+00
(PID.TID 0000.0001) %MON dynstat_eta_mean             =   3.5738442080768E-02
(PID.TID 0000.0001) %MON dynstat_eta_sd               =   6.0987523412189E-01
(PID.TID 0000.0001) %MON dynstat_eta_del2             =   1.2981346853463E-03
(PID.TID 0000.0001) %MON dynstat_uvel_max             =   3.1281825258285E-01
(PID.TID 0000.0001) %MON dynstat_uvel_min             =  -6.2870315247956E-01
(PID.TID 0000.0001) %MON dynstat_uvel_mean            =  -5.2661226228093E-04
(PID.TID 0000.0001) %MON dynstat_uvel_sd              =   1.2856809338673E-02
(PID.TID 0000.0001) %MON dynstat_uvel_del2            =   8.5475929013555E-05
(PID.TID 0000.0001) %MON dynstat_vvel_max             =   3.5794060778204E-01
(PID.TID 0000.0001) %MON dynstat_vvel_min             =  -3.4490389032162E-01
(PID.TID 0000.0001) %MON dynstat_vvel_mean            =   1.3769089075196E-04
(PID.TID 0000.0001) %MON dynstat_vvel_sd              =   1.3683621504507E-02
(PID.TID 0000.0001) %MON dynstat_vvel_del2            =   8.4827944137004E-05
(PID.TID 0000.0001) %MON dynstat_wvel_max             =   1.0697671046968E-04
(PID.TID 0000.0001) %MON dynstat_wvel_min             =  -1.9289073853105E-04
(PID.TID 0000.0001) %MON dynstat_wvel_mean            =  -4.3246388383288E-08
(PID.TID 0000.0001) %MON dynstat_wvel_sd              =   7.6075205222099E-06
(PID.TID 0000.0001) %MON dynstat_wvel_del2            =   6.4279452228637E-08
(PID.TID 0000.0001) %MON dynstat_theta_max            =   3.0920832269594E+01
(PID.TID 0000.0001) %MON dynstat_theta_min            =  -3.0212129245264E+00
(PID.TID 0000.0001) %MON dynstat_theta_mean           =   3.9092430003930E+00
(PID.TID 0000.0001) %MON dynstat_theta_sd             =   4.5718037938921E+00
(PID.TID 0000.0001) %MON dynstat_theta_del2           =   2.6374080970721E-03
(PID.TID 0000.0001) %MON dynstat_salt_max             =   4.1346841544941E+01
(PID.TID 0000.0001) %MON dynstat_salt_min             =   1.8519325175190E+01
(PID.TID 0000.0001) %MON dynstat_salt_mean            =   3.4771882290596E+01
(PID.TID 0000.0001) %MON dynstat_salt_sd              =   5.3235698882573E-01
(PID.TID 0000.0001) %MON dynstat_salt_del2            =   1.1518319356554E-03
(PID.TID 0000.0001) %MON dynstat_sst_max              =   3.0920832269594E+01
(PID.TID 0000.0001) %MON dynstat_sst_min              =  -1.8972944039571E+00
(PID.TID 0000.0001) %MON dynstat_sst_mean             =   1.8111139497694E+01
(PID.TID 0000.0001) %MON dynstat_sst_sd               =   9.8157973097928E+00
(PID.TID 0000.0001) %MON dynstat_sst_del2             =   1.4951768882298E-02
(PID.TID 0000.0001) %MON dynstat_sss_max              =   4.1346841544941E+01
(PID.TID 0000.0001) %MON dynstat_sss_min              =   1.8752585913673E+01
(PID.TID 0000.0001) %MON dynstat_sss_mean             =   3.4619133681132E+01
(PID.TID 0000.0001) %MON dynstat_sss_sd               =   1.4926964132481E+00
(PID.TID 0000.0001) %MON dynstat_sss_del2             =   1.3111868303430E-02
(PID.TID 0000.0001) %MON forcing_qnet_max             =   1.3201787109375E+03
(PID.TID 0000.0001) %MON forcing_qnet_min             =  -7.6536183229682E+02
(PID.TID 0000.0001) %MON forcing_qnet_mean            =  -4.8510643681708E+01
(PID.TID 0000.0001) %MON forcing_qnet_sd              =   2.0450035686719E+02
(PID.TID 0000.0001) %MON forcing_qnet_del2            =   3.1767049453081E+00
(PID.TID 0000.0001) %MON forcing_qsw_max              =   0.0000000000000E+00
(PID.TID 0000.0001) %MON forcing_qsw_min              =  -1.0463513866568E+02
(PID.TID 0000.0001) %MON forcing_qsw_mean             =  -2.1549090785023E+01
(PID.TID 0000.0001) %MON forcing_qsw_sd               =   3.0467122510438E+01
(PID.TID 0000.0001) %MON forcing_qsw_del2             =   2.4006930578528E-01
(PID.TID 0000.0001) %MON forcing_empmr_max            =   4.2337221093476E-03
(PID.TID 0000.0001) %MON forcing_empmr_min            =  -6.0869012027979E-02
(PID.TID 0000.0001) %MON forcing_empmr_mean           =  -1.8567531408225E-04
(PID.TID 0000.0001) %MON forcing_empmr_sd             =   2.6857874910853E-03
(PID.TID 0000.0001) %MON forcing_empmr_del2           =   1.0545264438829E-04
(PID.TID 0000.0001) %MON forcing_fu_max               =   2.4507884087939E-01
(PID.TID 0000.0001) %MON forcing_fu_min               =  -3.3394497593320E-01
(PID.TID 0000.0001) %MON forcing_fu_mean              =  -5.3872303546750E-03
(PID.TID 0000.0001) %MON forcing_fu_sd                =   5.5507600069408E-02
(PID.TID 0000.0001) %MON forcing_fu_del2              =   5.5667049757730E-04
(PID.TID 0000.0001) %MON forcing_fv_max               =   2.3957648426356E-01
(PID.TID 0000.0001) %MON forcing_fv_min               =  -2.5471723465291E-01
(PID.TID 0000.0001) %MON forcing_fv_mean              =  -1.4992219860488E-02
(PID.TID 0000.0001) %MON forcing_fv_sd                =   5.8830139690513E-02
(PID.TID 0000.0001) %MON forcing_fv_del2              =   4.9284565921783E-04
(PID.TID 0000.0001) %MON trAdv_CFL_u_max              =   1.8335759307624E-03
(PID.TID 0000.0001) %MON trAdv_CFL_v_max              =   1.3126053559075E-03
(PID.TID 0000.0001) %MON trAdv_CFL_w_max              =   1.2492413171158E-03
(PID.TID 0000.0001) %MON advcfl_uvel_max              =   1.8137080274520E-03
(PID.TID 0000.0001) %MON advcfl_vvel_max              =   1.2674477355132E-03
(PID.TID 0000.0001) %MON advcfl_wvel_max              =   2.1171830270601E-03
(PID.TID 0000.0001) %MON advcfl_W_hf_max              =   1.2492413171158E-03
(PID.TID 0000.0001) %MON pe_b_mean                    =   4.9719991614419E-04
(PID.TID 0000.0001) %MON ke_max                       =   1.8570672000169E-01
(PID.TID 0000.0001) %MON ke_mean                      =   1.6294492811637E-04
(PID.TID 0000.0001) %MON ke_vol                       =   1.3398153913559E+18
(PID.TID 0000.0001) %MON vort_r_min                   =  -2.6071299327828E-06
(PID.TID 0000.0001) %MON vort_r_max                   =   2.3954211023336E-06
(PID.TID 0000.0001) %MON vort_a_mean                  =  -2.0549865324846E-05
(PID.TID 0000.0001) %MON vort_a_sd                    =   7.5259655481627E-05
(PID.TID 0000.0001) %MON vort_p_mean                  =  -2.4783225272651E-05
(PID.TID 0000.0001) %MON vort_p_sd                    =   1.2811923747387E-04
(PID.TID 0000.0001) %MON surfExpan_theta_mean         =  -3.7862049047642E-06
(PID.TID 0000.0001) %MON surfExpan_salt_mean          =   8.0946264710588E-07
(PID.TID 0000.0001) // =======================================================
(PID.TID 0000.0001) // End MONITOR dynamic field statistics
(PID.TID 0000.0001) // =======================================================
 cg2d: Sum(rhs),rhsMax =  -8.50511128332369E+01  3.63247301729580E+01
(PID.TID 0000.0001)      cg2d_init_res =   1.62509236734090E-01
(PID.TID 0000.0001)      cg2d_iters(min,last) =      -1      10
(PID.TID 0000.0001)      cg2d_last_res =   3.30069612369650E-08
(PID.TID 0000.0001) // =======================================================
(PID.TID 0000.0001) // Begin MONITOR dynamic field statistics
(PID.TID 0000.0001) // =======================================================
(PID.TID 0000.0001) %MON time_tsnumber                =                 72095
(PID.TID 0000.0001) %MON time_secondsf                =   6.4885500000000E+07
(PID.TID 0000.0001) %MON dynstat_eta_max              =   9.5622919395192E-01
(PID.TID 0000.0001) %MON dynstat_eta_min              =  -1.5645917231388E+00
(PID.TID 0000.0001) %MON dynstat_eta_mean             =   3.5899100807948E-02
(PID.TID 0000.0001) %MON dynstat_eta_sd               =   6.0963848537897E-01
(PID.TID 0000.0001) %MON dynstat_eta_del2             =   1.3052641671764E-03
(PID.TID 0000.0001) %MON dynstat_uvel_max             =   2.9784906437835E-01
(PID.TID 0000.0001) %MON dynstat_uvel_min             =  -6.0870816756459E-01
(PID.TID 0000.0001) %MON dynstat_uvel_mean            =  -5.3184815541812E-04
(PID.TID 0000.0001) %MON dynstat_uvel_sd              =   1.2852169066906E-02
(PID.TID 0000.0001) %MON dynstat_uvel_del2            =   8.5366778062134E-05
(PID.TID 0000.0001) %MON dynstat_vvel_max             =   3.8286538843617E-01
(PID.TID 0000.0001) %MON dynstat_vvel_min             =  -3.4653135379107E-01
(PID.TID 0000.0001) %MON dynstat_vvel_mean            =   1.4297757522419E-04
(PID.TID 0000.0001) %MON dynstat_vvel_sd              =   1.3678909733563E-02
(PID.TID 0000.0001) %MON dynstat_vvel_del2            =   8.4737715155570E-05
(PID.TID 0000.0001) %MON dynstat_wvel_max             =   1.0718970409519E-04
(PID.TID 0000.0001) %MON dynstat_wvel_min             =  -1.9302220703415E-04
(PID.TID 0000.0001) %MON dynstat_wvel_mean            =  -4.4450830871546E-08
(PID.TID 0000.0001) %MON dynstat_wvel_sd              =   7.6173473441177E-06
(PID.TID 0000.0001) %MON dynstat_wvel_del2            =   6.4094022819317E-08
(PID.TID 0000.0001) %MON dynstat_theta_max            =   3.0920536644799E+01
(PID.TID 0000.0001) %MON dynstat_theta_min            =  -3.0219169704784E+00
(PID.TID 0000.0001) %MON dynstat_theta_mean           =   3.9092469400960E+00
(PID.TID 0000.0001) %MON dynstat_theta_sd             =   4.5718204665087E+00
(PID.TID 0000.0001) %MON dynstat_theta_del2           =   2.6372738942441E-03
(PID.TID 0000.0001) %MON dynstat_salt_max             =   4.1346927796536E+01
(PID.TID 0000.0001) %MON dynstat_salt_min             =   1.8519335316081E+01
(PID.TID 0000.0001) %MON dynstat_salt_mean            =   3.4771880976466E+01
(PID.TID 0000.0001) %MON dynstat_salt_sd              =   5.3236583515398E-01
(PID.TID 0000.0001) %MON dynstat_salt_del2            =   1.1535422638323E-03
(PID.TID 0000.0001) %MON dynstat_sst_max              =   3.0920536644799E+01
(PID.TID 0000.0001) %MON dynstat_sst_min              =  -1.8971995380551E+00
(PID.TID 0000.0001) %MON dynstat_sst_mean             =   1.8111355534455E+01
(PID.TID 0000.0001) %MON dynstat_sst_sd               =   9.8160071811817E+00
(PID.TID 0000.0001) %MON dynstat_sst_del2             =   1.4949237501292E-02
(PID.TID 0000.0001) %MON dynstat_sss_max              =   4.1346927796536E+01
(PID.TID 0000.0001) %MON dynstat_sss_min              =   1.8752598796345E+01
(PID.TID 0000.0001) %MON dynstat_sss_mean             =   3.4619034771327E+01
(PID.TID 0000.0001) %MON dynstat_sss_sd               =   1.4929132260856E+00
(PID.TID 0000.0001) %MON dynstat_sss_del2             =   1.3135655575434E-02
(PID.TID 0000.0001) %MON forcing_qnet_max             =   1.3056017727054E+03
(PID.TID 0000.0001) %MON forcing_qnet_min             =  -7.5508859556750E+02
(PID.TID 0000.0001) %MON forcing_qnet_mean            =  -5.0015614517713E+01
(PID.TID 0000.0001) %MON forcing_qnet_sd              =   2.0669361021261E+02
(PID.TID 0000.0001) %MON forcing_qnet_del2            =   3.1800443254071E+00
(PID.TID 0000.0001) %MON forcing_qsw_max              =   0.0000000000000E+00
(PID.TID 0000.0001) %MON forcing_qsw_min              =  -1.0286586615460E+02
(PID.TID 0000.0001) %MON forcing_qsw_mean             =  -2.1731014273584E+01
(PID.TID 0000.0001) %MON forcing_qsw_sd               =   3.0537806570173E+01
(PID.TID 0000.0001) %MON forcing_qsw_del2             =   2.4089541144596E-01
(PID.TID 0000.0001) %MON forcing_empmr_max            =   4.1900309734046E-03
(PID.TID 0000.0001) %MON forcing_empmr_min            =  -6.0243051499128E-02
(PID.TID 0000.0001) %MON forcing_empmr_mean           =  -1.8475753625800E-04
(PID.TID 0000.0001) %MON forcing_empmr_sd             =   2.6588460075519E-03
(PID.TID 0000.0001) %MON forcing_empmr_del2           =   1.0434748020659E-04
(PID.TID 0000.0001) %MON forcing_fu_max               =   2.3761662776388E-01
(PID.TID 0000.0001) %MON forcing_fu_min               =  -3.3371609809315E-01
(PID.TID 0000.0001) %MON forcing_fu_mean              =  -5.4716368812573E-03
(PID.TID 0000.0001) %MON forcing_fu_sd                =   5.5260262531370E-02
(PID.TID 0000.0001) %MON forcing_fu_del2              =   5.5516881057074E-04
(PID.TID 0000.0001) %MON forcing_fv_max               =   2.3385281479399E-01
(PID.TID 0000.0001) %MON forcing_fv_min               =  -2.5358334483562E-01
(PID.TID 0000.0001) %MON forcing_fv_mean              =  -1.4985333690396E-02
(PID.TID 0000.0001) %MON forcing_fv_sd                =   5.8585893161511E-02
(PID.TID 0000.0001) %MON forcing_fv_del2              =   4.9090981054795E-04
(PID.TID 0000.0001) %MON trAdv_CFL_u_max              =   1.7765900844962E-03
(PID.TID 0000.0001) %MON trAdv_CFL_v_max              =   1.4039336186325E-03
(PID.TID 0000.0001) %MON trAdv_CFL_w_max              =   1.2343088665611E-03
(PID.TID 0000.0001) %MON advcfl_uvel_max              =   1.7560256943732E-03
(PID.TID 0000.0001) %MON advcfl_vvel_max              =   1.3557049941516E-03
(PID.TID 0000.0001) %MON advcfl_wvel_max              =   2.0954104869262E-03
(PID.TID 0000.0001) %MON advcfl_W_hf_max              =   1.2343088665611E-03
(PID.TID 0000.0001) %MON pe_b_mean                    =   4.9683060411962E-04
(PID.TID 0000.0001) %MON ke_max                       =   1.8112845535099E-01
(PID.TID 0000.0001) %MON ke_mean                      =   1.6283354185949E-04
(PID.TID 0000.0001) %MON ke_vol                       =   1.3398154501078E+18
(PID.TID 0000.0001) %MON vort_r_min                   =  -2.6475542376145E-06
(PID.TID 0000.0001) %MON vort_r_max                   =   2.3132114560872E-06
(PID.TID 0000.0001) %MON vort_a_mean                  =  -2.0549865324846E-05
(PID.TID 0000.0001) %MON vort_a_sd                    =   7.5259656062204E-05
(PID.TID 0000.0001) %MON vort_p_mean                  =  -2.4783224243402E-05
(PID.TID 0000.0001) %MON vort_p_sd                    =   1.2811923634186E-04
(PID.TID 0000.0001) %MON surfExpan_theta_mean         =  -3.7265816988865E-06
(PID.TID 0000.0001) %MON surfExpan_salt_mean          =   7.9382395849888E-07
(PID.TID 0000.0001) // =======================================================
(PID.TID 0000.0001) // End MONITOR dynamic field statistics
(PID.TID 0000.0001) // =======================================================
 Computing Diagnostic #     81  oceTAUX      Counter:       1   Parms: UU      U1      
           Vector  Mate for  oceTAUX      Diagnostic #     82  oceTAUY  exists 
 Computing Diagnostic #     82  oceTAUY      Counter:       1   Parms: VV      U1      
           Vector  Mate for  oceTAUY      Diagnostic #     81  oceTAUX  exists 
 Computing Diagnostic #     85  oceFWflx     Counter:       1   Parms: SM      U1      
 Computing Diagnostic #     86  oceSflux     Counter:       1   Parms: SM      U1      
 Computing Diagnostic #     87  oceQnet      Counter:       1   Parms: SM      U1      
 Computing Diagnostic #     88  oceQsw       Counter:       1   Parms: SM      U1      
 Computing Diagnostic #     27  SALT         Counter:       1   Parms: SMR     MR      
 Computing Diagnostic #     26  THETA        Counter:       1   Parms: SMR     MR      
 Computing Diagnostic #     45  UVELMASS     Counter:       1   Parms: UUr     MR      
           Vector  Mate for  UVELMASS     Diagnostic #     46  VVELMASS exists 
 Computing Diagnostic #     46  VVELMASS     Counter:       1   Parms: VVr     MR      
           Vector  Mate for  VVELMASS     Diagnostic #     45  UVELMASS exists 
 Computing Diagnostic #     83  atmPload     Counter:       1   Parms: SM      U1      
 cg2d: Sum(rhs),rhsMax =  -8.53733819932841E+01  3.63468759666427E+01
(PID.TID 0000.0001)      cg2d_init_res =   1.58324466445557E-01
(PID.TID 0000.0001)      cg2d_iters(min,last) =      -1      10
(PID.TID 0000.0001)      cg2d_last_res =   3.32135773889510E-08
(PID.TID 0000.0001) // =======================================================
(PID.TID 0000.0001) // Begin MONITOR dynamic field statistics
(PID.TID 0000.0001) // =======================================================
(PID.TID 0000.0001) %MON time_tsnumber                =                 72096
(PID.TID 0000.0001) %MON time_secondsf                =   6.4886400000000E+07
(PID.TID 0000.0001) %MON dynstat_eta_max              =   9.5163855667993E-01
(PID.TID 0000.0001) %MON dynstat_eta_min              =  -1.5661774195558E+00
(PID.TID 0000.0001) %MON dynstat_eta_mean             =   3.6057096163809E-02
(PID.TID 0000.0001) %MON dynstat_eta_sd               =   6.0937343078960E-01
(PID.TID 0000.0001) %MON dynstat_eta_del2             =   1.3098923323108E-03
(PID.TID 0000.0001) %MON dynstat_uvel_max             =   2.8400283209761E-01
(PID.TID 0000.0001) %MON dynstat_uvel_min             =  -5.9106039400287E-01
(PID.TID 0000.0001) %MON dynstat_uvel_mean            =  -5.3657803190839E-04
(PID.TID 0000.0001) %MON dynstat_uvel_sd              =   1.2848103405011E-02
(PID.TID 0000.0001) %MON dynstat_uvel_del2            =   8.5234220163153E-05
(PID.TID 0000.0001) %MON dynstat_vvel_max             =   4.0610335291406E-01
(PID.TID 0000.0001) %MON dynstat_vvel_min             =  -3.4814460902120E-01
(PID.TID 0000.0001) %MON dynstat_vvel_mean            =   1.4990398889212E-04
(PID.TID 0000.0001) %MON dynstat_vvel_sd              =   1.3675620879991E-02
(PID.TID 0000.0001) %MON dynstat_vvel_del2            =   8.4787805385076E-05
(PID.TID 0000.0001) %MON dynstat_wvel_max             =   1.0739455416823E-04
(PID.TID 0000.0001) %MON dynstat_wvel_min             =  -1.9313941608692E-04
(PID.TID 0000.0001) %MON dynstat_wvel_mean            =  -4.4486294586495E-08
(PID.TID 0000.0001) %MON dynstat_wvel_sd              =   7.6282592605662E-06
(PID.TID 0000.0001) %MON dynstat_wvel_del2            =   6.3924312422997E-08
(PID.TID 0000.0001) %MON dynstat_theta_max            =   3.0920234294364E+01
(PID.TID 0000.0001) %MON dynstat_theta_min            =  -3.0226362706034E+00
(PID.TID 0000.0001) %MON dynstat_theta_mean           =   3.9092509240464E+00
(PID.TID 0000.0001) %MON dynstat_theta_sd             =   4.5718374514747E+00
(PID.TID 0000.0001) %MON dynstat_theta_del2           =   2.6371393353249E-03
(PID.TID 0000.0001) %MON dynstat_salt_max             =   4.1347031757269E+01
(PID.TID 0000.0001) %MON dynstat_salt_min             =   1.8519345462991E+01
(PID.TID 0000.0001) %MON dynstat_salt_mean            =   3.4771879688979E+01
(PID.TID 0000.0001) %MON dynstat_salt_sd              =   5.3237453496350E-01
(PID.TID 0000.0001) %MON dynstat_salt_del2            =   1.1552131802934E-03
(PID.TID 0000.0001) %MON dynstat_sst_max              =   3.0920234294364E+01
(PID.TID 0000.0001) %MON dynstat_sst_min              =  -1.8971154299739E+00
(PID.TID 0000.0001) %MON dynstat_sst_mean             =   1.8111579523694E+01
(PID.TID 0000.0001) %MON dynstat_sst_sd               =   9.8162198307023E+00
(PID.TID 0000.0001) %MON dynstat_sst_del2             =   1.4946708844409E-02
(PID.TID 0000.0001) %MON dynstat_sss_max              =   4.1347031757269E+01
(PID.TID 0000.0001) %MON dynstat_sss_min              =   1.8752611527109E+01
(PID.TID 0000.0001) %MON dynstat_sss_mean             =   3.4618938348413E+01
(PID.TID 0000.0001) %MON dynstat_sss_sd               =   1.4931264458902E+00
(PID.TID 0000.0001) %MON dynstat_sss_del2             =   1.3158890931859E-02
(PID.TID 0000.0001) %MON forcing_qnet_max             =   1.2910946578246E+03
(PID.TID 0000.0001) %MON forcing_qnet_min             =  -7.4502630501744E+02
(PID.TID 0000.0001) %MON forcing_qnet_mean            =  -5.1099244120130E+01
(PID.TID 0000.0001) %MON forcing_qnet_sd              =   2.0885100814180E+02
(PID.TID 0000.0001) %MON forcing_qnet_del2            =   3.2183603439979E+00
(PID.TID 0000.0001) %MON forcing_qsw_max              =   0.0000000000000E+00
(PID.TID 0000.0001) %MON forcing_qsw_min              =  -1.0154767450456E+02
(PID.TID 0000.0001) %MON forcing_qsw_mean             =  -2.1851448560827E+01
(PID.TID 0000.0001) %MON forcing_qsw_sd               =   3.0554819637732E+01
(PID.TID 0000.0001) %MON forcing_qsw_del2             =   2.4119482447790E-01
(PID.TID 0000.0001) %MON forcing_empmr_max            =   4.1469298303127E-03
(PID.TID 0000.0001) %MON forcing_empmr_min            =  -5.9622969478369E-02
(PID.TID 0000.0001) %MON forcing_empmr_mean           =  -1.8169465923946E-04
(PID.TID 0000.0001) %MON forcing_empmr_sd             =   2.6320985278493E-03
(PID.TID 0000.0001) %MON forcing_empmr_del2           =   1.0325401498005E-04
(PID.TID 0000.0001) %MON forcing_fu_max               =   2.3825531502906E-01
(PID.TID 0000.0001) %MON forcing_fu_min               =  -3.3457740663535E-01
(PID.TID 0000.0001) %MON forcing_fu_mean              =  -5.5658741390773E-03
(PID.TID 0000.0001) %MON forcing_fu_sd                =   5.5134555232888E-02
(PID.TID 0000.0001) %MON forcing_fu_del2              =   5.5446762897216E-04
(PID.TID 0000.0001) %MON forcing_fv_max               =   2.3177066057632E-01
(PID.TID 0000.0001) %MON forcing_fv_min               =  -2.5147825535180E-01
(PID.TID 0000.0001) %MON forcing_fv_mean              =  -1.4996044734590E-02
(PID.TID 0000.0001) %MON forcing_fv_sd                =   5.8377406845929E-02
(PID.TID 0000.0001) %MON forcing_fv_del2              =   4.9024733352073E-04
(PID.TID 0000.0001) %MON trAdv_CFL_u_max              =   1.7141814858735E-03
(PID.TID 0000.0001) %MON trAdv_CFL_v_max              =   1.4892535242991E-03
(PID.TID 0000.0001) %MON trAdv_CFL_w_max              =   1.2187460492324E-03
(PID.TID 0000.0001) %MON advcfl_uvel_max              =   1.6931135302000E-03
(PID.TID 0000.0001) %MON advcfl_vvel_max              =   1.4379893307569E-03
(PID.TID 0000.0001) %MON advcfl_wvel_max              =   2.0738424166389E-03
(PID.TID 0000.0001) %MON advcfl_W_hf_max              =   1.2647905164582E-03
(PID.TID 0000.0001) %MON pe_b_mean                    =   4.9641529658641E-04
(PID.TID 0000.0001) %MON ke_max                       =   1.7563417279143E-01
(PID.TID 0000.0001) %MON ke_mean                      =   1.6274706261072E-04
(PID.TID 0000.0001) %MON ke_vol                       =   1.3398155085694E+18
(PID.TID 0000.0001) %MON vort_r_min                   =  -2.6856336514639E-06
(PID.TID 0000.0001) %MON vort_r_max                   =   2.2252572191309E-06
(PID.TID 0000.0001) %MON vort_a_mean                  =  -2.0549865324846E-05
(PID.TID 0000.0001) %MON vort_a_sd                    =   7.5259656898535E-05
(PID.TID 0000.0001) %MON vort_p_mean                  =  -2.4783223217472E-05
(PID.TID 0000.0001) %MON vort_p_sd                    =   1.2811923375720E-04
(PID.TID 0000.0001) %MON surfExpan_theta_mean         =  -3.6332154816586E-06
(PID.TID 0000.0001) %MON surfExpan_salt_mean          =   7.7780135956748E-07
(PID.TID 0000.0001) // =======================================================
(PID.TID 0000.0001) // End MONITOR dynamic field statistics
(PID.TID 0000.0001) // =======================================================
(PID.TID 0000.0001) %CHECKPOINT     72096 ckptA
