(PID.TID 0000.0001) 
(PID.TID 0000.0001) // ======================================================
(PID.TID 0000.0001) //                      MITgcm UV
(PID.TID 0000.0001) //                      =========
(PID.TID 0000.0001) // ======================================================
(PID.TID 0000.0001) // execution environment starting up...
(PID.TID 0000.0001) 
(PID.TID 0000.0001) // MITgcmUV version:  checkpoint67e
(PID.TID 0000.0001) // Build user:        heracles
(PID.TID 0000.0001) // Build host:        heracles
(PID.TID 0000.0001) // Build date:        Mon Oct 29 17:30:07 EDT 2018
(PID.TID 0000.0001) 
(PID.TID 0000.0001) // =======================================================
(PID.TID 0000.0001) // Execution Environment parameter file "eedata"
(PID.TID 0000.0001) // =======================================================
(PID.TID 0000.0001) ># Example "eedata" file
(PID.TID 0000.0001) ># Lines beginning "#" are comments
(PID.TID 0000.0001) ># nTx - No. threads per process in X
(PID.TID 0000.0001) ># nTy - No. threads per process in Y
(PID.TID 0000.0001) > &EEPARMS
(PID.TID 0000.0001) > useCubedSphereExchange=.TRUE.,
(PID.TID 0000.0001) > nTx=1,
(PID.TID 0000.0001) > nTy=1,
(PID.TID 0000.0001) >#debugMode=.TRUE.,
(PID.TID 0000.0001) > /
(PID.TID 0000.0001) ># Note: Some systems use & as the namelist terminator (as shown here).
(PID.TID 0000.0001) >#       Other systems use a / character.
(PID.TID 0000.0001) 
(PID.TID 0000.0001) // =======================================================
(PID.TID 0000.0001) // Computational Grid Specification ( see files "SIZE.h" )
(PID.TID 0000.0001) //                                  ( and "eedata"       )
(PID.TID 0000.0001) // =======================================================
(PID.TID 0000.0001)      nPx =    6 ; /* No. processes in X */
(PID.TID 0000.0001)      nPy =    1 ; /* No. processes in Y */
(PID.TID 0000.0001)      nSx =    1 ; /* No. tiles in X per process */
(PID.TID 0000.0001)      nSy =    1 ; /* No. tiles in Y per process */
(PID.TID 0000.0001)      sNx =   32 ; /* Tile size in X */
(PID.TID 0000.0001)      sNy =   32 ; /* Tile size in Y */
(PID.TID 0000.0001)      OLx =    4 ; /* Tile overlap distance in X */
(PID.TID 0000.0001)      OLy =    4 ; /* Tile overlap distance in Y */
(PID.TID 0000.0001)      nTx =    1 ; /* No. threads in X per process */
(PID.TID 0000.0001)      nTy =    1 ; /* No. threads in Y per process */
(PID.TID 0000.0001)       Nr =   15 ; /* No. levels in the vertical   */
(PID.TID 0000.0001)       Nx =  192 ; /* Total domain size in X ( = nPx*nSx*sNx ) */
(PID.TID 0000.0001)       Ny =   32 ; /* Total domain size in Y ( = nPy*nSy*sNy ) */
(PID.TID 0000.0001)   nTiles =    1 ; /* Total no. tiles per process ( = nSx*nSy ) */
(PID.TID 0000.0001)   nProcs =    6 ; /* Total no. processes ( = nPx*nPy ) */
(PID.TID 0000.0001) nThreads =    1 ; /* Total no. threads per process ( = nTx*nTy ) */
(PID.TID 0000.0001) usingMPI =    T ; /* Flag used to control whether MPI is in use */
(PID.TID 0000.0001)                   /*  note: To execute a program with MPI calls */
(PID.TID 0000.0001)                   /*  it must be launched appropriately e.g     */
(PID.TID 0000.0001)                   /*  "mpirun -np 64 ......"                    */
(PID.TID 0000.0001) useCoupler=    F ;/* Flag used to control communications with   */
(PID.TID 0000.0001)                   /*  other model components, through a coupler */
(PID.TID 0000.0001) debugMode =    F ; /* print debug msg. (sequence of S/R calls)  */
(PID.TID 0000.0001) printMapIncludesZeros=    F ; /* print zeros in Std.Output maps */
(PID.TID 0000.0001) maxLengthPrt1D=   65 /* maxLength of 1D array printed to StdOut */
(PID.TID 0000.0001) 
(PID.TID 0000.0001) ======= Starting MPI parallel Run =========
(PID.TID 0000.0001)  My Processor Name (len:  8 ) = heracles
(PID.TID 0000.0001)  Located at (  0,  0) on processor grid (0:  5,0:  0)
(PID.TID 0000.0001)  Origin at  (     1,     1) on global grid (1:   192,1:    32)
(PID.TID 0000.0001)  North neighbor = processor 0000
(PID.TID 0000.0001)  South neighbor = processor 0000
(PID.TID 0000.0001)   East neighbor = processor 0001
(PID.TID 0000.0001)   West neighbor = processor 0005
(PID.TID 0000.0001) // ======================================================
(PID.TID 0000.0001) // Mapping of tiles to threads
(PID.TID 0000.0001) // ======================================================
(PID.TID 0000.0001) // -o- Thread   1, tiles (   1:   1,   1:   1)
(PID.TID 0000.0001) 
(PID.TID 0000.0001) W2_READPARMS: file data.exch2 not found
(PID.TID 0000.0001) => use W2_EXCH2 default: regular 6-facets Cube
(PID.TID 0000.0001) W2_useE2ioLayOut=    T ;/* T: use Exch2 glob IO map; F: use model default */
(PID.TID 0000.0001) W2_mapIO        =  -1 ; /* select option for Exch2 global-IO map */
(PID.TID 0000.0001) W2_printMsg     =  -1 ; /* select option for printing information */
(PID.TID 0000.0001) ===== Start setting W2 TOPOLOGY:
(PID.TID 0000.0001)  write to log-file: w2_tile_topology.0000.log
(PID.TID 0000.0001) =====       setting W2 TOPOLOGY: Done
(PID.TID 0000.0001) 
(PID.TID 0000.0001)  INI_PARMS: opening model parameter file "data"
(PID.TID 0000.0001)  OPEN_COPY_DATA_FILE: opening file data
(PID.TID 0000.0001) // =======================================================
(PID.TID 0000.0001) // Parameter file "data"
(PID.TID 0000.0001) // =======================================================
(PID.TID 0000.0001) ># ====================
(PID.TID 0000.0001) ># | Model parameters |
(PID.TID 0000.0001) ># ====================
(PID.TID 0000.0001) >#
(PID.TID 0000.0001) ># Continuous equation parameters
(PID.TID 0000.0001) > &PARM01
(PID.TID 0000.0001) > tRef=15*20.,
(PID.TID 0000.0001) > sRef=15*35.,
(PID.TID 0000.0001) > viscAh =3.E5,
(PID.TID 0000.0001) > viscAr =1.E-3,
(PID.TID 0000.0001) > diffKrT=3.E-5,
(PID.TID 0000.0001) > diffKrS=3.E-5,
(PID.TID 0000.0001) > ivdc_kappa=10.,
(PID.TID 0000.0001) > implicitDiffusion=.TRUE.,
(PID.TID 0000.0001) > rhonil=1035.,
(PID.TID 0000.0001) > rhoConstFresh=1000.,
(PID.TID 0000.0001) > eosType='JMD95Z',
(PID.TID 0000.0001) > staggerTimeStep=.TRUE.,
(PID.TID 0000.0001) > vectorInvariantMomentum=.TRUE.,
(PID.TID 0000.0001) > implicitFreeSurface=.TRUE.,
(PID.TID 0000.0001) > exactConserv=.TRUE.,
(PID.TID 0000.0001) > select_rStar=2,
(PID.TID 0000.0001) > nonlinFreeSurf=4,
(PID.TID 0000.0001) > useRealFreshWaterFlux=.TRUE.,
(PID.TID 0000.0001) > allowFreezing=.TRUE.,
(PID.TID 0000.0001) > hFacMin=.1,
(PID.TID 0000.0001) > hFacMinDr=20.,
(PID.TID 0000.0001) > readBinaryPrec=64,
(PID.TID 0000.0001) > useSingleCpuIo=.TRUE.,
(PID.TID 0000.0001) > debugLevel=2,
(PID.TID 0000.0001) > /
(PID.TID 0000.0001) >
(PID.TID 0000.0001) ># Elliptic solver parameters
(PID.TID 0000.0001) > &PARM02
(PID.TID 0000.0001) > /
(PID.TID 0000.0001) >
(PID.TID 0000.0001) ># Time stepping parameters
(PID.TID 0000.0001) > &PARM03
(PID.TID 0000.0001) > nIter0           = 72000,
(PID.TID 0000.0001) >  nTimeSteps       = 96,
(PID.TID 0000.0001) > deltaT           = 900.,
(PID.TID 0000.0001) > monitorFreq      = 1.,
(PID.TID 0000.0001) > abEps            = 0.1,
(PID.TID 0000.0001) > tracForcingOutAB = 1,
(PID.TID 0000.0001) > /
(PID.TID 0000.0001) >
(PID.TID 0000.0001) ># Gridding parameters
(PID.TID 0000.0001) > &PARM04
(PID.TID 0000.0001) > usingCurvilinearGrid=.TRUE.,
(PID.TID 0000.0001) > horizGridFile='grid_cs32',
(PID.TID 0000.0001) > delR= 50., 70., 100., 140., 190.,
(PID.TID 0000.0001) >       240., 290., 340., 390., 440.,
(PID.TID 0000.0001) >       490., 540., 590., 640., 690.,
(PID.TID 0000.0001) > /
(PID.TID 0000.0001) >
(PID.TID 0000.0001) ># Input datasets
(PID.TID 0000.0001) > &PARM05
(PID.TID 0000.0001) > bathyFile      ='bathy_Hmin50.bin',
(PID.TID 0000.0001) > /
(PID.TID 0000.0001) 
(PID.TID 0000.0001)  INI_PARMS ; starts to read PARM01
(PID.TID 0000.0001)  INI_PARMS ; read PARM01 : OK
(PID.TID 0000.0001)  INI_PARMS ; starts to read PARM02
(PID.TID 0000.0001)  INI_PARMS ; read PARM02 : OK
(PID.TID 0000.0001)  INI_PARMS ; starts to read PARM03
(PID.TID 0000.0001)  INI_PARMS ; read PARM03 : OK
(PID.TID 0000.0001)  INI_PARMS ; starts to read PARM04
(PID.TID 0000.0001)  INI_PARMS ; read PARM04 : OK
(PID.TID 0000.0001)  INI_PARMS ; starts to read PARM05
(PID.TID 0000.0001)  INI_PARMS ; read PARM05 : OK
(PID.TID 0000.0001)  INI_PARMS: finished reading file "data"
(PID.TID 0000.0001)  PACKAGES_BOOT: opening data.pkg
(PID.TID 0000.0001)  OPEN_COPY_DATA_FILE: opening file data.pkg
(PID.TID 0000.0001) // =======================================================
(PID.TID 0000.0001) // Parameter file "data.pkg"
(PID.TID 0000.0001) // =======================================================
(PID.TID 0000.0001) ># Packages
(PID.TID 0000.0001) > &PACKAGES
(PID.TID 0000.0001) > useGMRedi=.TRUE.,
(PID.TID 0000.0001) > useDiagnostics=.TRUE.,
(PID.TID 0000.0001) > /
(PID.TID 0000.0001) 
(PID.TID 0000.0001)  PACKAGES_BOOT: finished reading data.pkg
(PID.TID 0000.0001)  PACKAGES_BOOT: On/Off package Summary
 --------  pkgs with a standard "usePKG" On/Off switch in "data.pkg":  --------
 pkg/gmredi               compiled   and   used ( useGMRedi                = T )
 pkg/bulk_force           compiled but not used ( useBulkForce             = F )
 pkg/diagnostics          compiled   and   used ( useDiagnostics           = T )
 -------- pkgs without standard "usePKG" On/Off switch in "data.pkg":  --------
 pkg/generic_advdiff      compiled   and   used ( useGAD                   = T )
 pkg/mom_common           compiled   and   used ( momStepping              = T )
 pkg/mom_vecinv           compiled   and   used ( +vectorInvariantMomentum = T )
 pkg/mom_fluxform         compiled but not used ( & not vectorInvariantMom = F )
 pkg/monitor              compiled   and   used ( monitorFreq > 0.         = T )
 pkg/timeave              compiled but not used ( taveFreq > 0.            = F )
 pkg/debug                compiled but not used ( debugMode                = F )
 pkg/exch2                compiled   and   used
 pkg/rw                   compiled   and   used
 pkg/mdsio                compiled   and   used
(PID.TID 0000.0001)  PACKAGES_BOOT: End of package Summary
(PID.TID 0000.0001) 
(PID.TID 0000.0001)  GM_READPARMS: opening data.gmredi
(PID.TID 0000.0001)  OPEN_COPY_DATA_FILE: opening file data.gmredi
(PID.TID 0000.0001) // =======================================================
(PID.TID 0000.0001) // Parameter file "data.gmredi"
(PID.TID 0000.0001) // =======================================================
(PID.TID 0000.0001) ># GM+Redi package parameters:
(PID.TID 0000.0001) >
(PID.TID 0000.0001) >#-from MOM :
(PID.TID 0000.0001) ># GM_background_K: 	G & Mc.W  diffusion coefficient
(PID.TID 0000.0001) ># GM_maxSlope    :	max slope of isopycnals
(PID.TID 0000.0001) ># GM_Scrit       :	transition for scaling diffusion coefficient
(PID.TID 0000.0001) ># GM_Sd          :	half width scaling for diffusion coefficient
(PID.TID 0000.0001) ># GM_taper_scheme:	slope clipping or one of the tapering schemes
(PID.TID 0000.0001) ># GM_Kmin_horiz  :	horizontal diffusion minimum value
(PID.TID 0000.0001) >
(PID.TID 0000.0001) >#-Option parameters (needs to "define" options in GMREDI_OPTIONS.h")
(PID.TID 0000.0001) ># GM_isopycK     :	isopycnal diffusion coefficient (default=GM_background_K)
(PID.TID 0000.0001) ># GM_AdvForm     :	turn on GM Advective form       (default=Skew flux form)
(PID.TID 0000.0001) >
(PID.TID 0000.0001) > &GM_PARM01
(PID.TID 0000.0001) >  GM_background_K    = 800.,
(PID.TID 0000.0001) >  GM_taper_scheme    = 'gkw91',
(PID.TID 0000.0001) >  GM_maxSlope        = 1.e-2,
(PID.TID 0000.0001) >  GM_Kmin_horiz      = 50.,
(PID.TID 0000.0001) >  GM_Scrit           = 4.e-3,
(PID.TID 0000.0001) >  GM_Sd              = 1.e-3,
(PID.TID 0000.0001) ># GM_Visbeck_alpha   = 0.,
(PID.TID 0000.0001) ># GM_Visbeck_length  = 2.e+5,
(PID.TID 0000.0001) ># GM_Visbeck_depth   = 1.e+3,
(PID.TID 0000.0001) ># GM_Visbeck_maxval_K= 2.5e+3,
(PID.TID 0000.0001) > /
(PID.TID 0000.0001) >
(PID.TID 0000.0001) >
(PID.TID 0000.0001) 
(PID.TID 0000.0001)  GM_READPARMS: finished reading data.gmredi
(PID.TID 0000.0001)  DIAGNOSTICS_READPARMS: opening data.diagnostics
(PID.TID 0000.0001)  OPEN_COPY_DATA_FILE: opening file data.diagnostics
(PID.TID 0000.0001) // =======================================================
(PID.TID 0000.0001) // Parameter file "data.diagnostics"
(PID.TID 0000.0001) // =======================================================
(PID.TID 0000.0001) ># Diagnostic Package Choices
(PID.TID 0000.0001) >#--------------------
(PID.TID 0000.0001) >#  dumpAtLast (logical): always write output at the end of simulation (default=F)
(PID.TID 0000.0001) >#  diag_mnc   (logical): write to NetCDF files (default=useMNC)
(PID.TID 0000.0001) >#--for each output-stream:
(PID.TID 0000.0001) >#  fileName(n) : prefix of the output file name (max 80c long) for outp.stream n
(PID.TID 0000.0001) >#  frequency(n):< 0 : write snap-shot output every |frequency| seconds
(PID.TID 0000.0001) >#               > 0 : write time-average output every frequency seconds
(PID.TID 0000.0001) >#  timePhase(n)     : write at time = timePhase + multiple of |frequency|
(PID.TID 0000.0001) >#    averagingFreq  : frequency (in s) for periodic averaging interval
(PID.TID 0000.0001) >#    averagingPhase : phase     (in s) for periodic averaging interval
(PID.TID 0000.0001) >#    repeatCycle    : number of averaging intervals in 1 cycle
(PID.TID 0000.0001) >#  levels(:,n) : list of levels to write to file (Notes: declared as REAL)
(PID.TID 0000.0001) >#                when this entry is missing, select all common levels of this list
(PID.TID 0000.0001) >#  fields(:,n) : list of selected diagnostics fields (8.c) in outp.stream n
(PID.TID 0000.0001) >#                (see "available_diagnostics.log" file for the full list of diags)
(PID.TID 0000.0001) >#  missing_value(n) : missing value for real-type fields in output file "n"
(PID.TID 0000.0001) >#  fileFlags(n)     : specific code (8c string) for output file "n"
(PID.TID 0000.0001) >#--------------------
(PID.TID 0000.0001) ># oceTAUX  zonal surface wind stress, >0 increases uVel (N/m^2)
(PID.TID 0000.0001) ># oceTAUY  meridional surf. wind stress, >0 increases vVel (N/m^2)
(PID.TID 0000.0001) ># oceFWflx net surface Fresh-Water flux into ocean, >0 decreases salinity (kg/m^2/s)
(PID.TID 0000.0001) ># oceSflux net surface Salt flux into the ocean, >0 increases salinity (g/m^2/s)
(PID.TID 0000.0001) ># oceQnet  net surface heat flux into the ocean, >0 increases theta (W/m^2)
(PID.TID 0000.0001) ># oceQsw   net Short-Wave radiation (+=down), >0 increases theta (W/m^2)
(PID.TID 0000.0001) ># SSS      Sea Surface Salinity (g/kg)
(PID.TID 0000.0001) ># SST      Sea Surface Temperature (degC)
(PID.TID 0000.0001) ># UVEL1    Zonal Surface Velocity (m/s)
(PID.TID 0000.0001) ># VVEL1    Meridional Surface Velocity (m/s)
(PID.TID 0000.0001) >
(PID.TID 0000.0001) > &DIAGNOSTICS_LIST
(PID.TID 0000.0001) >   frequency(1)  = -3600.,
(PID.TID 0000.0001) >    fields(1,1)  = 'oceTAUX ',
(PID.TID 0000.0001) >    filename(1)  = 'oceTAUX',
(PID.TID 0000.0001) >   frequency(2)  = -3600.,
(PID.TID 0000.0001) >    fields(1,2)  = 'oceTAUY ',
(PID.TID 0000.0001) >    filename(2)  = 'oceTAUY',
(PID.TID 0000.0001) >   frequency(3)  = -3600.,
(PID.TID 0000.0001) >    fields(1,3)  = 'oceFWflx',
(PID.TID 0000.0001) >    filename(3)  = 'oceFWflx',
(PID.TID 0000.0001) >   frequency(4)  = -3600.,
(PID.TID 0000.0001) >    fields(1,4)  = 'oceSflux',
(PID.TID 0000.0001) >    filename(4)  = 'oceSflux',
(PID.TID 0000.0001) >   frequency(5)  = -3600.,
(PID.TID 0000.0001) >    fields(1,5)  = 'oceQnet ',
(PID.TID 0000.0001) >    filename(5)  = 'oceQnet',
(PID.TID 0000.0001) >   frequency(6)  = -3600.,
(PID.TID 0000.0001) >    fields(1,6)  = 'oceQsw  ',
(PID.TID 0000.0001) >    filename(6)  = 'oceQsw',
(PID.TID 0000.0001) >   frequency(7)  = -3600.,
(PID.TID 0000.0001) >    fields(1,7)  = 'SALT    ',
(PID.TID 0000.0001) >    levels(1,7)  = 1.,
(PID.TID 0000.0001) >    filename(7)  = 'SSS',
(PID.TID 0000.0001) >   frequency(8)  = -3600.,
(PID.TID 0000.0001) >    fields(1,8)  = 'THETA   ',
(PID.TID 0000.0001) >    levels(1,8)  = 1.,
(PID.TID 0000.0001) >    filename(8)  = 'SST',
(PID.TID 0000.0001) >   frequency(9)  = -3600.,
(PID.TID 0000.0001) >    fields(1,9)  = 'UVELMASS',
(PID.TID 0000.0001) >    levels(1,9)  = 1.,
(PID.TID 0000.0001) >    filename(9)  = 'UVEL1',
(PID.TID 0000.0001) >   frequency(10) = -3600.,
(PID.TID 0000.0001) >    fields(1,10) = 'VVELMASS',
(PID.TID 0000.0001) >    levels(1,10) = 1.,
(PID.TID 0000.0001) >    filename(10) = 'VVEL1',
(PID.TID 0000.0001) >   frequency(11) = -3600.,
(PID.TID 0000.0001) >    fields(1,11) = 'atmPload',
(PID.TID 0000.0001) >    filename(11) = 'atmPload',
(PID.TID 0000.0001) > /
(PID.TID 0000.0001) >
(PID.TID 0000.0001) > &DIAG_STATIS_PARMS
(PID.TID 0000.0001) > /
(PID.TID 0000.0001) 
(PID.TID 0000.0001) S/R DIAGNOSTICS_READPARMS, read namelist "diagnostics_list": start
(PID.TID 0000.0001) S/R DIAGNOSTICS_READPARMS, read namelist "diagnostics_list": OK
(PID.TID 0000.0001) S/R DIAGNOSTICS_READPARMS, read namelist "DIAG_STATIS_PARMS": start
(PID.TID 0000.0001) S/R DIAGNOSTICS_READPARMS, read namelist "DIAG_STATIS_PARMS": OK
(PID.TID 0000.0001)  DIAGNOSTICS_READPARMS: global parameter summary:
(PID.TID 0000.0001)  dumpAtLast = /* always write time-ave diags at the end */
(PID.TID 0000.0001)                   F
(PID.TID 0000.0001)     ;
(PID.TID 0000.0001)  diag_mnc =   /* write NetCDF output files */
(PID.TID 0000.0001)                   F
(PID.TID 0000.0001)     ;
(PID.TID 0000.0001)  useMissingValue = /* put MissingValue where mask = 0 */
(PID.TID 0000.0001)                   F
(PID.TID 0000.0001)     ;
(PID.TID 0000.0001)  diagCG_maxIters = /* max number of iters in diag_cg2d */
(PID.TID 0000.0001)                     150
(PID.TID 0000.0001)     ;
(PID.TID 0000.0001)  diagCG_resTarget = /* residual target for diag_cg2d */
(PID.TID 0000.0001)                 1.000000000000000E-07
(PID.TID 0000.0001)     ;
(PID.TID 0000.0001)  diagCG_pcOffDFac = /* preconditioner off-diagonal factor */
(PID.TID 0000.0001)                 9.611687812379854E-01
(PID.TID 0000.0001)     ;
(PID.TID 0000.0001) -----------------------------------------------------
(PID.TID 0000.0001)  DIAGNOSTICS_READPARMS: active diagnostics summary:
(PID.TID 0000.0001) -----------------------------------------------------
(PID.TID 0000.0001) Creating Output Stream: oceTAUX
(PID.TID 0000.0001) Output Frequency:      -3600.000000 ; Phase:        1800.000000
(PID.TID 0000.0001)  Averaging Freq.:          0.000000 , Phase:           0.000000 , Cycle:   1
(PID.TID 0000.0001)  missing value: -9.990000000000E+02
(PID.TID 0000.0001)  Levels:    will be set later
(PID.TID 0000.0001)  Fields:    oceTAUX
(PID.TID 0000.0001) Creating Output Stream: oceTAUY
(PID.TID 0000.0001) Output Frequency:      -3600.000000 ; Phase:        1800.000000
(PID.TID 0000.0001)  Averaging Freq.:          0.000000 , Phase:           0.000000 , Cycle:   1
(PID.TID 0000.0001)  missing value: -9.990000000000E+02
(PID.TID 0000.0001)  Levels:    will be set later
(PID.TID 0000.0001)  Fields:    oceTAUY
(PID.TID 0000.0001) Creating Output Stream: oceFWflx
(PID.TID 0000.0001) Output Frequency:      -3600.000000 ; Phase:        1800.000000
(PID.TID 0000.0001)  Averaging Freq.:          0.000000 , Phase:           0.000000 , Cycle:   1
(PID.TID 0000.0001)  missing value: -9.990000000000E+02
(PID.TID 0000.0001)  Levels:    will be set later
(PID.TID 0000.0001)  Fields:    oceFWflx
(PID.TID 0000.0001) Creating Output Stream: oceSflux
(PID.TID 0000.0001) Output Frequency:      -3600.000000 ; Phase:        1800.000000
(PID.TID 0000.0001)  Averaging Freq.:          0.000000 , Phase:           0.000000 , Cycle:   1
(PID.TID 0000.0001)  missing value: -9.990000000000E+02
(PID.TID 0000.0001)  Levels:    will be set later
(PID.TID 0000.0001)  Fields:    oceSflux
(PID.TID 0000.0001) Creating Output Stream: oceQnet
(PID.TID 0000.0001) Output Frequency:      -3600.000000 ; Phase:        1800.000000
(PID.TID 0000.0001)  Averaging Freq.:          0.000000 , Phase:           0.000000 , Cycle:   1
(PID.TID 0000.0001)  missing value: -9.990000000000E+02
(PID.TID 0000.0001)  Levels:    will be set later
(PID.TID 0000.0001)  Fields:    oceQnet
(PID.TID 0000.0001) Creating Output Stream: oceQsw
(PID.TID 0000.0001) Output Frequency:      -3600.000000 ; Phase:        1800.000000
(PID.TID 0000.0001)  Averaging Freq.:          0.000000 , Phase:           0.000000 , Cycle:   1
(PID.TID 0000.0001)  missing value: -9.990000000000E+02
(PID.TID 0000.0001)  Levels:    will be set later
(PID.TID 0000.0001)  Fields:    oceQsw
(PID.TID 0000.0001) Creating Output Stream: SSS
(PID.TID 0000.0001) Output Frequency:      -3600.000000 ; Phase:        1800.000000
(PID.TID 0000.0001)  Averaging Freq.:          0.000000 , Phase:           0.000000 , Cycle:   1
(PID.TID 0000.0001)  missing value: -9.990000000000E+02
(PID.TID 0000.0001)  Levels:       1.
(PID.TID 0000.0001)  Fields:    SALT
(PID.TID 0000.0001) Creating Output Stream: SST
(PID.TID 0000.0001) Output Frequency:      -3600.000000 ; Phase:        1800.000000
(PID.TID 0000.0001)  Averaging Freq.:          0.000000 , Phase:           0.000000 , Cycle:   1
(PID.TID 0000.0001)  missing value: -9.990000000000E+02
(PID.TID 0000.0001)  Levels:       1.
(PID.TID 0000.0001)  Fields:    THETA
(PID.TID 0000.0001) Creating Output Stream: UVEL1
(PID.TID 0000.0001) Output Frequency:      -3600.000000 ; Phase:        1800.000000
(PID.TID 0000.0001)  Averaging Freq.:          0.000000 , Phase:           0.000000 , Cycle:   1
(PID.TID 0000.0001)  missing value: -9.990000000000E+02
(PID.TID 0000.0001)  Levels:       1.
(PID.TID 0000.0001)  Fields:    UVELMASS
(PID.TID 0000.0001) Creating Output Stream: VVEL1
(PID.TID 0000.0001) Output Frequency:      -3600.000000 ; Phase:        1800.000000
(PID.TID 0000.0001)  Averaging Freq.:          0.000000 , Phase:           0.000000 , Cycle:   1
(PID.TID 0000.0001)  missing value: -9.990000000000E+02
(PID.TID 0000.0001)  Levels:       1.
(PID.TID 0000.0001)  Fields:    VVELMASS
(PID.TID 0000.0001) Creating Output Stream: atmPload
(PID.TID 0000.0001) Output Frequency:      -3600.000000 ; Phase:        1800.000000
(PID.TID 0000.0001)  Averaging Freq.:          0.000000 , Phase:           0.000000 , Cycle:   1
(PID.TID 0000.0001)  missing value: -9.990000000000E+02
(PID.TID 0000.0001)  Levels:    will be set later
(PID.TID 0000.0001)  Fields:    atmPload
(PID.TID 0000.0001) -----------------------------------------------------
(PID.TID 0000.0001)  DIAGNOSTICS_READPARMS: statistics diags. summary:
(PID.TID 0000.0001) -----------------------------------------------------
(PID.TID 0000.0001) 
(PID.TID 0000.0001) SET_PARMS: done
(PID.TID 0000.0001) Enter INI_VERTICAL_GRID: setInterFDr=    T ; setCenterDr=    F
(PID.TID 0000.0001) tile:   1 ; Read from file grid_cs32.face001.bin
(PID.TID 0000.0001)   => xC yC dxF dyF rA xG yG dxV dyU rAz dxC dyC rAw rAs dxG dyG AngleCS AngleSN
(PID.TID 0000.0001) %MON XC_max                       =   1.7854351589505E+02
(PID.TID 0000.0001) %MON XC_min                       =  -1.7854351589505E+02
(PID.TID 0000.0001) %MON XC_mean                      =  -4.6999441375798E-15
(PID.TID 0000.0001) %MON XC_sd                        =   1.0355545336287E+02
(PID.TID 0000.0001) %MON XG_max                       =   1.8000000000000E+02
(PID.TID 0000.0001) %MON XG_min                       =  -1.7708797161002E+02
(PID.TID 0000.0001) %MON XG_mean                      =   1.8603515625000E+00
(PID.TID 0000.0001) %MON XG_sd                        =   1.0357130300504E+02
(PID.TID 0000.0001) %MON DXC_max                      =   3.2375185836900E+05
(PID.TID 0000.0001) %MON DXC_min                      =   1.1142031410131E+05
(PID.TID 0000.0001) %MON DXC_mean                     =   2.8605689051214E+05
(PID.TID 0000.0001) %MON DXC_sd                       =   3.4042087138252E+04
(PID.TID 0000.0001) %MON DXF_max                      =   3.2369947500827E+05
(PID.TID 0000.0001) %MON DXF_min                      =   1.2020820513318E+05
(PID.TID 0000.0001) %MON DXF_mean                     =   2.8605437324820E+05
(PID.TID 0000.0001) %MON DXF_sd                       =   3.4050524252539E+04
(PID.TID 0000.0001) %MON DXG_max                      =   3.2375195872773E+05
(PID.TID 0000.0001) %MON DXG_min                      =   1.0098378008791E+05
(PID.TID 0000.0001) %MON DXG_mean                     =   2.8603818508931E+05
(PID.TID 0000.0001) %MON DXG_sd                       =   3.4140406908005E+04
(PID.TID 0000.0001) %MON DXV_max                      =   3.2380418162750E+05
(PID.TID 0000.0001) %MON DXV_min                      =   8.0152299824136E+04
(PID.TID 0000.0001) %MON DXV_mean                     =   2.8603970633619E+05
(PID.TID 0000.0001) %MON DXV_sd                       =   3.4145142117723E+04
(PID.TID 0000.0001) %MON YC_max                       =   8.7940663871962E+01
(PID.TID 0000.0001) %MON YC_min                       =  -8.7940663871962E+01
(PID.TID 0000.0001) %MON YC_mean                      =   0.0000000000000E+00
(PID.TID 0000.0001) %MON YC_sd                        =   3.8676242969072E+01
(PID.TID 0000.0001) %MON YG_max                       =   9.0000000000000E+01
(PID.TID 0000.0001) %MON YG_min                       =  -9.0000000000000E+01
(PID.TID 0000.0001) %MON YG_mean                      =  -1.1842378929335E-15
(PID.TID 0000.0001) %MON YG_sd                        =   3.8676895860710E+01
(PID.TID 0000.0001) %MON DYC_max                      =   3.2375185836900E+05
(PID.TID 0000.0001) %MON DYC_min                      =   1.1142031410131E+05
(PID.TID 0000.0001) %MON DYC_mean                     =   2.8605689051214E+05
(PID.TID 0000.0001) %MON DYC_sd                       =   3.4042087138252E+04
(PID.TID 0000.0001) %MON DYF_max                      =   3.2369947500827E+05
(PID.TID 0000.0001) %MON DYF_min                      =   1.2020820513318E+05
(PID.TID 0000.0001) %MON DYF_mean                     =   2.8605437324820E+05
(PID.TID 0000.0001) %MON DYF_sd                       =   3.4050524252539E+04
(PID.TID 0000.0001) %MON DYG_max                      =   3.2375195872773E+05
(PID.TID 0000.0001) %MON DYG_min                      =   1.0098378008791E+05
(PID.TID 0000.0001) %MON DYG_mean                     =   2.8603818508931E+05
(PID.TID 0000.0001) %MON DYG_sd                       =   3.4140406908005E+04
(PID.TID 0000.0001) %MON DYU_max                      =   3.2380418162750E+05
(PID.TID 0000.0001) %MON DYU_min                      =   8.0152299824136E+04
(PID.TID 0000.0001) %MON DYU_mean                     =   2.8603970633619E+05
(PID.TID 0000.0001) %MON DYU_sd                       =   3.4145142117723E+04
(PID.TID 0000.0001) %MON RA_max                       =   1.0479260248419E+11
(PID.TID 0000.0001) %MON RA_min                       =   1.4019007022556E+10
(PID.TID 0000.0001) %MON RA_mean                      =   8.2992246709265E+10
(PID.TID 0000.0001) %MON RA_sd                        =   1.7509089299457E+10
(PID.TID 0000.0001) %MON RAW_max                      =   1.0480965274559E+11
(PID.TID 0000.0001) %MON RAW_min                      =   1.2166903467143E+10
(PID.TID 0000.0001) %MON RAW_mean                     =   8.2992246709235E+10
(PID.TID 0000.0001) %MON RAW_sd                       =   1.7481917919656E+10
(PID.TID 0000.0001) %MON RAS_max                      =   1.0480965274559E+11
(PID.TID 0000.0001) %MON RAS_min                      =   1.2166903467143E+10
(PID.TID 0000.0001) %MON RAS_mean                     =   8.2992246709235E+10
(PID.TID 0000.0001) %MON RAS_sd                       =   1.7481917919656E+10
(PID.TID 0000.0001) %MON RAZ_max                      =   1.0484349334619E+11
(PID.TID 0000.0001) %MON RAZ_min                      =   8.8317900612505E+09
(PID.TID 0000.0001) %MON RAZ_mean                     =   8.2992246709235E+10
(PID.TID 0000.0001) %MON RAZ_sd                       =   1.7482297311044E+10
(PID.TID 0000.0001) %MON AngleCS_max                  =   9.9999994756719E-01
(PID.TID 0000.0001) %MON AngleCS_min                  =  -9.9968286884824E-01
(PID.TID 0000.0001) %MON AngleCS_mean                 =   3.3078922539000E-01
(PID.TID 0000.0001) %MON AngleCS_sd                   =   6.2496278958502E-01
(PID.TID 0000.0001) %MON AngleSN_max                  =   9.9968286884824E-01
(PID.TID 0000.0001) %MON AngleSN_min                  =  -9.9999994756719E-01
(PID.TID 0000.0001) %MON AngleSN_mean                 =  -3.3078922539000E-01
(PID.TID 0000.0001) %MON AngleSN_sd                   =   6.2496278958502E-01
(PID.TID 0000.0001)  MDS_READ_FIELD: opening global file: bathy_Hmin50.bin
(PID.TID 0000.0001) // =======================================================
(PID.TID 0000.0001) // Field Model R_low (ini_masks_etc)
(PID.TID 0000.0001) // CMIN =         -5.200000000000000E+03
(PID.TID 0000.0001) // CMAX =         -5.000000000000000E+01
(PID.TID 0000.0001) // CINT =          1.907407407407407E+02
(PID.TID 0000.0001) // SYMBOLS (CMIN->CMAX): -abcdefghijklmnopqrstuvwxyz+
(PID.TID 0000.0001) //                  0.0: .
(PID.TID 0000.0001) // RANGE I (Lo:Hi:Step):(    -3:    36:     1)
(PID.TID 0000.0001) // RANGE J (Lo:Hi:Step):(    36:    -3:    -1)
(PID.TID 0000.0001) // RANGE K (Lo:Hi:Step):(   1:   1:   1)
(PID.TID 0000.0001) // =======================================================
(PID.TID 0000.0001) K =   1
(PID.TID 0000.0001) //                I=6       I=16      I=26      I=36
(PID.TID 0000.0001) // |--J--|321012345|789012345|789012345|789012345|
(PID.TID 0000.0001) //     36 cbbc-ddcbcdehkhhmn..++..................
(PID.TID 0000.0001) //     35 dcac--cbbeefjkfefw+..........zpu........
(PID.TID 0000.0001) //     34 d--ba-abcehjnldcclz+........spps........
(PID.TID 0000.0001) //     33 --abbbccceiomkfdbbc+.......+s...........
(PID.TID 0000.0001) //     32 --bddefhhkqqlgfaakqz..v.+..+............
(PID.TID 0000.0001) //     31 abbcffijnpnqneaaat..umrr+s.z............
(PID.TID 0000.0001) //     30 --adgillkkkifcadcx.ymmqzqikvnnps........
(PID.TID 0000.0001) //     29 --cfiljigfjd--efdozy...+ximpnnuz........
(PID.TID 0000.0001) //     28 -abgkhfcccea-bdei........t..............
(PID.TID 0000.0001) //     27 -acghfbaaaa-achmy......................+
(PID.TID 0000.0001) //     26 -adhfca-----bfiv.......................+
(PID.TID 0000.0001) //     25 -achfa------ch+..................w......
(PID.TID 0000.0001) //     24 aaeifa--acbcei...................w......
(PID.TID 0000.0001) //     23 abfida-aabchjk...................zz.....
(PID.TID 0000.0001) //     22 -afhfaa---bfgi....................zz..rn
(PID.TID 0000.0001) //     21 babcgca----abe.....................ysstl
(PID.TID 0000.0001) //     20 fbbbcgfcaa-aae+.......................lc
(PID.TID 0000.0001) //     19 zmfeccdghfeegcbt......................aa
(PID.TID 0000.0001) //     18 ..wifedfkhfegbbcivlqfoz..............jaa
(PID.TID 0000.0001) //     17 ..+wfeefikhgcbbccaaacgn.............icaa
(PID.TID 0000.0001) //     16 ....wiheddeccdfhfbabdfl............jdbad
(PID.TID 0000.0001) //     15 ......ylea--acfihebcbbes..........sfcbbn
(PID.TID 0000.0001) //     14 ........c---acgkhdcc--di..........ofddch
(PID.TID 0000.0001) //     13 .......+b----cfkhec---afz.........nhfdff
(PID.TID 0000.0001) //     12 .......ec----chjhec---ag..........skiqdd
(PID.TID 0000.0001) //     11 ......pdca--achlheba--ai..........nkn.fd
(PID.TID 0000.0001) //     10 ......wfdb--achlhea---an.........uos..dc
(PID.TID 0000.0001) //      9 ......vgec---bfikca--cjl+.......+nnv.+cc
(PID.TID 0000.0001) //      8 .....zleca---afjfca--hdfz.......vkky.jce
(PID.TID 0000.0001) //      7 ...+zohec--abcfkhecbchbdx.......qiht.faa
(PID.TID 0000.0001) //      6 ..+yomfddcaabefkifdchaadt......uqdeisc--
(PID.TID 0000.0001) //      5 ..+nhgffkghccfhkhffgdaackz....uoibcimlaa
(PID.TID 0000.0001) //      4 .+ujhgfllfhdffhkfffca-aady...llnabdopfcb
(PID.TID 0000.0001) //      3 +vjggfcceeffffjlkjgaa---bfvheeln-aesphfd
(PID.TID 0000.0001) //      2 qifeecbbccddefilihecbaacbaajfega-aesqhff
(PID.TID 0000.0001) //      1 ebbbbaaaaaccdfhlhfefdcccaabjefbaaafonhgl
(PID.TID 0000.0001) //      0 -aaaaaaa-aacccfikkhecccbbbaaabaadfkllilm
(PID.TID 0000.0001) //     -1 --aaaaa----aacffiljgfffcca--adfikkiikimi
(PID.TID 0000.0001) //     -2 --aaa-------acdefinmlgiieb-chnnnmlmlfklk
(PID.TID 0000.0001) //     -3 a--a---aa---aedeegknmlgiigcdfhpokkimdkmk
(PID.TID 0000.0001) // =======================================================
(PID.TID 0000.0001) // END OF FIELD                                          =
(PID.TID 0000.0001) // =======================================================
(PID.TID 0000.0001) 
(PID.TID 0000.0001) // =======================================================
(PID.TID 0000.0001) // Field Model Ro_surf (ini_masks_etc)
(PID.TID 0000.0001) // CMIN =          1.000000000000000E+32
(PID.TID 0000.0001) // CMAX =         -1.000000000000000E+32
(PID.TID 0000.0001) // CINT =          0.000000000000000E+00
(PID.TID 0000.0001) // SYMBOLS (CMIN->CMAX): -abcdefghijklmnopqrstuvwxyz+
(PID.TID 0000.0001) //                  0.0: .
(PID.TID 0000.0001) // RANGE I (Lo:Hi:Step):(    -3:    36:     1)
(PID.TID 0000.0001) // RANGE J (Lo:Hi:Step):(    36:    -3:    -1)
(PID.TID 0000.0001) // RANGE K (Lo:Hi:Step):(   1:   1:   1)
(PID.TID 0000.0001) // =======================================================
(PID.TID 0000.0001) // =======================================================
(PID.TID 0000.0001) // END OF FIELD                                          =
(PID.TID 0000.0001) // =======================================================
(PID.TID 0000.0001) 
(PID.TID 0000.0001) // =======================================================
(PID.TID 0000.0001) // Field hFacC at iteration          0
(PID.TID 0000.0001) // CMIN =          1.000000000000000E+00
(PID.TID 0000.0001) // CMAX =          1.000000000000000E+00
(PID.TID 0000.0001) // CINT =          0.000000000000000E+00
(PID.TID 0000.0001) // SYMBOLS (CMIN->CMAX): -abcdefghijklmnopqrstuvwxyz+
(PID.TID 0000.0001) //                  0.0: .
(PID.TID 0000.0001) // RANGE I (Lo:Hi:Step):(    -3:    36:     1)
(PID.TID 0000.0001) // RANGE J (Lo:Hi:Step):(    36:    -3:    -1)
(PID.TID 0000.0001) // RANGE K (Lo:Hi:Step):(   1:   1:   1)
(PID.TID 0000.0001) // =======================================================
(PID.TID 0000.0001) // =======================================================
(PID.TID 0000.0001) // END OF FIELD                                          =
(PID.TID 0000.0001) // =======================================================
(PID.TID 0000.0001) 
(PID.TID 0000.0001) // =======================================================
(PID.TID 0000.0001) // Field hFacW at iteration          0
(PID.TID 0000.0001) // CMIN =          1.000000000000000E+00
(PID.TID 0000.0001) // CMAX =          1.000000000000000E+00
(PID.TID 0000.0001) // CINT =          0.000000000000000E+00
(PID.TID 0000.0001) // SYMBOLS (CMIN->CMAX): -abcdefghijklmnopqrstuvwxyz+
(PID.TID 0000.0001) //                  0.0: .
(PID.TID 0000.0001) // RANGE I (Lo:Hi:Step):(    -3:    36:     1)
(PID.TID 0000.0001) // RANGE J (Lo:Hi:Step):(    36:    -3:    -1)
(PID.TID 0000.0001) // RANGE K (Lo:Hi:Step):(   1:   1:   1)
(PID.TID 0000.0001) // =======================================================
(PID.TID 0000.0001) // =======================================================
(PID.TID 0000.0001) // END OF FIELD                                          =
(PID.TID 0000.0001) // =======================================================
(PID.TID 0000.0001) 
(PID.TID 0000.0001) // =======================================================
(PID.TID 0000.0001) // Field hFacS at iteration          0
(PID.TID 0000.0001) // CMIN =          1.000000000000000E+00
(PID.TID 0000.0001) // CMAX =          1.000000000000000E+00
(PID.TID 0000.0001) // CINT =          0.000000000000000E+00
(PID.TID 0000.0001) // SYMBOLS (CMIN->CMAX): -abcdefghijklmnopqrstuvwxyz+
(PID.TID 0000.0001) //                  0.0: .
(PID.TID 0000.0001) // RANGE I (Lo:Hi:Step):(    -3:    36:     1)
(PID.TID 0000.0001) // RANGE J (Lo:Hi:Step):(    36:    -3:    -1)
(PID.TID 0000.0001) // RANGE K (Lo:Hi:Step):(   1:   1:   1)
(PID.TID 0000.0001) // =======================================================
(PID.TID 0000.0001) // =======================================================
(PID.TID 0000.0001) // END OF FIELD                                          =
(PID.TID 0000.0001) // =======================================================
(PID.TID 0000.0001) 
(PID.TID 0000.0001) GAD_INIT_FIXED: GAD_OlMinSize=  1  0  1
(PID.TID 0000.0001) 
(PID.TID 0000.0001) // ===================================
(PID.TID 0000.0001) // GAD parameters :
(PID.TID 0000.0001) // ===================================
(PID.TID 0000.0001) tempAdvScheme =   /* Temp. Horiz.Advection scheme selector */
(PID.TID 0000.0001)                       2
(PID.TID 0000.0001)     ;
(PID.TID 0000.0001) tempVertAdvScheme =   /* Temp. Vert. Advection scheme selector */
(PID.TID 0000.0001)                       2
(PID.TID 0000.0001)     ;
(PID.TID 0000.0001) tempMultiDimAdvec =   /* use Muti-Dim Advec method for Temp */
(PID.TID 0000.0001)                   F
(PID.TID 0000.0001)     ;
(PID.TID 0000.0001) tempSOM_Advection = /* use 2nd Order Moment Advection for Temp */
(PID.TID 0000.0001)                   F
(PID.TID 0000.0001)     ;
(PID.TID 0000.0001) AdamsBashforthGt = /* apply Adams-Bashforth extrapolation on Gt */
(PID.TID 0000.0001)                   T
(PID.TID 0000.0001)     ;
(PID.TID 0000.0001) AdamsBashforth_T = /* apply Adams-Bashforth extrapolation on Temp */
(PID.TID 0000.0001)                   F
(PID.TID 0000.0001)     ;
(PID.TID 0000.0001) saltAdvScheme =   /* Salt. Horiz.advection scheme selector */
(PID.TID 0000.0001)                       2
(PID.TID 0000.0001)     ;
(PID.TID 0000.0001) saltVertAdvScheme =   /* Salt. Vert. Advection scheme selector */
(PID.TID 0000.0001)                       2
(PID.TID 0000.0001)     ;
(PID.TID 0000.0001) saltMultiDimAdvec =   /* use Muti-Dim Advec method for Salt */
(PID.TID 0000.0001)                   F
(PID.TID 0000.0001)     ;
(PID.TID 0000.0001) saltSOM_Advection = /* use 2nd Order Moment Advection for Salt */
(PID.TID 0000.0001)                   F
(PID.TID 0000.0001)     ;
(PID.TID 0000.0001) AdamsBashforthGs = /* apply Adams-Bashforth extrapolation on Gs */
(PID.TID 0000.0001)                   T
(PID.TID 0000.0001)     ;
(PID.TID 0000.0001) AdamsBashforth_S = /* apply Adams-Bashforth extrapolation on Salt */
(PID.TID 0000.0001)                   F
(PID.TID 0000.0001)     ;
(PID.TID 0000.0001) // ===================================
(PID.TID 0000.0001) ------------------------------------------------------------
(PID.TID 0000.0001) DIAGNOSTICS_SET_LEVELS: done
(PID.TID 0000.0001)  Total Nb of available Diagnostics: ndiagt=   215
(PID.TID 0000.0001)  write list of available Diagnostics to file: available_diagnostics.log
(PID.TID 0000.0001) SETDIAG: Allocate  1 x  1 Levels for Diagnostic #    81 oceTAUX
(PID.TID 0000.0001) SETDIAG: Allocate  1 x  1 Levels for Diagnostic #    82 oceTAUY
(PID.TID 0000.0001) SETDIAG: Allocate  1 x  1 Levels for Diagnostic #    85 oceFWflx
(PID.TID 0000.0001) SETDIAG: Allocate  1 x  1 Levels for Diagnostic #    86 oceSflux
(PID.TID 0000.0001) SETDIAG: Allocate  1 x  1 Levels for Diagnostic #    87 oceQnet
(PID.TID 0000.0001) SETDIAG: Allocate  1 x  1 Levels for Diagnostic #    88 oceQsw
(PID.TID 0000.0001) SETDIAG: Allocate 15 x  1 Levels for Diagnostic #    27 SALT
(PID.TID 0000.0001) SETDIAG: Allocate 15 x  1 Levels for Diagnostic #    26 THETA
(PID.TID 0000.0001) SETDIAG: Allocate 15 x  1 Levels for Diagnostic #    45 UVELMASS
(PID.TID 0000.0001) SETDIAG: Allocate 15 x  1 Levels for Diagnostic #    46 VVELMASS
(PID.TID 0000.0001) SETDIAG: Allocate  1 x  1 Levels for Diagnostic #    83 atmPload
(PID.TID 0000.0001)   space allocated for all diagnostics:      67 levels
(PID.TID 0000.0001)   set mate pointer for diag #    81  oceTAUX  , Parms: UU      U1 , mate:    82
(PID.TID 0000.0001)   set mate pointer for diag #    82  oceTAUY  , Parms: VV      U1 , mate:    81
(PID.TID 0000.0001)   set mate pointer for diag #    45  UVELMASS , Parms: UUr     MR , mate:    46
(PID.TID 0000.0001)   set mate pointer for diag #    46  VVELMASS , Parms: VVr     MR , mate:    45
(PID.TID 0000.0001) DIAGNOSTICS_SET_POINTERS: Set levels for Outp.Stream: oceTAUX
(PID.TID 0000.0001)  Levels:       1.
(PID.TID 0000.0001) DIAGNOSTICS_SET_POINTERS: Set levels for Outp.Stream: oceTAUY
(PID.TID 0000.0001)  Levels:       1.
(PID.TID 0000.0001) DIAGNOSTICS_SET_POINTERS: Set levels for Outp.Stream: oceFWflx
(PID.TID 0000.0001)  Levels:       1.
(PID.TID 0000.0001) DIAGNOSTICS_SET_POINTERS: Set levels for Outp.Stream: oceSflux
(PID.TID 0000.0001)  Levels:       1.
(PID.TID 0000.0001) DIAGNOSTICS_SET_POINTERS: Set levels for Outp.Stream: oceQnet
(PID.TID 0000.0001)  Levels:       1.
(PID.TID 0000.0001) DIAGNOSTICS_SET_POINTERS: Set levels for Outp.Stream: oceQsw
(PID.TID 0000.0001)  Levels:       1.
(PID.TID 0000.0001) DIAGNOSTICS_SET_POINTERS: Set levels for Outp.Stream: atmPload
(PID.TID 0000.0001)  Levels:       1.
(PID.TID 0000.0001) DIAGNOSTICS_SET_POINTERS: done
(PID.TID 0000.0001) ------------------------------------------------------------
(PID.TID 0000.0001) DIAGSTATS_SET_REGIONS: define   0 regions:
(PID.TID 0000.0001) ------------------------------------------------------------
(PID.TID 0000.0001)   space allocated for all stats-diags:       0 levels
(PID.TID 0000.0001) DIAGSTATS_SET_POINTERS: done
(PID.TID 0000.0001) ------------------------------------------------------------
(PID.TID 0000.0001) INI_GLOBAL_DOMAIN: Found  19 CS-corner Pts in the domain
(PID.TID 0000.0001) %MON fCori_max                    =   1.4574827780704E-04
(PID.TID 0000.0001) %MON fCori_min                    =  -1.4574827780704E-04
(PID.TID 0000.0001) %MON fCori_mean                   =   0.0000000000000E+00
(PID.TID 0000.0001) %MON fCori_sd                     =   8.4202189509968E-05
(PID.TID 0000.0001) %MON fCoriG_max                   =   1.4584247033981E-04
(PID.TID 0000.0001) %MON fCoriG_min                   =  -1.4584247033981E-04
(PID.TID 0000.0001) %MON fCoriG_mean                  =   2.2587545260115E-21
(PID.TID 0000.0001) %MON fCoriG_sd                    =   8.4202189509968E-05
(PID.TID 0000.0001) %MON fCoriCos_max                 =   1.4580166994612E-04
(PID.TID 0000.0001) %MON fCoriCos_min                 =   5.2407700865903E-06
(PID.TID 0000.0001) %MON fCoriCos_mean                =   1.1514045869113E-04
(PID.TID 0000.0001) %MON fCoriCos_sd                  =   3.0375849106513E-05
(PID.TID 0000.0001) INI_CG2D: CG2D normalisation factor =  1.9156564154949553E-04
(PID.TID 0000.0001) 
(PID.TID 0000.0001) // =======================================================
(PID.TID 0000.0001) // Model configuration
(PID.TID 0000.0001) // =======================================================
(PID.TID 0000.0001) //
(PID.TID 0000.0001) // "Physical" paramters ( PARM01 in namelist )
(PID.TID 0000.0001) //
(PID.TID 0000.0001) buoyancyRelation = /* Type of relation to get Buoyancy */
(PID.TID 0000.0001)               'OCEANIC'
(PID.TID 0000.0001)     ;
(PID.TID 0000.0001) fluidIsAir   =  /* fluid major constituent is Air */
(PID.TID 0000.0001)                   F
(PID.TID 0000.0001)     ;
(PID.TID 0000.0001) fluidIsWater =  /* fluid major constituent is Water */
(PID.TID 0000.0001)                   T
(PID.TID 0000.0001)     ;
(PID.TID 0000.0001) usingPCoords =  /* use p (or p*) vertical coordinate */
(PID.TID 0000.0001)                   F
(PID.TID 0000.0001)     ;
(PID.TID 0000.0001) usingZCoords =  /* use z (or z*) vertical coordinate */
(PID.TID 0000.0001)                   T
(PID.TID 0000.0001)     ;
(PID.TID 0000.0001) tRef =   /* Reference temperature profile ( oC or K ) */
(PID.TID 0000.0001)    15 @  2.000000000000000E+01              /* K =  1: 15 */
(PID.TID 0000.0001)     ;
(PID.TID 0000.0001) sRef =   /* Reference salinity profile ( psu ) */
(PID.TID 0000.0001)    15 @  3.500000000000000E+01              /* K =  1: 15 */
(PID.TID 0000.0001)     ;
(PID.TID 0000.0001) useStrainTensionVisc= /* Use StrainTension Form of Viscous Operator */
(PID.TID 0000.0001)                   F
(PID.TID 0000.0001)     ;
(PID.TID 0000.0001) useVariableVisc = /* Use variable horizontal viscosity */
(PID.TID 0000.0001)                   F
(PID.TID 0000.0001)     ;
(PID.TID 0000.0001) useHarmonicVisc = /* Use harmonic horizontal viscosity */
(PID.TID 0000.0001)                   T
(PID.TID 0000.0001)     ;
(PID.TID 0000.0001) useBiharmonicVisc= /* Use biharmonic horiz.  viscosity */
(PID.TID 0000.0001)                   F
(PID.TID 0000.0001)     ;
(PID.TID 0000.0001) useSmag3D = /* Use isotropic 3-D Smagorinsky viscosity */
(PID.TID 0000.0001)                   F
(PID.TID 0000.0001)     ;
(PID.TID 0000.0001) viscAh  =   /* Lateral harmonic viscosity ( m^2/s ) */
(PID.TID 0000.0001)                 3.000000000000000E+05
(PID.TID 0000.0001)     ;
(PID.TID 0000.0001) viscA4  =   /* Lateral biharmonic viscosity ( m^4/s ) */
(PID.TID 0000.0001)                 0.000000000000000E+00
(PID.TID 0000.0001)     ;
(PID.TID 0000.0001) no_slip_sides =  /* Viscous BCs: No-slip sides */
(PID.TID 0000.0001)                   T
(PID.TID 0000.0001)     ;
(PID.TID 0000.0001) sideDragFactor = /* side-drag scaling factor (non-dim) */
(PID.TID 0000.0001)                 2.000000000000000E+00
(PID.TID 0000.0001)     ;
(PID.TID 0000.0001) viscArNr = /* vertical profile of vertical viscosity ( m^2/s )*/
(PID.TID 0000.0001)    15 @  1.000000000000000E-03              /* K =  1: 15 */
(PID.TID 0000.0001)     ;
(PID.TID 0000.0001) no_slip_bottom =  /* Viscous BCs: No-slip bottom */
(PID.TID 0000.0001)                   T
(PID.TID 0000.0001)     ;
(PID.TID 0000.0001) bottomVisc_pCell = /* Partial-cell in bottom Visc. BC */
(PID.TID 0000.0001)                   F
(PID.TID 0000.0001)     ;
(PID.TID 0000.0001) bottomDragLinear = /* linear bottom-drag coefficient ( m/s ) */
(PID.TID 0000.0001)                 0.000000000000000E+00
(PID.TID 0000.0001)     ;
(PID.TID 0000.0001) bottomDragQuadratic = /* quadratic bottom-drag coefficient (-) */
(PID.TID 0000.0001)                 0.000000000000000E+00
(PID.TID 0000.0001)     ;
(PID.TID 0000.0001) selectBotDragQuadr = /* select quadratic bottom drag options */
(PID.TID 0000.0001)                      -1
(PID.TID 0000.0001)     ;
(PID.TID 0000.0001) diffKhT =   /* Laplacian diffusion of heat laterally ( m^2/s ) */
(PID.TID 0000.0001)                 0.000000000000000E+00
(PID.TID 0000.0001)     ;
(PID.TID 0000.0001) diffK4T =   /* Biharmonic diffusion of heat laterally ( m^4/s ) */
(PID.TID 0000.0001)                 0.000000000000000E+00
(PID.TID 0000.0001)     ;
(PID.TID 0000.0001) diffKhS =   /* Laplacian diffusion of salt laterally ( m^2/s ) */
(PID.TID 0000.0001)                 0.000000000000000E+00
(PID.TID 0000.0001)     ;
(PID.TID 0000.0001) diffK4S =   /* Biharmonic diffusion of salt laterally ( m^4/s ) */
(PID.TID 0000.0001)                 0.000000000000000E+00
(PID.TID 0000.0001)     ;
(PID.TID 0000.0001) diffKrNrT = /* vertical profile of vertical diffusion of Temp ( m^2/s )*/
(PID.TID 0000.0001)    15 @  3.000000000000000E-05              /* K =  1: 15 */
(PID.TID 0000.0001)     ;
(PID.TID 0000.0001) diffKrNrS = /* vertical profile of vertical diffusion of Salt ( m^2/s )*/
(PID.TID 0000.0001)    15 @  3.000000000000000E-05              /* K =  1: 15 */
(PID.TID 0000.0001)     ;
(PID.TID 0000.0001) diffKrBL79surf = /* Surface diffusion for Bryan and Lewis 79 ( m^2/s ) */
(PID.TID 0000.0001)                 0.000000000000000E+00
(PID.TID 0000.0001)     ;
(PID.TID 0000.0001) diffKrBL79deep = /* Deep diffusion for Bryan and Lewis 1979 ( m^2/s ) */
(PID.TID 0000.0001)                 0.000000000000000E+00
(PID.TID 0000.0001)     ;
(PID.TID 0000.0001) diffKrBL79scl = /* Depth scale for Bryan and Lewis 1979 ( m ) */
(PID.TID 0000.0001)                 2.000000000000000E+02
(PID.TID 0000.0001)     ;
(PID.TID 0000.0001) diffKrBL79Ho = /* Turning depth for Bryan and Lewis 1979 ( m ) */
(PID.TID 0000.0001)                -2.000000000000000E+03
(PID.TID 0000.0001)     ;
(PID.TID 0000.0001) ivdc_kappa = /* Implicit Vertical Diffusivity for Convection ( m^2/s) */
(PID.TID 0000.0001)                 1.000000000000000E+01
(PID.TID 0000.0001)     ;
(PID.TID 0000.0001) hMixCriteria=  /* Criteria for mixed-layer diagnostic */
(PID.TID 0000.0001)                -8.000000000000000E-01
(PID.TID 0000.0001)     ;
(PID.TID 0000.0001) dRhoSmall =  /* Parameter for mixed-layer diagnostic */
(PID.TID 0000.0001)                 1.000000000000000E-06
(PID.TID 0000.0001)     ;
(PID.TID 0000.0001) hMixSmooth=  /* Smoothing parameter for mixed-layer diagnostic */
(PID.TID 0000.0001)                 0.000000000000000E+00
(PID.TID 0000.0001)     ;
(PID.TID 0000.0001) eosType =  /* Type of Equation of State */
(PID.TID 0000.0001)               'JMD95Z'
(PID.TID 0000.0001)     ;
(PID.TID 0000.0001) selectP_inEOS_Zc = /* select pressure to use in EOS (0,1,2,3) */
(PID.TID 0000.0001)                       0
(PID.TID 0000.0001)     0= -g*rhoConst*z ; 1= pRef (from tRef,sRef); 2= Hyd P ; 3= Hyd+NH P
(PID.TID 0000.0001)     ;
(PID.TID 0000.0001) HeatCapacity_Cp =  /* Specific heat capacity ( J/kg/K ) */
(PID.TID 0000.0001)                 3.994000000000000E+03
(PID.TID 0000.0001)     ;
(PID.TID 0000.0001) celsius2K = /* 0 degree Celsius converted to Kelvin ( K ) */
(PID.TID 0000.0001)                 2.731500000000000E+02
(PID.TID 0000.0001)     ;
(PID.TID 0000.0001) rhoConst  = /* Reference density (Boussinesq)  ( kg/m^3 ) */
(PID.TID 0000.0001)                 1.035000000000000E+03
(PID.TID 0000.0001)     ;
(PID.TID 0000.0001) rhoFacC = /* normalized Reference density @ cell-Center (-) */
(PID.TID 0000.0001)    15 @  1.000000000000000E+00              /* K =  1: 15 */
(PID.TID 0000.0001)     ;
(PID.TID 0000.0001) rhoFacF = /* normalized Reference density @ W-Interface (-) */
(PID.TID 0000.0001)    16 @  1.000000000000000E+00              /* K =  1: 16 */
(PID.TID 0000.0001)     ;
(PID.TID 0000.0001) rhoConstFresh = /* Fresh-water reference density ( kg/m^3 ) */
(PID.TID 0000.0001)                 1.000000000000000E+03
(PID.TID 0000.0001)     ;
(PID.TID 0000.0001) gravity =   /* Gravitational acceleration ( m/s^2 ) */
(PID.TID 0000.0001)                 9.810000000000000E+00
(PID.TID 0000.0001)     ;
(PID.TID 0000.0001) gBaro =   /* Barotropic gravity ( m/s^2 ) */
(PID.TID 0000.0001)                 9.810000000000000E+00
(PID.TID 0000.0001)     ;
(PID.TID 0000.0001) gravFacC = /* gravity factor (vs surf.) @ cell-Center (-) */
(PID.TID 0000.0001)    15 @  1.000000000000000E+00              /* K =  1: 15 */
(PID.TID 0000.0001)     ;
(PID.TID 0000.0001) gravFacF = /* gravity factor (vs surf.) @ W-Interface (-) */
(PID.TID 0000.0001)    16 @  1.000000000000000E+00              /* K =  1: 16 */
(PID.TID 0000.0001)     ;
(PID.TID 0000.0001) rotationPeriod =   /* Rotation Period ( s ) */
(PID.TID 0000.0001)                 8.616400000000000E+04
(PID.TID 0000.0001)     ;
(PID.TID 0000.0001) omega =   /* Angular velocity ( rad/s ) */
(PID.TID 0000.0001)                 7.292123516990375E-05
(PID.TID 0000.0001)     ;
(PID.TID 0000.0001) f0 =   /* Reference coriolis parameter ( 1/s ) */
(PID.TID 0000.0001)                 1.000000000000000E-04
(PID.TID 0000.0001)     ;
(PID.TID 0000.0001) beta =   /* Beta ( 1/(m.s) ) */
(PID.TID 0000.0001)                 9.999999999999999E-12
(PID.TID 0000.0001)     ;
(PID.TID 0000.0001) fPrime =   /* Second coriolis parameter ( 1/s ) */
(PID.TID 0000.0001)                 0.000000000000000E+00
(PID.TID 0000.0001)     ;
(PID.TID 0000.0001) rigidLid =   /* Rigid lid on/off flag */
(PID.TID 0000.0001)                   F
(PID.TID 0000.0001)     ;
(PID.TID 0000.0001) implicitFreeSurface =   /* Implicit free surface on/off flag */
(PID.TID 0000.0001)                   T
(PID.TID 0000.0001)     ;
(PID.TID 0000.0001) freeSurfFac =   /* Implicit free surface factor */
(PID.TID 0000.0001)                 1.000000000000000E+00
(PID.TID 0000.0001)     ;
(PID.TID 0000.0001) implicSurfPress =  /* Surface Pressure implicit factor (0-1)*/
(PID.TID 0000.0001)                 1.000000000000000E+00
(PID.TID 0000.0001)     ;
(PID.TID 0000.0001) implicDiv2DFlow =  /* Barot. Flow Div. implicit factor (0-1)*/
(PID.TID 0000.0001)                 1.000000000000000E+00
(PID.TID 0000.0001)     ;
(PID.TID 0000.0001) uniformLin_PhiSurf = /* use uniform Bo_surf on/off flag*/
(PID.TID 0000.0001)                   T
(PID.TID 0000.0001)     ;
(PID.TID 0000.0001) uniformFreeSurfLev = /* free-surface level-index is uniform */
(PID.TID 0000.0001)                   T
(PID.TID 0000.0001)     ;
(PID.TID 0000.0001) hFacMin =   /* minimum partial cell factor (hFac) */
(PID.TID 0000.0001)                 1.000000000000000E-01
(PID.TID 0000.0001)     ;
(PID.TID 0000.0001) hFacMinDr = /* minimum partial cell thickness ( m) */
(PID.TID 0000.0001)                 2.000000000000000E+01
(PID.TID 0000.0001)     ;
(PID.TID 0000.0001) exactConserv =  /* Exact Volume Conservation on/off flag*/
(PID.TID 0000.0001)                   T
(PID.TID 0000.0001)     ;
(PID.TID 0000.0001) linFSConserveTr = /* Tracer correction for Lin Free Surface on/off flag*/
(PID.TID 0000.0001)                   F
(PID.TID 0000.0001)     ;
(PID.TID 0000.0001) nonlinFreeSurf = /* Non-linear Free Surf. options (-1,0,1,2,3)*/
(PID.TID 0000.0001)                       4
(PID.TID 0000.0001)      -1,0= Off ; 1,2,3= On, 2=+rescale gU,gV, 3=+update cg2d solv.
(PID.TID 0000.0001)     ;
(PID.TID 0000.0001) hFacInf =   /* lower threshold for hFac (nonlinFreeSurf only)*/
(PID.TID 0000.0001)                 2.000000000000000E-01
(PID.TID 0000.0001)     ;
(PID.TID 0000.0001) hFacSup =   /* upper threshold for hFac (nonlinFreeSurf only)*/
(PID.TID 0000.0001)                 2.000000000000000E+00
(PID.TID 0000.0001)     ;
(PID.TID 0000.0001) select_rStar = /* r* Vertical coord. options (=0 r coord.; >0 uses r*)*/
(PID.TID 0000.0001)                       2
(PID.TID 0000.0001)     ;
(PID.TID 0000.0001) useRealFreshWaterFlux = /* Real Fresh Water Flux on/off flag*/
(PID.TID 0000.0001)                   T
(PID.TID 0000.0001)     ;
(PID.TID 0000.0001) temp_EvPrRn = /* Temp. of Evap/Prec/R (UNSET=use local T)(oC)*/
(PID.TID 0000.0001)                 1.234567000000000E+05
(PID.TID 0000.0001)     ;
(PID.TID 0000.0001) salt_EvPrRn = /* Salin. of Evap/Prec/R (UNSET=use local S)(psu)*/
(PID.TID 0000.0001)                 0.000000000000000E+00
(PID.TID 0000.0001)     ;
(PID.TID 0000.0001) selectAddFluid = /* option for mass source/sink of fluid (=0: off) */
(PID.TID 0000.0001)                       0
(PID.TID 0000.0001)     ;
(PID.TID 0000.0001) temp_addMass = /* Temp. of addMass array (UNSET=use local T)(oC)*/
(PID.TID 0000.0001)                 1.234567000000000E+05
(PID.TID 0000.0001)     ;
(PID.TID 0000.0001) salt_addMass = /* Salin. of addMass array (UNSET=use local S)(psu)*/
(PID.TID 0000.0001)                 0.000000000000000E+00
(PID.TID 0000.0001)     ;
(PID.TID 0000.0001) use3Dsolver = /* use 3-D pressure solver on/off flag */
(PID.TID 0000.0001)                   F
(PID.TID 0000.0001)     ;
(PID.TID 0000.0001) nonHydrostatic =  /* Non-Hydrostatic on/off flag */
(PID.TID 0000.0001)                   F
(PID.TID 0000.0001)     ;
(PID.TID 0000.0001) nh_Am2 = /* Non-Hydrostatic terms scaling factor */
(PID.TID 0000.0001)                 1.000000000000000E+00
(PID.TID 0000.0001)     ;
(PID.TID 0000.0001) implicitNHPress = /* Non-Hyd Pressure implicit factor (0-1)*/
(PID.TID 0000.0001)                 1.000000000000000E+00
(PID.TID 0000.0001)     ;
(PID.TID 0000.0001) selectNHfreeSurf = /* Non-Hyd (free-)Surface option */
(PID.TID 0000.0001)                       0
(PID.TID 0000.0001)     ;
(PID.TID 0000.0001) quasiHydrostatic = /* Quasi-Hydrostatic on/off flag */
(PID.TID 0000.0001)                   F
(PID.TID 0000.0001)     ;
(PID.TID 0000.0001) calc_wVelocity = /* vertical velocity calculation on/off flag */
(PID.TID 0000.0001)                   T
(PID.TID 0000.0001)     ;
(PID.TID 0000.0001) momStepping =  /* Momentum equation on/off flag */
(PID.TID 0000.0001)                   T
(PID.TID 0000.0001)     ;
(PID.TID 0000.0001) vectorInvariantMomentum= /* Vector-Invariant Momentum on/off */
(PID.TID 0000.0001)                   T
(PID.TID 0000.0001)     ;
(PID.TID 0000.0001) momAdvection =  /* Momentum advection on/off flag */
(PID.TID 0000.0001)                   T
(PID.TID 0000.0001)     ;
(PID.TID 0000.0001) momViscosity =  /* Momentum viscosity on/off flag */
(PID.TID 0000.0001)                   T
(PID.TID 0000.0001)     ;
(PID.TID 0000.0001) momImplVertAdv= /* Momentum implicit vert. advection on/off*/
(PID.TID 0000.0001)                   F
(PID.TID 0000.0001)     ;
(PID.TID 0000.0001) implicitViscosity = /* Implicit viscosity on/off flag */
(PID.TID 0000.0001)                   F
(PID.TID 0000.0001)     ;
(PID.TID 0000.0001) selectImplicitDrag= /* Implicit bot Drag options (0,1,2)*/
(PID.TID 0000.0001)                       0
(PID.TID 0000.0001)     0= Expl. ; 1= Impl. on provis. Vel ; 2= Fully Impl (with surf.P)
(PID.TID 0000.0001)     ;
(PID.TID 0000.0001) metricTerms =  /* metric-Terms on/off flag */
(PID.TID 0000.0001)                   F
(PID.TID 0000.0001)     ;
(PID.TID 0000.0001) useNHMTerms = /* Non-Hydrostatic Metric-Terms on/off */
(PID.TID 0000.0001)                   F
(PID.TID 0000.0001)     ;
(PID.TID 0000.0001) selectCoriMap = /* Coriolis Map options (0,1,2,3)*/
(PID.TID 0000.0001)                       2
(PID.TID 0000.0001)     0= f-Plane ; 1= Beta-Plane ; 2= Spherical ; 3= read from file
(PID.TID 0000.0001)     ;
(PID.TID 0000.0001) use3dCoriolis = /* 3-D Coriolis on/off flag */
(PID.TID 0000.0001)                   F
(PID.TID 0000.0001)     ;
(PID.TID 0000.0001) useCoriolis =  /* Coriolis on/off flag */
(PID.TID 0000.0001)                   T
(PID.TID 0000.0001)     ;
(PID.TID 0000.0001) useCDscheme =  /* CD scheme on/off flag */
(PID.TID 0000.0001)                   F
(PID.TID 0000.0001)     ;
(PID.TID 0000.0001) useEnergyConservingCoriolis= /* Flx-Form Coriolis scheme flag */
(PID.TID 0000.0001)                   F
(PID.TID 0000.0001)     ;
(PID.TID 0000.0001) useJamartWetPoints= /* Coriolis WetPoints method flag */
(PID.TID 0000.0001)                   F
(PID.TID 0000.0001)     ;
(PID.TID 0000.0001) useJamartMomAdv= /* V.I Non-linear terms Jamart flag */
(PID.TID 0000.0001)                   F
(PID.TID 0000.0001)     ;
(PID.TID 0000.0001) useAbsVorticity= /* V.I Works with f+zeta in Coriolis */
(PID.TID 0000.0001)                   F
(PID.TID 0000.0001)     ;
(PID.TID 0000.0001) selectVortScheme= /* V.I Scheme selector for Vorticity-Term */
(PID.TID 0000.0001)                       1
(PID.TID 0000.0001)    = 0 : enstrophy (Shallow-Water Eq.) conserving scheme by Sadourny, JAS 75
(PID.TID 0000.0001)    = 1 : same as 0 with modified hFac
(PID.TID 0000.0001)    = 2 : energy conserving scheme (used by Sadourny in JAS 75 paper)
(PID.TID 0000.0001)    = 3 : energy (general) and enstrophy (2D, nonDiv.) conserving scheme
(PID.TID 0000.0001)          from Sadourny (Burridge & Haseler, ECMWF Rep.4, 1977)
(PID.TID 0000.0001)     ;
(PID.TID 0000.0001) upwindVorticity= /* V.I Upwind bias vorticity flag */
(PID.TID 0000.0001)                   F
(PID.TID 0000.0001)     ;
(PID.TID 0000.0001) highOrderVorticity= /* V.I High order vort. advect. flag */
(PID.TID 0000.0001)                   F
(PID.TID 0000.0001)     ;
(PID.TID 0000.0001) upwindShear= /* V.I Upwind vertical Shear advection flag */
(PID.TID 0000.0001)                   F
(PID.TID 0000.0001)     ;
(PID.TID 0000.0001) selectKEscheme= /* V.I Kinetic Energy scheme selector */
(PID.TID 0000.0001)                       0
(PID.TID 0000.0001)     ;
(PID.TID 0000.0001) momForcing =  /* Momentum forcing on/off flag */
(PID.TID 0000.0001)                   T
(PID.TID 0000.0001)     ;
(PID.TID 0000.0001) momTidalForcing = /* Momentum Tidal forcing on/off flag */
(PID.TID 0000.0001)                   T
(PID.TID 0000.0001)     ;
(PID.TID 0000.0001) momPressureForcing =  /* Momentum pressure term on/off flag */
(PID.TID 0000.0001)                   T
(PID.TID 0000.0001)     ;
(PID.TID 0000.0001) implicitIntGravWave= /* Implicit Internal Gravity Wave flag */
(PID.TID 0000.0001)                   F
(PID.TID 0000.0001)     ;
(PID.TID 0000.0001) staggerTimeStep =    /* Stagger time stepping on/off flag */
(PID.TID 0000.0001)                   T
(PID.TID 0000.0001)     ;
(PID.TID 0000.0001) doResetHFactors = /* reset thickness factors @ each time-step */
(PID.TID 0000.0001)                   F
(PID.TID 0000.0001)     ;
(PID.TID 0000.0001) multiDimAdvection =  /* enable/disable Multi-Dim Advection */
(PID.TID 0000.0001)                   T
(PID.TID 0000.0001)     ;
(PID.TID 0000.0001) useMultiDimAdvec =   /* Multi-Dim Advection is/is-not used */
(PID.TID 0000.0001)                   F
(PID.TID 0000.0001)     ;
(PID.TID 0000.0001) implicitDiffusion = /* Implicit Diffusion on/off flag */
(PID.TID 0000.0001)                   T
(PID.TID 0000.0001)     ;
(PID.TID 0000.0001) tempStepping =  /* Temperature equation on/off flag */
(PID.TID 0000.0001)                   T
(PID.TID 0000.0001)     ;
(PID.TID 0000.0001) tempAdvection = /* Temperature advection on/off flag */
(PID.TID 0000.0001)                   T
(PID.TID 0000.0001)     ;
(PID.TID 0000.0001) tempImplVertAdv = /* Temp. implicit vert. advection on/off */
(PID.TID 0000.0001)                   F
(PID.TID 0000.0001)     ;
(PID.TID 0000.0001) tempForcing  =  /* Temperature forcing on/off flag */
(PID.TID 0000.0001)                   T
(PID.TID 0000.0001)     ;
(PID.TID 0000.0001) balanceQnet  =  /* balance net heat-flux on/off flag */
(PID.TID 0000.0001)                   F
(PID.TID 0000.0001)     ;
(PID.TID 0000.0001) doThetaClimRelax = /* apply SST relaxation on/off flag */
(PID.TID 0000.0001)                   F
(PID.TID 0000.0001)     ;
(PID.TID 0000.0001) balanceThetaClimRelax= /* balance SST relaxation on/off flag */
(PID.TID 0000.0001)                   F
(PID.TID 0000.0001)     ;
(PID.TID 0000.0001) tempIsActiveTr = /* Temp. is a dynamically Active Tracer */
(PID.TID 0000.0001)                   T
(PID.TID 0000.0001)     ;
(PID.TID 0000.0001) saltStepping =  /* Salinity equation on/off flag */
(PID.TID 0000.0001)                   T
(PID.TID 0000.0001)     ;
(PID.TID 0000.0001) saltAdvection = /* Salinity advection on/off flag */
(PID.TID 0000.0001)                   T
(PID.TID 0000.0001)     ;
(PID.TID 0000.0001) saltImplVertAdv = /* Sali. implicit vert. advection on/off */
(PID.TID 0000.0001)                   F
(PID.TID 0000.0001)     ;
(PID.TID 0000.0001) saltForcing  =  /* Salinity forcing on/off flag */
(PID.TID 0000.0001)                   T
(PID.TID 0000.0001)     ;
(PID.TID 0000.0001) balanceEmPmR =  /* balance net fresh-water flux on/off flag */
(PID.TID 0000.0001)                   F
(PID.TID 0000.0001)     ;
(PID.TID 0000.0001) doSaltClimRelax = /* apply SSS relaxation on/off flag */
(PID.TID 0000.0001)                   F
(PID.TID 0000.0001)     ;
(PID.TID 0000.0001) balanceSaltClimRelax= /* balance SSS relaxation on/off flag */
(PID.TID 0000.0001)                   F
(PID.TID 0000.0001)     ;
(PID.TID 0000.0001) saltIsActiveTr = /* Salt  is a dynamically Active Tracer */
(PID.TID 0000.0001)                   T
(PID.TID 0000.0001)     ;
(PID.TID 0000.0001)  readBinaryPrec = /* Precision used for reading binary files */
(PID.TID 0000.0001)                      64
(PID.TID 0000.0001)     ;
(PID.TID 0000.0001) writeBinaryPrec = /* Precision used for writing binary files */
(PID.TID 0000.0001)                      32
(PID.TID 0000.0001)     ;
(PID.TID 0000.0001)  rwSuffixType =   /* select format of mds file suffix */
(PID.TID 0000.0001)                       0
(PID.TID 0000.0001)    = 0 : myIter (I10.10) ;   = 1 : 100*myTime (100th sec) ;
(PID.TID 0000.0001)    = 2 : myTime (seconds);   = 3 : myTime/360 (10th of hr);
(PID.TID 0000.0001)    = 4 : myTime/3600 (hours)
(PID.TID 0000.0001)     ;
(PID.TID 0000.0001)  globalFiles = /* write "global" (=not per tile) files */
(PID.TID 0000.0001)                   F
(PID.TID 0000.0001)     ;
(PID.TID 0000.0001)  useSingleCpuIO = /* only master MPI process does I/O */
(PID.TID 0000.0001)                   T
(PID.TID 0000.0001)     ;
(PID.TID 0000.0001)  useSingleCpuInput = /* only master process reads input */
(PID.TID 0000.0001)                   T
(PID.TID 0000.0001)     ;
(PID.TID 0000.0001) /* debLev[*]  : level of debug & auxiliary message printing */
(PID.TID 0000.0001) debLevZero =  0 ; /* level of disabled aux. msg printing */
(PID.TID 0000.0001)    debLevA =  1 ; /* level of minimum  aux. msg printing */
(PID.TID 0000.0001)    debLevB =  2 ; /* level of low aux. print (report read-file opening)*/
(PID.TID 0000.0001)    debLevC =  3 ; /* level of moderate debug prt (most pkgs debug msg) */
(PID.TID 0000.0001)    debLevD =  4 ; /* level of enhanced debug prt (add DEBUG_STATS prt) */
(PID.TID 0000.0001)    debLevE =  5 ; /* level of extensive debug printing */
(PID.TID 0000.0001) debugLevel =  /* select debug printing level */
(PID.TID 0000.0001)                       2
(PID.TID 0000.0001)     ;
(PID.TID 0000.0001)  plotLevel =  /* select PLOT_FIELD printing level */
(PID.TID 0000.0001)                       2
(PID.TID 0000.0001)     ;
(PID.TID 0000.0001) //
(PID.TID 0000.0001) // Elliptic solver(s) paramters ( PARM02 in namelist )
(PID.TID 0000.0001) //
(PID.TID 0000.0001) cg2dMaxIters =   /* Upper limit on 2d con. grad iterations  */
(PID.TID 0000.0001)                     150
(PID.TID 0000.0001)     ;
(PID.TID 0000.0001) cg2dChkResFreq =   /* 2d con. grad convergence test frequency */
(PID.TID 0000.0001)                       1
(PID.TID 0000.0001)     ;
(PID.TID 0000.0001) cg2dUseMinResSol= /* use cg2d last-iter(=0) / min-resid.(=1) solution */
(PID.TID 0000.0001)                       0
(PID.TID 0000.0001)     ;
(PID.TID 0000.0001) cg2dTargetResidual =   /* 2d con. grad target residual  */
(PID.TID 0000.0001)                 1.000000000000000E-07
(PID.TID 0000.0001)     ;
(PID.TID 0000.0001) cg2dTargetResWunit =   /* CG2d target residual [W units] */
(PID.TID 0000.0001)                -1.000000000000000E+00
(PID.TID 0000.0001)     ;
(PID.TID 0000.0001) cg2dPreCondFreq =   /* Freq. for updating cg2d preconditioner */
(PID.TID 0000.0001)                       1
(PID.TID 0000.0001)     ;
(PID.TID 0000.0001) useSRCGSolver =  /* use single reduction CG solver(s) */
(PID.TID 0000.0001)                   F
(PID.TID 0000.0001)     ;
(PID.TID 0000.0001) printResidualFreq = /* Freq. for printing CG residual */
(PID.TID 0000.0001)                       0
(PID.TID 0000.0001)     ;
(PID.TID 0000.0001) //
(PID.TID 0000.0001) // Time stepping paramters ( PARM03 in namelist )
(PID.TID 0000.0001) //
(PID.TID 0000.0001) deltaTMom =   /* Momentum equation timestep ( s ) */
(PID.TID 0000.0001)                 9.000000000000000E+02
(PID.TID 0000.0001)     ;
(PID.TID 0000.0001) deltaTFreeSurf = /* FreeSurface equation timestep ( s ) */
(PID.TID 0000.0001)                 9.000000000000000E+02
(PID.TID 0000.0001)     ;
(PID.TID 0000.0001) dTtracerLev =  /* Tracer equation timestep ( s ) */
(PID.TID 0000.0001)    15 @  9.000000000000000E+02              /* K =  1: 15 */
(PID.TID 0000.0001)     ;
(PID.TID 0000.0001) deltaTClock  =   /* Model clock timestep ( s ) */
(PID.TID 0000.0001)                 9.000000000000000E+02
(PID.TID 0000.0001)     ;
(PID.TID 0000.0001) cAdjFreq =   /* Convective adjustment interval ( s ) */
(PID.TID 0000.0001)                 0.000000000000000E+00
(PID.TID 0000.0001)     ;
(PID.TID 0000.0001) momForcingOutAB = /* =1: take Momentum Forcing out of Adams-Bash. stepping */
(PID.TID 0000.0001)                       0
(PID.TID 0000.0001)     ;
(PID.TID 0000.0001) tracForcingOutAB = /* =1: take T,S,pTr Forcing out of Adams-Bash. stepping */
(PID.TID 0000.0001)                       1
(PID.TID 0000.0001)     ;
(PID.TID 0000.0001) momDissip_In_AB = /* put Dissipation Tendency in Adams-Bash. stepping */
(PID.TID 0000.0001)                   T
(PID.TID 0000.0001)     ;
(PID.TID 0000.0001) doAB_onGtGs = /* apply AB on Tendencies (rather than on T,S)*/
(PID.TID 0000.0001)                   T
(PID.TID 0000.0001)     ;
(PID.TID 0000.0001) abEps =   /* Adams-Bashforth-2 stabilizing weight */
(PID.TID 0000.0001)                 1.000000000000000E-01
(PID.TID 0000.0001)     ;
(PID.TID 0000.0001) applyExchUV_early = /* Apply EXCH to U,V earlier in time-step */
(PID.TID 0000.0001)                   F
(PID.TID 0000.0001)     ;
(PID.TID 0000.0001) pickupStrictlyMatch= /* stop if pickup do not strictly match */
(PID.TID 0000.0001)                   T
(PID.TID 0000.0001)     ;
(PID.TID 0000.0001) nIter0   =   /* Run starting timestep number */
(PID.TID 0000.0001)                   72000
(PID.TID 0000.0001)     ;
(PID.TID 0000.0001) nTimeSteps = /* Number of timesteps */
(PID.TID 0000.0001)                      96
(PID.TID 0000.0001)     ;
(PID.TID 0000.0001) nEndIter =   /* Run ending timestep number */
(PID.TID 0000.0001)                   72096
(PID.TID 0000.0001)     ;
(PID.TID 0000.0001) baseTime =   /* Model base time ( s ) */
(PID.TID 0000.0001)                 0.000000000000000E+00
(PID.TID 0000.0001)     ;
(PID.TID 0000.0001) startTime =  /* Run start time ( s ) */
(PID.TID 0000.0001)                 6.480000000000000E+07
(PID.TID 0000.0001)     ;
(PID.TID 0000.0001) endTime  =   /* Integration ending time ( s ) */
(PID.TID 0000.0001)                 6.488640000000000E+07
(PID.TID 0000.0001)     ;
(PID.TID 0000.0001) pChkPtFreq = /* Permanent restart/pickup file interval ( s ) */
(PID.TID 0000.0001)                 0.000000000000000E+00
(PID.TID 0000.0001)     ;
(PID.TID 0000.0001) chkPtFreq  = /* Rolling restart/pickup file interval ( s ) */
(PID.TID 0000.0001)                 0.000000000000000E+00
(PID.TID 0000.0001)     ;
(PID.TID 0000.0001) pickup_write_mdsio =   /* Model IO flag. */
(PID.TID 0000.0001)                   T
(PID.TID 0000.0001)     ;
(PID.TID 0000.0001) pickup_read_mdsio =   /* Model IO flag. */
(PID.TID 0000.0001)                   T
(PID.TID 0000.0001)     ;
(PID.TID 0000.0001) writePickupAtEnd =   /* Model IO flag. */
(PID.TID 0000.0001)                   T
(PID.TID 0000.0001)     ;
(PID.TID 0000.0001) dumpFreq =   /* Model state write out interval ( s ). */
(PID.TID 0000.0001)                 0.000000000000000E+00
(PID.TID 0000.0001)     ;
(PID.TID 0000.0001) dumpInitAndLast= /* write out Initial & Last iter. model state */
(PID.TID 0000.0001)                   T
(PID.TID 0000.0001)     ;
(PID.TID 0000.0001) snapshot_mdsio =   /* Model IO flag. */
(PID.TID 0000.0001)                   T
(PID.TID 0000.0001)     ;
(PID.TID 0000.0001) monitorFreq =   /* Monitor output interval ( s ). */
(PID.TID 0000.0001)                 1.000000000000000E+00
(PID.TID 0000.0001)     ;
(PID.TID 0000.0001) monitorSelect = /* select group of variables to monitor */
(PID.TID 0000.0001)                       3
(PID.TID 0000.0001)     ;
(PID.TID 0000.0001) monitor_stdio =   /* Model IO flag. */
(PID.TID 0000.0001)                   T
(PID.TID 0000.0001)     ;
(PID.TID 0000.0001) externForcingPeriod =   /* forcing period (s) */
(PID.TID 0000.0001)                 0.000000000000000E+00
(PID.TID 0000.0001)     ;
(PID.TID 0000.0001) externForcingCycle =   /* period of the cyle (s). */
(PID.TID 0000.0001)                 0.000000000000000E+00
(PID.TID 0000.0001)     ;
(PID.TID 0000.0001) tauThetaClimRelax =   /* relaxation time scale (s) */
(PID.TID 0000.0001)                 0.000000000000000E+00
(PID.TID 0000.0001)     ;
(PID.TID 0000.0001) tauSaltClimRelax =   /* relaxation time scale (s) */
(PID.TID 0000.0001)                 0.000000000000000E+00
(PID.TID 0000.0001)     ;
(PID.TID 0000.0001) latBandClimRelax =   /* max. Lat. where relaxation */
(PID.TID 0000.0001)                 1.800000000000000E+02
(PID.TID 0000.0001)     ;
(PID.TID 0000.0001) //
(PID.TID 0000.0001) // Gridding paramters ( PARM04 in namelist )
(PID.TID 0000.0001) //
(PID.TID 0000.0001) usingCartesianGrid = /* Cartesian coordinates flag ( True/False ) */
(PID.TID 0000.0001)                   F
(PID.TID 0000.0001)     ;
(PID.TID 0000.0001) usingCylindricalGrid = /* Cylindrical coordinates flag ( True/False ) */
(PID.TID 0000.0001)                   F
(PID.TID 0000.0001)     ;
(PID.TID 0000.0001) usingSphericalPolarGrid = /* Spherical coordinates flag ( True/False ) */
(PID.TID 0000.0001)                   F
(PID.TID 0000.0001)     ;
(PID.TID 0000.0001) usingCurvilinearGrid = /* Curvilinear coordinates flag ( True/False ) */
(PID.TID 0000.0001)                   T
(PID.TID 0000.0001)     ;
(PID.TID 0000.0001) useMin4hFacEdges = /* set hFacW,S as minimum of adjacent hFacC factor */
(PID.TID 0000.0001)                   F
(PID.TID 0000.0001)     ;
(PID.TID 0000.0001) interViscAr_pCell = /* account for partial-cell in interior vert. viscosity */
(PID.TID 0000.0001)                   F
(PID.TID 0000.0001)     ;
(PID.TID 0000.0001) interDiffKr_pCell = /* account for partial-cell in interior vert. diffusion */
(PID.TID 0000.0001)                   F
(PID.TID 0000.0001)     ;
(PID.TID 0000.0001) pCellMix_select = /* option to enhance mixing near surface & bottom */
(PID.TID 0000.0001)                       0
(PID.TID 0000.0001)     ;
(PID.TID 0000.0001) selectSigmaCoord = /* Hybrid-Sigma Vert. Coordinate option */
(PID.TID 0000.0001)                       0
(PID.TID 0000.0001)     ;
(PID.TID 0000.0001) rSigmaBnd = /* r/sigma transition ( units of r ==  m ) */
(PID.TID 0000.0001)                 1.234567000000000E+05
(PID.TID 0000.0001)     ;
(PID.TID 0000.0001) rkSign =   /* index orientation relative to vertical coordinate */
(PID.TID 0000.0001)                -1.000000000000000E+00
(PID.TID 0000.0001)     ;
(PID.TID 0000.0001) gravitySign = /* gravity orientation relative to vertical coordinate */
(PID.TID 0000.0001)                -1.000000000000000E+00
(PID.TID 0000.0001)     ;
(PID.TID 0000.0001) seaLev_Z =  /* reference height of sea-level [m] */
(PID.TID 0000.0001)                 0.000000000000000E+00
(PID.TID 0000.0001)     ;
(PID.TID 0000.0001) top_Pres =  /* reference pressure at the top [Pa] */
(PID.TID 0000.0001)                 0.000000000000000E+00
(PID.TID 0000.0001)     ;
(PID.TID 0000.0001) mass2rUnit = /* convert mass per unit area [kg/m2] to r-units [m] */
(PID.TID 0000.0001)                 9.661835748792270E-04
(PID.TID 0000.0001)     ;
(PID.TID 0000.0001) rUnit2mass = /* convert r-units [m] to mass per unit area [kg/m2] */
(PID.TID 0000.0001)                 1.035000000000000E+03
(PID.TID 0000.0001)     ;
(PID.TID 0000.0001) drC =   /* C spacing ( units of r ) */
(PID.TID 0000.0001)                 2.500000000000000E+01,      /* K =  1 */
(PID.TID 0000.0001)                 6.000000000000000E+01,      /* K =  2 */
(PID.TID 0000.0001)                 8.500000000000000E+01,      /* K =  3 */
(PID.TID 0000.0001)                 1.200000000000000E+02,      /* K =  4 */
(PID.TID 0000.0001)                 1.650000000000000E+02,      /* K =  5 */
(PID.TID 0000.0001)                 2.150000000000000E+02,      /* K =  6 */
(PID.TID 0000.0001)                 2.650000000000000E+02,      /* K =  7 */
(PID.TID 0000.0001)                 3.150000000000000E+02,      /* K =  8 */
(PID.TID 0000.0001)                 3.650000000000000E+02,      /* K =  9 */
(PID.TID 0000.0001)                 4.150000000000000E+02,      /* K = 10 */
(PID.TID 0000.0001)                 4.650000000000000E+02,      /* K = 11 */
(PID.TID 0000.0001)                 5.150000000000000E+02,      /* K = 12 */
(PID.TID 0000.0001)                 5.650000000000000E+02,      /* K = 13 */
(PID.TID 0000.0001)                 6.150000000000000E+02,      /* K = 14 */
(PID.TID 0000.0001)                 6.650000000000000E+02,      /* K = 15 */
(PID.TID 0000.0001)                 3.450000000000000E+02       /* K = 16 */
(PID.TID 0000.0001)     ;
(PID.TID 0000.0001) drF =   /* W spacing ( units of r ) */
(PID.TID 0000.0001)                 5.000000000000000E+01,      /* K =  1 */
(PID.TID 0000.0001)                 7.000000000000000E+01,      /* K =  2 */
(PID.TID 0000.0001)                 1.000000000000000E+02,      /* K =  3 */
(PID.TID 0000.0001)                 1.400000000000000E+02,      /* K =  4 */
(PID.TID 0000.0001)                 1.900000000000000E+02,      /* K =  5 */
(PID.TID 0000.0001)                 2.400000000000000E+02,      /* K =  6 */
(PID.TID 0000.0001)                 2.900000000000000E+02,      /* K =  7 */
(PID.TID 0000.0001)                 3.400000000000000E+02,      /* K =  8 */
(PID.TID 0000.0001)                 3.900000000000000E+02,      /* K =  9 */
(PID.TID 0000.0001)                 4.400000000000000E+02,      /* K = 10 */
(PID.TID 0000.0001)                 4.900000000000000E+02,      /* K = 11 */
(PID.TID 0000.0001)                 5.400000000000000E+02,      /* K = 12 */
(PID.TID 0000.0001)                 5.900000000000000E+02,      /* K = 13 */
(PID.TID 0000.0001)                 6.400000000000000E+02,      /* K = 14 */
(PID.TID 0000.0001)                 6.900000000000000E+02       /* K = 15 */
(PID.TID 0000.0001)     ;
(PID.TID 0000.0001) radius_fromHorizGrid = /* sphere Radius of input horiz. grid */
(PID.TID 0000.0001)                 6.370000000000000E+06
(PID.TID 0000.0001)     ;
(PID.TID 0000.0001) rSphere =  /* Radius ( ignored - cartesian, m - spherical ) */
(PID.TID 0000.0001)                 6.370000000000000E+06
(PID.TID 0000.0001)     ;
(PID.TID 0000.0001) deepAtmosphere = /* Deep/Shallow Atmosphere flag (True/False) */
(PID.TID 0000.0001)                   F
(PID.TID 0000.0001)     ;
(PID.TID 0000.0001) xC =  /* xC(:,1,:,1) : P-point X coord ( deg. or m if cartesian) */
(PID.TID 0000.0001)                -4.439521994760536E+01,      /* I =  1 */
(PID.TID 0000.0001)                -4.295641272275883E+01,      /* I =  2 */
(PID.TID 0000.0001)                -4.122055553388957E+01,      /* I =  3 */
(PID.TID 0000.0001)                -3.923446288487304E+01,      /* I =  4 */
(PID.TID 0000.0001)                -3.702585158682200E+01,      /* I =  5 */
(PID.TID 0000.0001)                -3.461179367094151E+01,      /* I =  6 */
(PID.TID 0000.0001)                -3.200434569041793E+01,      /* I =  7 */
(PID.TID 0000.0001)                -2.921355965632675E+01,      /* I =  8 */
(PID.TID 0000.0001)                -2.624932223028290E+01,      /* I =  9 */
(PID.TID 0000.0001)                -2.312261250426344E+01,      /* I = 10 */
(PID.TID 0000.0001)                -1.984640717127058E+01,      /* I = 11 */
(PID.TID 0000.0001)                -1.643630800555134E+01,      /* I = 12 */
(PID.TID 0000.0001)                -1.291089806302069E+01,      /* I = 13 */
(PID.TID 0000.0001)                -9.291807802719402E+00,      /* I = 14 */
(PID.TID 0000.0001)                -5.603475335822332E+00,      /* I = 15 */
(PID.TID 0000.0001)                -1.872608513033445E+00,      /* I = 16 */
(PID.TID 0000.0001)                 1.872608513033445E+00,      /* I = 17 */
(PID.TID 0000.0001)                 5.603475335822332E+00,      /* I = 18 */
(PID.TID 0000.0001)                 9.291807802719402E+00,      /* I = 19 */
(PID.TID 0000.0001)                 1.291089806302069E+01,      /* I = 20 */
(PID.TID 0000.0001)                 1.643630800555134E+01,      /* I = 21 */
(PID.TID 0000.0001)                 1.984640717127058E+01,      /* I = 22 */
(PID.TID 0000.0001)                 2.312261250426344E+01,      /* I = 23 */
(PID.TID 0000.0001)                 2.624932223028290E+01,      /* I = 24 */
(PID.TID 0000.0001)                 2.921355965632675E+01,      /* I = 25 */
(PID.TID 0000.0001)                 3.200434569041793E+01,      /* I = 26 */
(PID.TID 0000.0001)                 3.461179367094151E+01,      /* I = 27 */
(PID.TID 0000.0001)                 3.702585158682200E+01,      /* I = 28 */
(PID.TID 0000.0001)                 3.923446288487304E+01,      /* I = 29 */
(PID.TID 0000.0001)                 4.122055553388957E+01,      /* I = 30 */
(PID.TID 0000.0001)                 4.295641272275883E+01,      /* I = 31 */
(PID.TID 0000.0001)                 4.439521994760536E+01       /* I = 32 */
(PID.TID 0000.0001)     ;
(PID.TID 0000.0001) yC =  /* yC(1,:,1,:) : P-point Y coord ( deg. or m if cartesian) */
(PID.TID 0000.0001)                -3.497677942598243E+01,      /* J =  1 */
(PID.TID 0000.0001)                -3.374005967394886E+01,      /* J =  2 */
(PID.TID 0000.0001)                -3.220655175667454E+01,      /* J =  3 */
(PID.TID 0000.0001)                -3.045756348838641E+01,      /* J =  4 */
(PID.TID 0000.0001)                -2.853728129852918E+01,      /* J =  5 */
(PID.TID 0000.0001)                -2.647426640173173E+01,      /* J =  6 */
(PID.TID 0000.0001)                -2.428936657094636E+01,      /* J =  7 */
(PID.TID 0000.0001)                -2.199915808312262E+01,      /* J =  8 */
(PID.TID 0000.0001)                -1.961768597440146E+01,      /* J =  9 */
(PID.TID 0000.0001)                -1.715743888281371E+01,      /* J = 10 */
(PID.TID 0000.0001)                -1.462993396899330E+01,      /* J = 11 */
(PID.TID 0000.0001)                -1.204608340464756E+01,      /* J = 12 */
(PID.TID 0000.0001)                -9.416429130284818E+00,      /* J = 13 */
(PID.TID 0000.0001)                -6.751293662992216E+00,      /* J = 14 */
(PID.TID 0000.0001)                -4.060875511835959E+00,      /* J = 15 */
(PID.TID 0000.0001)                -1.355307764409121E+00,      /* J = 16 */
(PID.TID 0000.0001)                 1.355307764409121E+00,      /* J = 17 */
(PID.TID 0000.0001)                 4.060875511835959E+00,      /* J = 18 */
(PID.TID 0000.0001)                 6.751293662992216E+00,      /* J = 19 */
(PID.TID 0000.0001)                 9.416429130284818E+00,      /* J = 20 */
(PID.TID 0000.0001)                 1.204608340464756E+01,      /* J = 21 */
(PID.TID 0000.0001)                 1.462993396899330E+01,      /* J = 22 */
(PID.TID 0000.0001)                 1.715743888281371E+01,      /* J = 23 */
(PID.TID 0000.0001)                 1.961768597440146E+01,      /* J = 24 */
(PID.TID 0000.0001)                 2.199915808312262E+01,      /* J = 25 */
(PID.TID 0000.0001)                 2.428936657094636E+01,      /* J = 26 */
(PID.TID 0000.0001)                 2.647426640173173E+01,      /* J = 27 */
(PID.TID 0000.0001)                 2.853728129852918E+01,      /* J = 28 */
(PID.TID 0000.0001)                 3.045756348838641E+01,      /* J = 29 */
(PID.TID 0000.0001)                 3.220655175667454E+01,      /* J = 30 */
(PID.TID 0000.0001)                 3.374005967394886E+01,      /* J = 31 */
(PID.TID 0000.0001)                 3.497677942598243E+01       /* J = 32 */
(PID.TID 0000.0001)     ;
(PID.TID 0000.0001) rcoord = /* P-point R coordinate (  units of r ) */
(PID.TID 0000.0001)                -2.500000000000000E+01,      /* K =  1 */
(PID.TID 0000.0001)                -8.500000000000000E+01,      /* K =  2 */
(PID.TID 0000.0001)                -1.700000000000000E+02,      /* K =  3 */
(PID.TID 0000.0001)                -2.900000000000000E+02,      /* K =  4 */
(PID.TID 0000.0001)                -4.550000000000000E+02,      /* K =  5 */
(PID.TID 0000.0001)                -6.700000000000000E+02,      /* K =  6 */
(PID.TID 0000.0001)                -9.350000000000000E+02,      /* K =  7 */
(PID.TID 0000.0001)                -1.250000000000000E+03,      /* K =  8 */
(PID.TID 0000.0001)                -1.615000000000000E+03,      /* K =  9 */
(PID.TID 0000.0001)                -2.030000000000000E+03,      /* K = 10 */
(PID.TID 0000.0001)                -2.495000000000000E+03,      /* K = 11 */
(PID.TID 0000.0001)                -3.010000000000000E+03,      /* K = 12 */
(PID.TID 0000.0001)                -3.575000000000000E+03,      /* K = 13 */
(PID.TID 0000.0001)                -4.190000000000000E+03,      /* K = 14 */
(PID.TID 0000.0001)                -4.855000000000000E+03       /* K = 15 */
(PID.TID 0000.0001)     ;
(PID.TID 0000.0001) rF =   /* W-Interf. R coordinate (  units of r ) */
(PID.TID 0000.0001)                 0.000000000000000E+00,      /* K =  1 */
(PID.TID 0000.0001)                -5.000000000000000E+01,      /* K =  2 */
(PID.TID 0000.0001)                -1.200000000000000E+02,      /* K =  3 */
(PID.TID 0000.0001)                -2.200000000000000E+02,      /* K =  4 */
(PID.TID 0000.0001)                -3.600000000000000E+02,      /* K =  5 */
(PID.TID 0000.0001)                -5.500000000000000E+02,      /* K =  6 */
(PID.TID 0000.0001)                -7.900000000000000E+02,      /* K =  7 */
(PID.TID 0000.0001)                -1.080000000000000E+03,      /* K =  8 */
(PID.TID 0000.0001)                -1.420000000000000E+03,      /* K =  9 */
(PID.TID 0000.0001)                -1.810000000000000E+03,      /* K = 10 */
(PID.TID 0000.0001)                -2.250000000000000E+03,      /* K = 11 */
(PID.TID 0000.0001)                -2.740000000000000E+03,      /* K = 12 */
(PID.TID 0000.0001)                -3.280000000000000E+03,      /* K = 13 */
(PID.TID 0000.0001)                -3.870000000000000E+03,      /* K = 14 */
(PID.TID 0000.0001)                -4.510000000000000E+03,      /* K = 15 */
(PID.TID 0000.0001)                -5.200000000000000E+03       /* K = 16 */
(PID.TID 0000.0001)     ;
(PID.TID 0000.0001) deepFacC = /* deep-model grid factor @ cell-Center (-) */
(PID.TID 0000.0001)    15 @  1.000000000000000E+00              /* K =  1: 15 */
(PID.TID 0000.0001)     ;
(PID.TID 0000.0001) deepFacF = /* deep-model grid factor @ W-Interface (-) */
(PID.TID 0000.0001)    16 @  1.000000000000000E+00              /* K =  1: 16 */
(PID.TID 0000.0001)     ;
(PID.TID 0000.0001) rVel2wUnit = /* convert units: rVel -> wSpeed (=1 if z-coord)*/
(PID.TID 0000.0001)    16 @  1.000000000000000E+00              /* K =  1: 16 */
(PID.TID 0000.0001)     ;
(PID.TID 0000.0001) wUnit2rVel = /* convert units: wSpeed -> rVel (=1 if z-coord)*/
(PID.TID 0000.0001)    16 @  1.000000000000000E+00              /* K =  1: 16 */
(PID.TID 0000.0001)     ;
(PID.TID 0000.0001) dBdrRef = /* Vertical grad. of reference buoyancy [(m/s/r)^2] */
(PID.TID 0000.0001)    15 @  0.000000000000000E+00              /* K =  1: 15 */
(PID.TID 0000.0001)     ;
(PID.TID 0000.0001) rotateGrid = /* use rotated grid ( True/False ) */
(PID.TID 0000.0001)                   F
(PID.TID 0000.0001)     ;
(PID.TID 0000.0001) phiEuler = /* Euler angle, rotation about original z-coordinate [rad] */
(PID.TID 0000.0001)                 0.000000000000000E+00
(PID.TID 0000.0001)     ;
(PID.TID 0000.0001) thetaEuler = /* Euler angle, rotation about new x-coordinate [rad] */
(PID.TID 0000.0001)                 0.000000000000000E+00
(PID.TID 0000.0001)     ;
(PID.TID 0000.0001) psiEuler = /* Euler angle, rotation about new z-coordinate [rad] */
(PID.TID 0000.0001)                 0.000000000000000E+00
(PID.TID 0000.0001)     ;
(PID.TID 0000.0001) dxF =  /* dxF(:,1,:,1) ( units: m ) */
(PID.TID 0000.0001)                 1.202082051331828E+05,      /* I =  1 */
(PID.TID 0000.0001)                 1.563594089971120E+05,      /* I =  2 */
(PID.TID 0000.0001)                 1.835530058121492E+05,      /* I =  3 */
(PID.TID 0000.0001)                 2.045883481718707E+05,      /* I =  4 */
(PID.TID 0000.0001)                 2.218350349844185E+05,      /* I =  5 */
(PID.TID 0000.0001)                 2.364352994647058E+05,      /* I =  6 */
(PID.TID 0000.0001)                 2.490022710862746E+05,      /* I =  7 */
(PID.TID 0000.0001)                 2.598919724358304E+05,      /* I =  8 */
(PID.TID 0000.0001)                 2.693210245495156E+05,      /* I =  9 */
(PID.TID 0000.0001)                 2.774243179696503E+05,      /* I = 10 */
(PID.TID 0000.0001)                 2.842862532064524E+05,      /* I = 11 */
(PID.TID 0000.0001)                 2.899590699694043E+05,      /* I = 12 */
(PID.TID 0000.0001)                 2.944742915095688E+05,      /* I = 13 */
(PID.TID 0000.0001)                 2.978501920522794E+05,      /* I = 14 */
(PID.TID 0000.0001)                 3.000967749619962E+05,      /* I = 15 */
(PID.TID 0000.0001)     2 @  3.012190981969055E+05,             /* I = 16: 17 */
(PID.TID 0000.0001)                 3.000967749619962E+05,      /* I = 18 */
(PID.TID 0000.0001)                 2.978501920522794E+05,      /* I = 19 */
(PID.TID 0000.0001)                 2.944742915095688E+05,      /* I = 20 */
(PID.TID 0000.0001)                 2.899590699694043E+05,      /* I = 21 */
(PID.TID 0000.0001)                 2.842862532064524E+05,      /* I = 22 */
(PID.TID 0000.0001)                 2.774243179696503E+05,      /* I = 23 */
(PID.TID 0000.0001)                 2.693210245495156E+05,      /* I = 24 */
(PID.TID 0000.0001)                 2.598919724358304E+05,      /* I = 25 */
(PID.TID 0000.0001)                 2.490022710862746E+05,      /* I = 26 */
(PID.TID 0000.0001)                 2.364352994647058E+05,      /* I = 27 */
(PID.TID 0000.0001)                 2.218350349844185E+05,      /* I = 28 */
(PID.TID 0000.0001)                 2.045883481718707E+05,      /* I = 29 */
(PID.TID 0000.0001)                 1.835530058121492E+05,      /* I = 30 */
(PID.TID 0000.0001)                 1.563594089971120E+05,      /* I = 31 */
(PID.TID 0000.0001)                 1.202082051331828E+05       /* I = 32 */
(PID.TID 0000.0001)     ;
(PID.TID 0000.0001) dxF =  /* dxF(1,:,1,:) ( units: m ) */
(PID.TID 0000.0001)                 1.202082051331828E+05,      /* J =  1 */
(PID.TID 0000.0001)                 1.572908084538706E+05,      /* J =  2 */
(PID.TID 0000.0001)                 1.840412227747703E+05,      /* J =  3 */
(PID.TID 0000.0001)                 2.048868197919576E+05,      /* J =  4 */
(PID.TID 0000.0001)                 2.220405216043041E+05,      /* J =  5 */
(PID.TID 0000.0001)                 2.365892017348392E+05,      /* J =  6 */
(PID.TID 0000.0001)                 2.491250781852558E+05,      /* J =  7 */
(PID.TID 0000.0001)                 2.599949918261881E+05,      /* J =  8 */
(PID.TID 0000.0001)                 2.694110134598581E+05,      /* J =  9 */
(PID.TID 0000.0001)                 2.775055554645015E+05,      /* J = 10 */
(PID.TID 0000.0001)                 2.843615645344775E+05,      /* J = 11 */
(PID.TID 0000.0001)                 2.900303768613599E+05,      /* J = 12 */
(PID.TID 0000.0001)                 2.945429307892709E+05,      /* J = 13 */
(PID.TID 0000.0001)                 2.979171143158405E+05,      /* J = 14 */
(PID.TID 0000.0001)                 3.001626787528886E+05,      /* J = 15 */
(PID.TID 0000.0001)     2 @  3.012844832048790E+05,             /* J = 16: 17 */
(PID.TID 0000.0001)                 3.001626787528886E+05,      /* J = 18 */
(PID.TID 0000.0001)                 2.979171143158405E+05,      /* J = 19 */
(PID.TID 0000.0001)                 2.945429307892709E+05,      /* J = 20 */
(PID.TID 0000.0001)                 2.900303768613599E+05,      /* J = 21 */
(PID.TID 0000.0001)                 2.843615645344775E+05,      /* J = 22 */
(PID.TID 0000.0001)                 2.775055554645015E+05,      /* J = 23 */
(PID.TID 0000.0001)                 2.694110134598581E+05,      /* J = 24 */
(PID.TID 0000.0001)                 2.599949918261881E+05,      /* J = 25 */
(PID.TID 0000.0001)                 2.491250781852558E+05,      /* J = 26 */
(PID.TID 0000.0001)                 2.365892017348392E+05,      /* J = 27 */
(PID.TID 0000.0001)                 2.220405216043041E+05,      /* J = 28 */
(PID.TID 0000.0001)                 2.048868197919576E+05,      /* J = 29 */
(PID.TID 0000.0001)                 1.840412227747703E+05,      /* J = 30 */
(PID.TID 0000.0001)                 1.572908084538706E+05,      /* J = 31 */
(PID.TID 0000.0001)                 1.202082051331828E+05       /* J = 32 */
(PID.TID 0000.0001)     ;
(PID.TID 0000.0001) dyF =  /* dyF(:,1,:,1) ( units: m ) */
(PID.TID 0000.0001)                 1.202082051331828E+05,      /* I =  1 */
(PID.TID 0000.0001)                 1.572908084538706E+05,      /* I =  2 */
(PID.TID 0000.0001)                 1.840412227747703E+05,      /* I =  3 */
(PID.TID 0000.0001)                 2.048868197919576E+05,      /* I =  4 */
(PID.TID 0000.0001)                 2.220405216043041E+05,      /* I =  5 */
(PID.TID 0000.0001)                 2.365892017348392E+05,      /* I =  6 */
(PID.TID 0000.0001)                 2.491250781852558E+05,      /* I =  7 */
(PID.TID 0000.0001)                 2.599949918261881E+05,      /* I =  8 */
(PID.TID 0000.0001)                 2.694110134598581E+05,      /* I =  9 */
(PID.TID 0000.0001)                 2.775055554645015E+05,      /* I = 10 */
(PID.TID 0000.0001)                 2.843615645344775E+05,      /* I = 11 */
(PID.TID 0000.0001)                 2.900303768613599E+05,      /* I = 12 */
(PID.TID 0000.0001)                 2.945429307892709E+05,      /* I = 13 */
(PID.TID 0000.0001)                 2.979171143158405E+05,      /* I = 14 */
(PID.TID 0000.0001)                 3.001626787528886E+05,      /* I = 15 */
(PID.TID 0000.0001)     2 @  3.012844832048790E+05,             /* I = 16: 17 */
(PID.TID 0000.0001)                 3.001626787528886E+05,      /* I = 18 */
(PID.TID 0000.0001)                 2.979171143158405E+05,      /* I = 19 */
(PID.TID 0000.0001)                 2.945429307892709E+05,      /* I = 20 */
(PID.TID 0000.0001)                 2.900303768613599E+05,      /* I = 21 */
(PID.TID 0000.0001)                 2.843615645344775E+05,      /* I = 22 */
(PID.TID 0000.0001)                 2.775055554645015E+05,      /* I = 23 */
(PID.TID 0000.0001)                 2.694110134598581E+05,      /* I = 24 */
(PID.TID 0000.0001)                 2.599949918261881E+05,      /* I = 25 */
(PID.TID 0000.0001)                 2.491250781852558E+05,      /* I = 26 */
(PID.TID 0000.0001)                 2.365892017348392E+05,      /* I = 27 */
(PID.TID 0000.0001)                 2.220405216043041E+05,      /* I = 28 */
(PID.TID 0000.0001)                 2.048868197919576E+05,      /* I = 29 */
(PID.TID 0000.0001)                 1.840412227747703E+05,      /* I = 30 */
(PID.TID 0000.0001)                 1.572908084538706E+05,      /* I = 31 */
(PID.TID 0000.0001)                 1.202082051331828E+05       /* I = 32 */
(PID.TID 0000.0001)     ;
(PID.TID 0000.0001) dyF =  /* dyF(1,:,1,:) ( units: m ) */
(PID.TID 0000.0001)                 1.202082051331828E+05,      /* J =  1 */
(PID.TID 0000.0001)                 1.563594089971120E+05,      /* J =  2 */
(PID.TID 0000.0001)                 1.835530058121492E+05,      /* J =  3 */
(PID.TID 0000.0001)                 2.045883481718707E+05,      /* J =  4 */
(PID.TID 0000.0001)                 2.218350349844185E+05,      /* J =  5 */
(PID.TID 0000.0001)                 2.364352994647058E+05,      /* J =  6 */
(PID.TID 0000.0001)                 2.490022710862746E+05,      /* J =  7 */
(PID.TID 0000.0001)                 2.598919724358304E+05,      /* J =  8 */
(PID.TID 0000.0001)                 2.693210245495156E+05,      /* J =  9 */
(PID.TID 0000.0001)                 2.774243179696503E+05,      /* J = 10 */
(PID.TID 0000.0001)                 2.842862532064524E+05,      /* J = 11 */
(PID.TID 0000.0001)                 2.899590699694043E+05,      /* J = 12 */
(PID.TID 0000.0001)                 2.944742915095688E+05,      /* J = 13 */
(PID.TID 0000.0001)                 2.978501920522794E+05,      /* J = 14 */
(PID.TID 0000.0001)                 3.000967749619962E+05,      /* J = 15 */
(PID.TID 0000.0001)     2 @  3.012190981969055E+05,             /* J = 16: 17 */
(PID.TID 0000.0001)                 3.000967749619962E+05,      /* J = 18 */
(PID.TID 0000.0001)                 2.978501920522794E+05,      /* J = 19 */
(PID.TID 0000.0001)                 2.944742915095688E+05,      /* J = 20 */
(PID.TID 0000.0001)                 2.899590699694043E+05,      /* J = 21 */
(PID.TID 0000.0001)                 2.842862532064524E+05,      /* J = 22 */
(PID.TID 0000.0001)                 2.774243179696503E+05,      /* J = 23 */
(PID.TID 0000.0001)                 2.693210245495156E+05,      /* J = 24 */
(PID.TID 0000.0001)                 2.598919724358304E+05,      /* J = 25 */
(PID.TID 0000.0001)                 2.490022710862746E+05,      /* J = 26 */
(PID.TID 0000.0001)                 2.364352994647058E+05,      /* J = 27 */
(PID.TID 0000.0001)                 2.218350349844185E+05,      /* J = 28 */
(PID.TID 0000.0001)                 2.045883481718707E+05,      /* J = 29 */
(PID.TID 0000.0001)                 1.835530058121492E+05,      /* J = 30 */
(PID.TID 0000.0001)                 1.563594089971120E+05,      /* J = 31 */
(PID.TID 0000.0001)                 1.202082051331828E+05       /* J = 32 */
(PID.TID 0000.0001)     ;
(PID.TID 0000.0001) dxG =  /* dxG(:,1,:,1) ( units: m ) */
(PID.TID 0000.0001)                 1.009837800879055E+05,      /* I =  1 */
(PID.TID 0000.0001)                 1.534505834330338E+05,      /* I =  2 */
(PID.TID 0000.0001)                 1.823321598773926E+05,      /* I =  3 */
(PID.TID 0000.0001)                 2.038999045536999E+05,      /* I =  4 */
(PID.TID 0000.0001)                 2.213884732245467E+05,      /* I =  5 */
(PID.TID 0000.0001)                 2.361211699596122E+05,      /* I =  6 */
(PID.TID 0000.0001)                 2.487693460283865E+05,      /* I =  7 */
(PID.TID 0000.0001)                 2.597126963772147E+05,      /* I =  8 */
(PID.TID 0000.0001)                 2.691790288994575E+05,      /* I =  9 */
(PID.TID 0000.0001)                 2.773091043277394E+05,      /* I = 10 */
(PID.TID 0000.0001)                 2.841906470085516E+05,      /* I = 11 */
(PID.TID 0000.0001)                 2.898778860929753E+05,      /* I = 12 */
(PID.TID 0000.0001)                 2.944035815526416E+05,      /* I = 13 */
(PID.TID 0000.0001)                 2.977867909042096E+05,      /* I = 14 */
(PID.TID 0000.0001)                 3.000380090330854E+05,      /* I = 15 */
(PID.TID 0000.0001)     2 @  3.011625828699101E+05,             /* I = 16: 17 */
(PID.TID 0000.0001)                 3.000380090330854E+05,      /* I = 18 */
(PID.TID 0000.0001)                 2.977867909042096E+05,      /* I = 19 */
(PID.TID 0000.0001)                 2.944035815526416E+05,      /* I = 20 */
(PID.TID 0000.0001)                 2.898778860929753E+05,      /* I = 21 */
(PID.TID 0000.0001)                 2.841906470085516E+05,      /* I = 22 */
(PID.TID 0000.0001)                 2.773091043277394E+05,      /* I = 23 */
(PID.TID 0000.0001)                 2.691790288994575E+05,      /* I = 24 */
(PID.TID 0000.0001)                 2.597126963772147E+05,      /* I = 25 */
(PID.TID 0000.0001)                 2.487693460283865E+05,      /* I = 26 */
(PID.TID 0000.0001)                 2.361211699596122E+05,      /* I = 27 */
(PID.TID 0000.0001)                 2.213884732245467E+05,      /* I = 28 */
(PID.TID 0000.0001)                 2.038999045536999E+05,      /* I = 29 */
(PID.TID 0000.0001)                 1.823321598773926E+05,      /* I = 30 */
(PID.TID 0000.0001)                 1.534505834330338E+05,      /* I = 31 */
(PID.TID 0000.0001)                 1.009837800879055E+05       /* I = 32 */
(PID.TID 0000.0001)     ;
(PID.TID 0000.0001) dxG =  /* dxG(1,:,1,:) ( units: m ) */
(PID.TID 0000.0001)                 1.009837800879055E+05,      /* J =  1 */
(PID.TID 0000.0001)                 1.403701524205398E+05,      /* J =  2 */
(PID.TID 0000.0001)                 1.716197227386011E+05,      /* J =  3 */
(PID.TID 0000.0001)                 1.950254041626018E+05,      /* J =  4 */
(PID.TID 0000.0001)                 2.138410773065497E+05,      /* J =  5 */
(PID.TID 0000.0001)                 2.295958105911512E+05,      /* J =  6 */
(PID.TID 0000.0001)                 2.430829951739083E+05,      /* J =  7 */
(PID.TID 0000.0001)                 2.547526806712889E+05,      /* J =  8 */
(PID.TID 0000.0001)                 2.648750305193301E+05,      /* J =  9 */
(PID.TID 0000.0001)                 2.736173771018112E+05,      /* J = 10 */
(PID.TID 0000.0001)                 2.810845823202647E+05,      /* J = 11 */
(PID.TID 0000.0001)                 2.873420591008078E+05,      /* J = 12 */
(PID.TID 0000.0001)                 2.924298293668651E+05,      /* J = 13 */
(PID.TID 0000.0001)                 2.963715635865306E+05,      /* J = 14 */
(PID.TID 0000.0001)                 2.991805843171258E+05,      /* J = 15 */
(PID.TID 0000.0001)                 3.008638765647886E+05,      /* J = 16 */
(PID.TID 0000.0001)                 3.014246674484008E+05,      /* J = 17 */
(PID.TID 0000.0001)                 3.008638765647886E+05,      /* J = 18 */
(PID.TID 0000.0001)                 2.991805843171258E+05,      /* J = 19 */
(PID.TID 0000.0001)                 2.963715635865306E+05,      /* J = 20 */
(PID.TID 0000.0001)                 2.924298293668651E+05,      /* J = 21 */
(PID.TID 0000.0001)                 2.873420591008078E+05,      /* J = 22 */
(PID.TID 0000.0001)                 2.810845823202647E+05,      /* J = 23 */
(PID.TID 0000.0001)                 2.736173771018112E+05,      /* J = 24 */
(PID.TID 0000.0001)                 2.648750305193301E+05,      /* J = 25 */
(PID.TID 0000.0001)                 2.547526806712889E+05,      /* J = 26 */
(PID.TID 0000.0001)                 2.430829951739083E+05,      /* J = 27 */
(PID.TID 0000.0001)                 2.295958105911512E+05,      /* J = 28 */
(PID.TID 0000.0001)                 2.138410773065497E+05,      /* J = 29 */
(PID.TID 0000.0001)                 1.950254041626018E+05,      /* J = 30 */
(PID.TID 0000.0001)                 1.716197227386011E+05,      /* J = 31 */
(PID.TID 0000.0001)                 1.403701524205398E+05       /* J = 32 */
(PID.TID 0000.0001)     ;
(PID.TID 0000.0001) dyG =  /* dyG(:,1,:,1) ( units: m ) */
(PID.TID 0000.0001)                 1.009837800879055E+05,      /* I =  1 */
(PID.TID 0000.0001)                 1.403701524205398E+05,      /* I =  2 */
(PID.TID 0000.0001)                 1.716197227386011E+05,      /* I =  3 */
(PID.TID 0000.0001)                 1.950254041626018E+05,      /* I =  4 */
(PID.TID 0000.0001)                 2.138410773065497E+05,      /* I =  5 */
(PID.TID 0000.0001)                 2.295958105911512E+05,      /* I =  6 */
(PID.TID 0000.0001)                 2.430829951739083E+05,      /* I =  7 */
(PID.TID 0000.0001)                 2.547526806712889E+05,      /* I =  8 */
(PID.TID 0000.0001)                 2.648750305193301E+05,      /* I =  9 */
(PID.TID 0000.0001)                 2.736173771018112E+05,      /* I = 10 */
(PID.TID 0000.0001)                 2.810845823202647E+05,      /* I = 11 */
(PID.TID 0000.0001)                 2.873420591008078E+05,      /* I = 12 */
(PID.TID 0000.0001)                 2.924298293668651E+05,      /* I = 13 */
(PID.TID 0000.0001)                 2.963715635865306E+05,      /* I = 14 */
(PID.TID 0000.0001)                 2.991805843171258E+05,      /* I = 15 */
(PID.TID 0000.0001)                 3.008638765647886E+05,      /* I = 16 */
(PID.TID 0000.0001)                 3.014246674484008E+05,      /* I = 17 */
(PID.TID 0000.0001)                 3.008638765647886E+05,      /* I = 18 */
(PID.TID 0000.0001)                 2.991805843171258E+05,      /* I = 19 */
(PID.TID 0000.0001)                 2.963715635865306E+05,      /* I = 20 */
(PID.TID 0000.0001)                 2.924298293668651E+05,      /* I = 21 */
(PID.TID 0000.0001)                 2.873420591008078E+05,      /* I = 22 */
(PID.TID 0000.0001)                 2.810845823202647E+05,      /* I = 23 */
(PID.TID 0000.0001)                 2.736173771018112E+05,      /* I = 24 */
(PID.TID 0000.0001)                 2.648750305193301E+05,      /* I = 25 */
(PID.TID 0000.0001)                 2.547526806712889E+05,      /* I = 26 */
(PID.TID 0000.0001)                 2.430829951739083E+05,      /* I = 27 */
(PID.TID 0000.0001)                 2.295958105911512E+05,      /* I = 28 */
(PID.TID 0000.0001)                 2.138410773065497E+05,      /* I = 29 */
(PID.TID 0000.0001)                 1.950254041626018E+05,      /* I = 30 */
(PID.TID 0000.0001)                 1.716197227386011E+05,      /* I = 31 */
(PID.TID 0000.0001)                 1.403701524205398E+05       /* I = 32 */
(PID.TID 0000.0001)     ;
(PID.TID 0000.0001) dyG =  /* dyG(1,:,1,:) ( units: m ) */
(PID.TID 0000.0001)                 1.009837800879055E+05,      /* J =  1 */
(PID.TID 0000.0001)                 1.534505834330338E+05,      /* J =  2 */
(PID.TID 0000.0001)                 1.823321598773926E+05,      /* J =  3 */
(PID.TID 0000.0001)                 2.038999045536999E+05,      /* J =  4 */
(PID.TID 0000.0001)                 2.213884732245467E+05,      /* J =  5 */
(PID.TID 0000.0001)                 2.361211699596122E+05,      /* J =  6 */
(PID.TID 0000.0001)                 2.487693460283865E+05,      /* J =  7 */
(PID.TID 0000.0001)                 2.597126963772147E+05,      /* J =  8 */
(PID.TID 0000.0001)                 2.691790288994575E+05,      /* J =  9 */
(PID.TID 0000.0001)                 2.773091043277394E+05,      /* J = 10 */
(PID.TID 0000.0001)                 2.841906470085516E+05,      /* J = 11 */
(PID.TID 0000.0001)                 2.898778860929753E+05,      /* J = 12 */
(PID.TID 0000.0001)                 2.944035815526416E+05,      /* J = 13 */
(PID.TID 0000.0001)                 2.977867909042096E+05,      /* J = 14 */
(PID.TID 0000.0001)                 3.000380090330854E+05,      /* J = 15 */
(PID.TID 0000.0001)     2 @  3.011625828699101E+05,             /* J = 16: 17 */
(PID.TID 0000.0001)                 3.000380090330854E+05,      /* J = 18 */
(PID.TID 0000.0001)                 2.977867909042096E+05,      /* J = 19 */
(PID.TID 0000.0001)                 2.944035815526416E+05,      /* J = 20 */
(PID.TID 0000.0001)                 2.898778860929753E+05,      /* J = 21 */
(PID.TID 0000.0001)                 2.841906470085516E+05,      /* J = 22 */
(PID.TID 0000.0001)                 2.773091043277394E+05,      /* J = 23 */
(PID.TID 0000.0001)                 2.691790288994575E+05,      /* J = 24 */
(PID.TID 0000.0001)                 2.597126963772147E+05,      /* J = 25 */
(PID.TID 0000.0001)                 2.487693460283865E+05,      /* J = 26 */
(PID.TID 0000.0001)                 2.361211699596122E+05,      /* J = 27 */
(PID.TID 0000.0001)                 2.213884732245467E+05,      /* J = 28 */
(PID.TID 0000.0001)                 2.038999045536999E+05,      /* J = 29 */
(PID.TID 0000.0001)                 1.823321598773926E+05,      /* J = 30 */
(PID.TID 0000.0001)                 1.534505834330338E+05,      /* J = 31 */
(PID.TID 0000.0001)                 1.009837800879055E+05       /* J = 32 */
(PID.TID 0000.0001)     ;
(PID.TID 0000.0001) dxC =  /* dxC(:,1,:,1) ( units: m ) */
(PID.TID 0000.0001)                 1.114203141013064E+05,      /* I =  1 */
(PID.TID 0000.0001)                 1.391343389937106E+05,      /* I =  2 */
(PID.TID 0000.0001)                 1.709574999026266E+05,      /* I =  3 */
(PID.TID 0000.0001)                 1.946503699269892E+05,      /* I =  4 */
(PID.TID 0000.0001)                 2.135964483342134E+05,      /* I =  5 */
(PID.TID 0000.0001)                 2.294195678257306E+05,      /* I =  6 */
(PID.TID 0000.0001)                 2.429464709770498E+05,      /* I =  7 */
(PID.TID 0000.0001)                 2.546408290696998E+05,      /* I =  8 */
(PID.TID 0000.0001)                 2.647791839299727E+05,      /* I =  9 */
(PID.TID 0000.0001)                 2.735321911346108E+05,      /* I = 10 */
(PID.TID 0000.0001)                 2.810065951609633E+05,      /* I = 11 */
(PID.TID 0000.0001)                 2.872689479506990E+05,      /* I = 12 */
(PID.TID 0000.0001)                 2.923599955312932E+05,      /* I = 13 */
(PID.TID 0000.0001)                 2.963038832565530E+05,      /* I = 14 */
(PID.TID 0000.0001)                 2.991142470004740E+05,      /* I = 15 */
(PID.TID 0000.0001)                 3.007982711627968E+05,      /* I = 16 */
(PID.TID 0000.0001)                 3.013593857228136E+05,      /* I = 17 */
(PID.TID 0000.0001)                 3.007982711627968E+05,      /* I = 18 */
(PID.TID 0000.0001)                 2.991142470004740E+05,      /* I = 19 */
(PID.TID 0000.0001)                 2.963038832565530E+05,      /* I = 20 */
(PID.TID 0000.0001)                 2.923599955312932E+05,      /* I = 21 */
(PID.TID 0000.0001)                 2.872689479506990E+05,      /* I = 22 */
(PID.TID 0000.0001)                 2.810065951609633E+05,      /* I = 23 */
(PID.TID 0000.0001)                 2.735321911346108E+05,      /* I = 24 */
(PID.TID 0000.0001)                 2.647791839299727E+05,      /* I = 25 */
(PID.TID 0000.0001)                 2.546408290696998E+05,      /* I = 26 */
(PID.TID 0000.0001)                 2.429464709770498E+05,      /* I = 27 */
(PID.TID 0000.0001)                 2.294195678257306E+05,      /* I = 28 */
(PID.TID 0000.0001)                 2.135964483342134E+05,      /* I = 29 */
(PID.TID 0000.0001)                 1.946503699269892E+05,      /* I = 30 */
(PID.TID 0000.0001)                 1.709574999026266E+05,      /* I = 31 */
(PID.TID 0000.0001)                 1.391343389937106E+05       /* I = 32 */
(PID.TID 0000.0001)     ;
(PID.TID 0000.0001) dxC =  /* dxC(1,:,1,:) ( units: m ) */
(PID.TID 0000.0001)                 1.114203141013064E+05,      /* J =  1 */
(PID.TID 0000.0001)                 1.549545757850771E+05,      /* J =  2 */
(PID.TID 0000.0001)                 1.829777599966776E+05,      /* J =  3 */
(PID.TID 0000.0001)                 2.042717761866506E+05,      /* J =  4 */
(PID.TID 0000.0001)                 2.216367828252819E+05,      /* J =  5 */
(PID.TID 0000.0001)                 2.363029564123586E+05,      /* J =  6 */
(PID.TID 0000.0001)                 2.489113743322025E+05,      /* J =  7 */
(PID.TID 0000.0001)                 2.598293319150326E+05,      /* J =  8 */
(PID.TID 0000.0001)                 2.692787333338535E+05,      /* J =  9 */
(PID.TID 0000.0001)                 2.773972106720365E+05,      /* J = 10 */
(PID.TID 0000.0001)                 2.842706922224557E+05,      /* J = 11 */
(PID.TID 0000.0001)                 2.899523122489403E+05,      /* J = 12 */
(PID.TID 0000.0001)                 2.944741346384699E+05,      /* J = 13 */
(PID.TID 0000.0001)                 2.978547649292580E+05,      /* J = 14 */
(PID.TID 0000.0001)                 3.001044073506459E+05,      /* J = 15 */
(PID.TID 0000.0001)     2 @  3.012281885409289E+05,             /* J = 16: 17 */
(PID.TID 0000.0001)                 3.001044073506459E+05,      /* J = 18 */
(PID.TID 0000.0001)                 2.978547649292580E+05,      /* J = 19 */
(PID.TID 0000.0001)                 2.944741346384699E+05,      /* J = 20 */
(PID.TID 0000.0001)                 2.899523122489403E+05,      /* J = 21 */
(PID.TID 0000.0001)                 2.842706922224557E+05,      /* J = 22 */
(PID.TID 0000.0001)                 2.773972106720365E+05,      /* J = 23 */
(PID.TID 0000.0001)                 2.692787333338535E+05,      /* J = 24 */
(PID.TID 0000.0001)                 2.598293319150326E+05,      /* J = 25 */
(PID.TID 0000.0001)                 2.489113743322025E+05,      /* J = 26 */
(PID.TID 0000.0001)                 2.363029564123586E+05,      /* J = 27 */
(PID.TID 0000.0001)                 2.216367828252819E+05,      /* J = 28 */
(PID.TID 0000.0001)                 2.042717761866506E+05,      /* J = 29 */
(PID.TID 0000.0001)                 1.829777599966776E+05,      /* J = 30 */
(PID.TID 0000.0001)                 1.549545757850771E+05,      /* J = 31 */
(PID.TID 0000.0001)                 1.114203141013064E+05       /* J = 32 */
(PID.TID 0000.0001)     ;
(PID.TID 0000.0001) dyC =  /* dyC(:,1,:,1) ( units: m ) */
(PID.TID 0000.0001)                 1.114203141013064E+05,      /* I =  1 */
(PID.TID 0000.0001)                 1.549545757850771E+05,      /* I =  2 */
(PID.TID 0000.0001)                 1.829777599966776E+05,      /* I =  3 */
(PID.TID 0000.0001)                 2.042717761866506E+05,      /* I =  4 */
(PID.TID 0000.0001)                 2.216367828252819E+05,      /* I =  5 */
(PID.TID 0000.0001)                 2.363029564123586E+05,      /* I =  6 */
(PID.TID 0000.0001)                 2.489113743322025E+05,      /* I =  7 */
(PID.TID 0000.0001)                 2.598293319150326E+05,      /* I =  8 */
(PID.TID 0000.0001)                 2.692787333338535E+05,      /* I =  9 */
(PID.TID 0000.0001)                 2.773972106720365E+05,      /* I = 10 */
(PID.TID 0000.0001)                 2.842706922224557E+05,      /* I = 11 */
(PID.TID 0000.0001)                 2.899523122489403E+05,      /* I = 12 */
(PID.TID 0000.0001)                 2.944741346384699E+05,      /* I = 13 */
(PID.TID 0000.0001)                 2.978547649292580E+05,      /* I = 14 */
(PID.TID 0000.0001)                 3.001044073506459E+05,      /* I = 15 */
(PID.TID 0000.0001)     2 @  3.012281885409289E+05,             /* I = 16: 17 */
(PID.TID 0000.0001)                 3.001044073506459E+05,      /* I = 18 */
(PID.TID 0000.0001)                 2.978547649292580E+05,      /* I = 19 */
(PID.TID 0000.0001)                 2.944741346384699E+05,      /* I = 20 */
(PID.TID 0000.0001)                 2.899523122489403E+05,      /* I = 21 */
(PID.TID 0000.0001)                 2.842706922224557E+05,      /* I = 22 */
(PID.TID 0000.0001)                 2.773972106720365E+05,      /* I = 23 */
(PID.TID 0000.0001)                 2.692787333338535E+05,      /* I = 24 */
(PID.TID 0000.0001)                 2.598293319150326E+05,      /* I = 25 */
(PID.TID 0000.0001)                 2.489113743322025E+05,      /* I = 26 */
(PID.TID 0000.0001)                 2.363029564123586E+05,      /* I = 27 */
(PID.TID 0000.0001)                 2.216367828252819E+05,      /* I = 28 */
(PID.TID 0000.0001)                 2.042717761866506E+05,      /* I = 29 */
(PID.TID 0000.0001)                 1.829777599966776E+05,      /* I = 30 */
(PID.TID 0000.0001)                 1.549545757850771E+05,      /* I = 31 */
(PID.TID 0000.0001)                 1.114203141013064E+05       /* I = 32 */
(PID.TID 0000.0001)     ;
(PID.TID 0000.0001) dyC =  /* dyC(1,:,1,:) ( units: m ) */
(PID.TID 0000.0001)                 1.114203141013064E+05,      /* J =  1 */
(PID.TID 0000.0001)                 1.391343389937106E+05,      /* J =  2 */
(PID.TID 0000.0001)                 1.709574999026266E+05,      /* J =  3 */
(PID.TID 0000.0001)                 1.946503699269892E+05,      /* J =  4 */
(PID.TID 0000.0001)                 2.135964483342134E+05,      /* J =  5 */
(PID.TID 0000.0001)                 2.294195678257306E+05,      /* J =  6 */
(PID.TID 0000.0001)                 2.429464709770498E+05,      /* J =  7 */
(PID.TID 0000.0001)                 2.546408290696998E+05,      /* J =  8 */
(PID.TID 0000.0001)                 2.647791839299727E+05,      /* J =  9 */
(PID.TID 0000.0001)                 2.735321911346108E+05,      /* J = 10 */
(PID.TID 0000.0001)                 2.810065951609633E+05,      /* J = 11 */
(PID.TID 0000.0001)                 2.872689479506990E+05,      /* J = 12 */
(PID.TID 0000.0001)                 2.923599955312932E+05,      /* J = 13 */
(PID.TID 0000.0001)                 2.963038832565530E+05,      /* J = 14 */
(PID.TID 0000.0001)                 2.991142470004740E+05,      /* J = 15 */
(PID.TID 0000.0001)                 3.007982711627968E+05,      /* J = 16 */
(PID.TID 0000.0001)                 3.013593857228136E+05,      /* J = 17 */
(PID.TID 0000.0001)                 3.007982711627968E+05,      /* J = 18 */
(PID.TID 0000.0001)                 2.991142470004740E+05,      /* J = 19 */
(PID.TID 0000.0001)                 2.963038832565530E+05,      /* J = 20 */
(PID.TID 0000.0001)                 2.923599955312932E+05,      /* J = 21 */
(PID.TID 0000.0001)                 2.872689479506990E+05,      /* J = 22 */
(PID.TID 0000.0001)                 2.810065951609633E+05,      /* J = 23 */
(PID.TID 0000.0001)                 2.735321911346108E+05,      /* J = 24 */
(PID.TID 0000.0001)                 2.647791839299727E+05,      /* J = 25 */
(PID.TID 0000.0001)                 2.546408290696998E+05,      /* J = 26 */
(PID.TID 0000.0001)                 2.429464709770498E+05,      /* J = 27 */
(PID.TID 0000.0001)                 2.294195678257306E+05,      /* J = 28 */
(PID.TID 0000.0001)                 2.135964483342134E+05,      /* J = 29 */
(PID.TID 0000.0001)                 1.946503699269892E+05,      /* J = 30 */
(PID.TID 0000.0001)                 1.709574999026266E+05,      /* J = 31 */
(PID.TID 0000.0001)                 1.391343389937106E+05       /* J = 32 */
(PID.TID 0000.0001)     ;
(PID.TID 0000.0001) dxV =  /* dxV(:,1,:,1) ( units: m ) */
(PID.TID 0000.0001)                 8.015229982413632E+04,      /* I =  1 */
(PID.TID 0000.0001)                 1.333130744933864E+05,      /* I =  2 */
(PID.TID 0000.0001)                 1.691744868129062E+05,      /* I =  3 */
(PID.TID 0000.0001)                 1.937548202849060E+05,      /* I =  4 */
(PID.TID 0000.0001)                 2.130490056267208E+05,      /* I =  5 */
(PID.TID 0000.0001)                 2.290479919481738E+05,      /* I =  6 */
(PID.TID 0000.0001)                 2.426774358027003E+05,      /* I =  7 */
(PID.TID 0000.0001)                 2.544372984215561E+05,      /* I =  8 */
(PID.TID 0000.0001)                 2.646201463834826E+05,      /* I =  9 */
(PID.TID 0000.0001)                 2.734046499619031E+05,      /* I = 10 */
(PID.TID 0000.0001)                 2.809019351693761E+05,      /* I = 11 */
(PID.TID 0000.0001)                 2.871811105274442E+05,      /* I = 12 */
(PID.TID 0000.0001)                 2.922844849381675E+05,      /* I = 13 */
(PID.TID 0000.0001)                 2.962371870847826E+05,      /* I = 14 */
(PID.TID 0000.0001)                 2.990534755671296E+05,      /* I = 15 */
(PID.TID 0000.0001)                 3.007409169495504E+05,      /* I = 16 */
(PID.TID 0000.0001)                 3.013031486919771E+05,      /* I = 17 */
(PID.TID 0000.0001)                 3.007409169495504E+05,      /* I = 18 */
(PID.TID 0000.0001)                 2.990534755671296E+05,      /* I = 19 */
(PID.TID 0000.0001)                 2.962371870847826E+05,      /* I = 20 */
(PID.TID 0000.0001)                 2.922844849381675E+05,      /* I = 21 */
(PID.TID 0000.0001)                 2.871811105274442E+05,      /* I = 22 */
(PID.TID 0000.0001)                 2.809019351693761E+05,      /* I = 23 */
(PID.TID 0000.0001)                 2.734046499619031E+05,      /* I = 24 */
(PID.TID 0000.0001)                 2.646201463834826E+05,      /* I = 25 */
(PID.TID 0000.0001)                 2.544372984215561E+05,      /* I = 26 */
(PID.TID 0000.0001)                 2.426774358027003E+05,      /* I = 27 */
(PID.TID 0000.0001)                 2.290479919481738E+05,      /* I = 28 */
(PID.TID 0000.0001)                 2.130490056267208E+05,      /* I = 29 */
(PID.TID 0000.0001)                 1.937548202849060E+05,      /* I = 30 */
(PID.TID 0000.0001)                 1.691744868129062E+05,      /* I = 31 */
(PID.TID 0000.0001)                 1.333130744933864E+05       /* I = 32 */
(PID.TID 0000.0001)     ;
(PID.TID 0000.0001) dxV =  /* dxV(1,:,1,:) ( units: m ) */
(PID.TID 0000.0001)                 8.015229982413632E+04,      /* J =  1 */
(PID.TID 0000.0001)                 1.362652340208229E+05,      /* J =  2 */
(PID.TID 0000.0001)                 1.701080315742101E+05,      /* J =  3 */
(PID.TID 0000.0001)                 1.942331448101592E+05,      /* J =  4 */
(PID.TID 0000.0001)                 2.133486626971531E+05,      /* J =  5 */
(PID.TID 0000.0001)                 2.292584591272880E+05,      /* J =  6 */
(PID.TID 0000.0001)                 2.428369969078989E+05,      /* J =  7 */
(PID.TID 0000.0001)                 2.545652950875683E+05,      /* J =  8 */
(PID.TID 0000.0001)                 2.647274964828301E+05,      /* J =  9 */
(PID.TID 0000.0001)                 2.734980225206389E+05,      /* J = 10 */
(PID.TID 0000.0001)                 2.809856491525217E+05,      /* J = 11 */
(PID.TID 0000.0001)                 2.872580915202295E+05,      /* J = 12 */
(PID.TID 0000.0001)                 2.923567890694162E+05,      /* J = 13 */
(PID.TID 0000.0001)                 2.963063101754721E+05,      /* J = 14 */
(PID.TID 0000.0001)                 2.991205495886625E+05,      /* J = 15 */
(PID.TID 0000.0001)                 3.008068453676764E+05,      /* J = 16 */
(PID.TID 0000.0001)                 3.013686170436881E+05,      /* J = 17 */
(PID.TID 0000.0001)                 3.008068453676764E+05,      /* J = 18 */
(PID.TID 0000.0001)                 2.991205495886625E+05,      /* J = 19 */
(PID.TID 0000.0001)                 2.963063101754721E+05,      /* J = 20 */
(PID.TID 0000.0001)                 2.923567890694162E+05,      /* J = 21 */
(PID.TID 0000.0001)                 2.872580915202295E+05,      /* J = 22 */
(PID.TID 0000.0001)                 2.809856491525217E+05,      /* J = 23 */
(PID.TID 0000.0001)                 2.734980225206389E+05,      /* J = 24 */
(PID.TID 0000.0001)                 2.647274964828301E+05,      /* J = 25 */
(PID.TID 0000.0001)                 2.545652950875683E+05,      /* J = 26 */
(PID.TID 0000.0001)                 2.428369969078989E+05,      /* J = 27 */
(PID.TID 0000.0001)                 2.292584591272880E+05,      /* J = 28 */
(PID.TID 0000.0001)                 2.133486626971531E+05,      /* J = 29 */
(PID.TID 0000.0001)                 1.942331448101592E+05,      /* J = 30 */
(PID.TID 0000.0001)                 1.701080315742101E+05,      /* J = 31 */
(PID.TID 0000.0001)                 1.362652340208229E+05       /* J = 32 */
(PID.TID 0000.0001)     ;
(PID.TID 0000.0001) dyU =  /* dyU(:,1,:,1) ( units: m ) */
(PID.TID 0000.0001)                 8.015229982413632E+04,      /* I =  1 */
(PID.TID 0000.0001)                 1.362652340208229E+05,      /* I =  2 */
(PID.TID 0000.0001)                 1.701080315742101E+05,      /* I =  3 */
(PID.TID 0000.0001)                 1.942331448101592E+05,      /* I =  4 */
(PID.TID 0000.0001)                 2.133486626971531E+05,      /* I =  5 */
(PID.TID 0000.0001)                 2.292584591272880E+05,      /* I =  6 */
(PID.TID 0000.0001)                 2.428369969078989E+05,      /* I =  7 */
(PID.TID 0000.0001)                 2.545652950875683E+05,      /* I =  8 */
(PID.TID 0000.0001)                 2.647274964828301E+05,      /* I =  9 */
(PID.TID 0000.0001)                 2.734980225206389E+05,      /* I = 10 */
(PID.TID 0000.0001)                 2.809856491525217E+05,      /* I = 11 */
(PID.TID 0000.0001)                 2.872580915202295E+05,      /* I = 12 */
(PID.TID 0000.0001)                 2.923567890694162E+05,      /* I = 13 */
(PID.TID 0000.0001)                 2.963063101754721E+05,      /* I = 14 */
(PID.TID 0000.0001)                 2.991205495886625E+05,      /* I = 15 */
(PID.TID 0000.0001)                 3.008068453676764E+05,      /* I = 16 */
(PID.TID 0000.0001)                 3.013686170436881E+05,      /* I = 17 */
(PID.TID 0000.0001)                 3.008068453676764E+05,      /* I = 18 */
(PID.TID 0000.0001)                 2.991205495886625E+05,      /* I = 19 */
(PID.TID 0000.0001)                 2.963063101754721E+05,      /* I = 20 */
(PID.TID 0000.0001)                 2.923567890694162E+05,      /* I = 21 */
(PID.TID 0000.0001)                 2.872580915202295E+05,      /* I = 22 */
(PID.TID 0000.0001)                 2.809856491525217E+05,      /* I = 23 */
(PID.TID 0000.0001)                 2.734980225206389E+05,      /* I = 24 */
(PID.TID 0000.0001)                 2.647274964828301E+05,      /* I = 25 */
(PID.TID 0000.0001)                 2.545652950875683E+05,      /* I = 26 */
(PID.TID 0000.0001)                 2.428369969078989E+05,      /* I = 27 */
(PID.TID 0000.0001)                 2.292584591272880E+05,      /* I = 28 */
(PID.TID 0000.0001)                 2.133486626971531E+05,      /* I = 29 */
(PID.TID 0000.0001)                 1.942331448101592E+05,      /* I = 30 */
(PID.TID 0000.0001)                 1.701080315742101E+05,      /* I = 31 */
(PID.TID 0000.0001)                 1.362652340208229E+05       /* I = 32 */
(PID.TID 0000.0001)     ;
(PID.TID 0000.0001) dyU =  /* dyU(1,:,1,:) ( units: m ) */
(PID.TID 0000.0001)                 8.015229982413632E+04,      /* J =  1 */
(PID.TID 0000.0001)                 1.333130744933864E+05,      /* J =  2 */
(PID.TID 0000.0001)                 1.691744868129062E+05,      /* J =  3 */
(PID.TID 0000.0001)                 1.937548202849060E+05,      /* J =  4 */
(PID.TID 0000.0001)                 2.130490056267208E+05,      /* J =  5 */
(PID.TID 0000.0001)                 2.290479919481738E+05,      /* J =  6 */
(PID.TID 0000.0001)                 2.426774358027003E+05,      /* J =  7 */
(PID.TID 0000.0001)                 2.544372984215561E+05,      /* J =  8 */
(PID.TID 0000.0001)                 2.646201463834826E+05,      /* J =  9 */
(PID.TID 0000.0001)                 2.734046499619031E+05,      /* J = 10 */
(PID.TID 0000.0001)                 2.809019351693761E+05,      /* J = 11 */
(PID.TID 0000.0001)                 2.871811105274442E+05,      /* J = 12 */
(PID.TID 0000.0001)                 2.922844849381675E+05,      /* J = 13 */
(PID.TID 0000.0001)                 2.962371870847826E+05,      /* J = 14 */
(PID.TID 0000.0001)                 2.990534755671296E+05,      /* J = 15 */
(PID.TID 0000.0001)                 3.007409169495504E+05,      /* J = 16 */
(PID.TID 0000.0001)                 3.013031486919771E+05,      /* J = 17 */
(PID.TID 0000.0001)                 3.007409169495504E+05,      /* J = 18 */
(PID.TID 0000.0001)                 2.990534755671296E+05,      /* J = 19 */
(PID.TID 0000.0001)                 2.962371870847826E+05,      /* J = 20 */
(PID.TID 0000.0001)                 2.922844849381675E+05,      /* J = 21 */
(PID.TID 0000.0001)                 2.871811105274442E+05,      /* J = 22 */
(PID.TID 0000.0001)                 2.809019351693761E+05,      /* J = 23 */
(PID.TID 0000.0001)                 2.734046499619031E+05,      /* J = 24 */
(PID.TID 0000.0001)                 2.646201463834826E+05,      /* J = 25 */
(PID.TID 0000.0001)                 2.544372984215561E+05,      /* J = 26 */
(PID.TID 0000.0001)                 2.426774358027003E+05,      /* J = 27 */
(PID.TID 0000.0001)                 2.290479919481738E+05,      /* J = 28 */
(PID.TID 0000.0001)                 2.130490056267208E+05,      /* J = 29 */
(PID.TID 0000.0001)                 1.937548202849060E+05,      /* J = 30 */
(PID.TID 0000.0001)                 1.691744868129062E+05,      /* J = 31 */
(PID.TID 0000.0001)                 1.333130744933864E+05       /* J = 32 */
(PID.TID 0000.0001)     ;
(PID.TID 0000.0001) rA  =  /* rA (:,1,:,1) ( units: m^2 ) */
(PID.TID 0000.0001)                 1.401900702255611E+10,      /* I =  1 */
(PID.TID 0000.0001)                 2.459906945574446E+10,      /* I =  2 */
(PID.TID 0000.0001)                 3.378518544307869E+10,      /* I =  3 */
(PID.TID 0000.0001)                 4.192037169898667E+10,      /* I =  4 */
(PID.TID 0000.0001)                 4.925938996118163E+10,      /* I =  5 */
(PID.TID 0000.0001)                 5.594154126607553E+10,      /* I =  6 */
(PID.TID 0000.0001)                 6.203683527772523E+10,      /* I =  7 */
(PID.TID 0000.0001)                 6.757541173817516E+10,      /* I =  8 */
(PID.TID 0000.0001)                 7.256353271748119E+10,      /* I =  9 */
(PID.TID 0000.0001)                 7.699293007098555E+10,      /* I = 10 */
(PID.TID 0000.0001)                 8.084683449728902E+10,      /* I = 11 */
(PID.TID 0000.0001)                 8.410423102796223E+10,      /* I = 12 */
(PID.TID 0000.0001)                 8.674306976737517E+10,      /* I = 13 */
(PID.TID 0000.0001)                 8.874277443041928E+10,      /* I = 14 */
(PID.TID 0000.0001)                 9.008620045350865E+10,      /* I = 15 */
(PID.TID 0000.0001)                 9.076111290418457E+10,      /* I = 16 */
(PID.TID 0000.0001)                 9.076111290422060E+10,      /* I = 17 */
(PID.TID 0000.0001)                 9.008620045354469E+10,      /* I = 18 */
(PID.TID 0000.0001)                 8.874277443041928E+10,      /* I = 19 */
(PID.TID 0000.0001)                 8.674306976741121E+10,      /* I = 20 */
(PID.TID 0000.0001)                 8.410423102799828E+10,      /* I = 21 */
(PID.TID 0000.0001)                 8.084683449728902E+10,      /* I = 22 */
(PID.TID 0000.0001)                 7.699293007098555E+10,      /* I = 23 */
(PID.TID 0000.0001)                 7.256353271748119E+10,      /* I = 24 */
(PID.TID 0000.0001)                 6.757541173817516E+10,      /* I = 25 */
(PID.TID 0000.0001)                 6.203683527772523E+10,      /* I = 26 */
(PID.TID 0000.0001)                 5.594154126611156E+10,      /* I = 27 */
(PID.TID 0000.0001)                 4.925938996118163E+10,      /* I = 28 */
(PID.TID 0000.0001)                 4.192037169898667E+10,      /* I = 29 */
(PID.TID 0000.0001)                 3.378518544304265E+10,      /* I = 30 */
(PID.TID 0000.0001)                 2.459906945574446E+10,      /* I = 31 */
(PID.TID 0000.0001)                 1.401900702259215E+10       /* I = 32 */
(PID.TID 0000.0001)     ;
(PID.TID 0000.0001) rA  =  /* rA (1,:,1,:) ( units: m^2 ) */
(PID.TID 0000.0001)                 1.401900702255611E+10,      /* J =  1 */
(PID.TID 0000.0001)                 2.459906945574446E+10,      /* J =  2 */
(PID.TID 0000.0001)                 3.378518544307869E+10,      /* J =  3 */
(PID.TID 0000.0001)                 4.192037169898667E+10,      /* J =  4 */
(PID.TID 0000.0001)                 4.925938996118163E+10,      /* J =  5 */
(PID.TID 0000.0001)                 5.594154126607553E+10,      /* J =  6 */
(PID.TID 0000.0001)                 6.203683527776127E+10,      /* J =  7 */
(PID.TID 0000.0001)                 6.757541173817516E+10,      /* J =  8 */
(PID.TID 0000.0001)                 7.256353271748119E+10,      /* J =  9 */
(PID.TID 0000.0001)                 7.699293007098555E+10,      /* J = 10 */
(PID.TID 0000.0001)                 8.084683449728902E+10,      /* J = 11 */
(PID.TID 0000.0001)                 8.410423102799828E+10,      /* J = 12 */
(PID.TID 0000.0001)                 8.674306976737517E+10,      /* J = 13 */
(PID.TID 0000.0001)                 8.874277443041928E+10,      /* J = 14 */
(PID.TID 0000.0001)                 9.008620045350865E+10,      /* J = 15 */
(PID.TID 0000.0001)                 9.076111290418457E+10,      /* J = 16 */
(PID.TID 0000.0001)                 9.076111290422060E+10,      /* J = 17 */
(PID.TID 0000.0001)                 9.008620045354469E+10,      /* J = 18 */
(PID.TID 0000.0001)                 8.874277443041928E+10,      /* J = 19 */
(PID.TID 0000.0001)                 8.674306976737517E+10,      /* J = 20 */
(PID.TID 0000.0001)                 8.410423102799828E+10,      /* J = 21 */
(PID.TID 0000.0001)                 8.084683449728902E+10,      /* J = 22 */
(PID.TID 0000.0001)                 7.699293007098555E+10,      /* J = 23 */
(PID.TID 0000.0001)                 7.256353271748119E+10,      /* J = 24 */
(PID.TID 0000.0001)                 6.757541173817516E+10,      /* J = 25 */
(PID.TID 0000.0001)                 6.203683527772523E+10,      /* J = 26 */
(PID.TID 0000.0001)                 5.594154126607553E+10,      /* J = 27 */
(PID.TID 0000.0001)                 4.925938996118163E+10,      /* J = 28 */
(PID.TID 0000.0001)                 4.192037169898667E+10,      /* J = 29 */
(PID.TID 0000.0001)                 3.378518544307869E+10,      /* J = 30 */
(PID.TID 0000.0001)                 2.459906945574446E+10,      /* J = 31 */
(PID.TID 0000.0001)                 1.401900702259215E+10       /* J = 32 */
(PID.TID 0000.0001)     ;
(PID.TID 0000.0001) rAw =  /* rAw(:,1,:,1) ( units: m^2 ) */
(PID.TID 0000.0001)                 1.216690346714270E+10,      /* I =  1 */
(PID.TID 0000.0001)                 1.974052138506315E+10,      /* I =  2 */
(PID.TID 0000.0001)                 2.943712825252015E+10,      /* I =  3 */
(PID.TID 0000.0001)                 3.801790263324359E+10,      /* I =  4 */
(PID.TID 0000.0001)                 4.571243814189866E+10,      /* I =  5 */
(PID.TID 0000.0001)                 5.269930713599979E+10,      /* I =  6 */
(PID.TID 0000.0001)                 5.907428494299063E+10,      /* I =  7 */
(PID.TID 0000.0001)                 6.488320895111514E+10,      /* I =  8 */
(PID.TID 0000.0001)                 7.014205907741882E+10,      /* I =  9 */
(PID.TID 0000.0001)                 7.484854821847499E+10,      /* I = 10 */
(PID.TID 0000.0001)                 7.898934631431560E+10,      /* I = 11 */
(PID.TID 0000.0001)                 8.254500894894537E+10,      /* I = 12 */
(PID.TID 0000.0001)                 8.549360686473492E+10,      /* I = 13 */
(PID.TID 0000.0001)                 8.781353403175085E+10,      /* I = 14 */
(PID.TID 0000.0001)                 8.948571540392021E+10,      /* I = 15 */
(PID.TID 0000.0001)                 9.049530583086168E+10,      /* I = 16 */
(PID.TID 0000.0001)                 9.083293515008307E+10,      /* I = 17 */
(PID.TID 0000.0001)                 9.049530583087070E+10,      /* I = 18 */
(PID.TID 0000.0001)                 8.948571540391121E+10,      /* I = 19 */
(PID.TID 0000.0001)                 8.781353403174185E+10,      /* I = 20 */
(PID.TID 0000.0001)                 8.549360686467184E+10,      /* I = 21 */
(PID.TID 0000.0001)                 8.254500894890933E+10,      /* I = 22 */
(PID.TID 0000.0001)                 7.898934631434262E+10,      /* I = 23 */
(PID.TID 0000.0001)                 7.484854821844795E+10,      /* I = 24 */
(PID.TID 0000.0001)                 7.014205907742783E+10,      /* I = 25 */
(PID.TID 0000.0001)                 6.488320895111514E+10,      /* I = 26 */
(PID.TID 0000.0001)                 5.907428494299063E+10,      /* I = 27 */
(PID.TID 0000.0001)                 5.269930713599078E+10,      /* I = 28 */
(PID.TID 0000.0001)                 4.571243814190767E+10,      /* I = 29 */
(PID.TID 0000.0001)                 3.801790263325260E+10,      /* I = 30 */
(PID.TID 0000.0001)                 2.943712825251114E+10,      /* I = 31 */
(PID.TID 0000.0001)                 1.974052138509018E+10       /* I = 32 */
(PID.TID 0000.0001)     ;
(PID.TID 0000.0001) rAw =  /* rAw(1,:,1,:) ( units: m^2 ) */
(PID.TID 0000.0001)                 1.216690346714270E+10,      /* J =  1 */
(PID.TID 0000.0001)                 2.390126200743558E+10,      /* J =  2 */
(PID.TID 0000.0001)                 3.341968103208270E+10,      /* J =  3 */
(PID.TID 0000.0001)                 4.168532893152940E+10,      /* J =  4 */
(PID.TID 0000.0001)                 4.909074590409593E+10,      /* J =  5 */
(PID.TID 0000.0001)                 5.581203765722643E+10,      /* J =  6 */
(PID.TID 0000.0001)                 6.193257577506788E+10,      /* J =  7 */
(PID.TID 0000.0001)                 6.748840226738273E+10,      /* J =  8 */
(PID.TID 0000.0001)                 7.248875782324815E+10,      /* J =  9 */
(PID.TID 0000.0001)                 7.692702995909871E+10,      /* J = 10 */
(PID.TID 0000.0001)                 8.078743937057304E+10,      /* J = 11 */
(PID.TID 0000.0001)                 8.404959656062837E+10,      /* J = 12 */
(PID.TID 0000.0001)                 8.669186205742538E+10,      /* J = 13 */
(PID.TID 0000.0001)                 8.869393350723613E+10,      /* J = 14 */
(PID.TID 0000.0001)                 9.003884657168852E+10,      /* J = 15 */
(PID.TID 0000.0001)     2 @  9.071447638299399E+10,             /* J = 16: 17 */
(PID.TID 0000.0001)                 9.003884657168852E+10,      /* J = 18 */
(PID.TID 0000.0001)                 8.869393350723613E+10,      /* J = 19 */
(PID.TID 0000.0001)                 8.669186205742538E+10,      /* J = 20 */
(PID.TID 0000.0001)                 8.404959656062837E+10,      /* J = 21 */
(PID.TID 0000.0001)                 8.078743937057304E+10,      /* J = 22 */
(PID.TID 0000.0001)                 7.692702995909871E+10,      /* J = 23 */
(PID.TID 0000.0001)                 7.248875782324815E+10,      /* J = 24 */
(PID.TID 0000.0001)                 6.748840226738273E+10,      /* J = 25 */
(PID.TID 0000.0001)                 6.193257577506788E+10,      /* J = 26 */
(PID.TID 0000.0001)                 5.581203765722643E+10,      /* J = 27 */
(PID.TID 0000.0001)                 4.909074590409593E+10,      /* J = 28 */
(PID.TID 0000.0001)                 4.168532893152940E+10,      /* J = 29 */
(PID.TID 0000.0001)                 3.341968103208270E+10,      /* J = 30 */
(PID.TID 0000.0001)                 2.390126200743558E+10,      /* J = 31 */
(PID.TID 0000.0001)                 1.216690346714270E+10       /* J = 32 */
(PID.TID 0000.0001)     ;
(PID.TID 0000.0001) rAs =  /* rAs(:,1,:,1) ( units: m^2 ) */
(PID.TID 0000.0001)                 1.216690346714270E+10,      /* I =  1 */
(PID.TID 0000.0001)                 2.390126200743558E+10,      /* I =  2 */
(PID.TID 0000.0001)                 3.341968103208270E+10,      /* I =  3 */
(PID.TID 0000.0001)                 4.168532893152940E+10,      /* I =  4 */
(PID.TID 0000.0001)                 4.909074590409593E+10,      /* I =  5 */
(PID.TID 0000.0001)                 5.581203765722643E+10,      /* I =  6 */
(PID.TID 0000.0001)                 6.193257577506788E+10,      /* I =  7 */
(PID.TID 0000.0001)                 6.748840226738273E+10,      /* I =  8 */
(PID.TID 0000.0001)                 7.248875782324815E+10,      /* I =  9 */
(PID.TID 0000.0001)                 7.692702995909871E+10,      /* I = 10 */
(PID.TID 0000.0001)                 8.078743937057304E+10,      /* I = 11 */
(PID.TID 0000.0001)                 8.404959656062837E+10,      /* I = 12 */
(PID.TID 0000.0001)                 8.669186205742538E+10,      /* I = 13 */
(PID.TID 0000.0001)                 8.869393350723613E+10,      /* I = 14 */
(PID.TID 0000.0001)                 9.003884657168852E+10,      /* I = 15 */
(PID.TID 0000.0001)     2 @  9.071447638299399E+10,             /* I = 16: 17 */
(PID.TID 0000.0001)                 9.003884657168852E+10,      /* I = 18 */
(PID.TID 0000.0001)                 8.869393350723613E+10,      /* I = 19 */
(PID.TID 0000.0001)                 8.669186205742538E+10,      /* I = 20 */
(PID.TID 0000.0001)                 8.404959656062837E+10,      /* I = 21 */
(PID.TID 0000.0001)                 8.078743937057304E+10,      /* I = 22 */
(PID.TID 0000.0001)                 7.692702995909871E+10,      /* I = 23 */
(PID.TID 0000.0001)                 7.248875782324815E+10,      /* I = 24 */
(PID.TID 0000.0001)                 6.748840226738273E+10,      /* I = 25 */
(PID.TID 0000.0001)                 6.193257577506788E+10,      /* I = 26 */
(PID.TID 0000.0001)                 5.581203765722643E+10,      /* I = 27 */
(PID.TID 0000.0001)                 4.909074590409593E+10,      /* I = 28 */
(PID.TID 0000.0001)                 4.168532893152940E+10,      /* I = 29 */
(PID.TID 0000.0001)                 3.341968103208270E+10,      /* I = 30 */
(PID.TID 0000.0001)                 2.390126200743558E+10,      /* I = 31 */
(PID.TID 0000.0001)                 1.216690346714270E+10       /* I = 32 */
(PID.TID 0000.0001)     ;
(PID.TID 0000.0001) rAs =  /* rAs(1,:,1,:) ( units: m^2 ) */
(PID.TID 0000.0001)                 1.216690346714270E+10,      /* J =  1 */
(PID.TID 0000.0001)                 1.974052138506315E+10,      /* J =  2 */
(PID.TID 0000.0001)                 2.943712825252015E+10,      /* J =  3 */
(PID.TID 0000.0001)                 3.801790263324359E+10,      /* J =  4 */
(PID.TID 0000.0001)                 4.571243814189866E+10,      /* J =  5 */
(PID.TID 0000.0001)                 5.269930713599979E+10,      /* J =  6 */
(PID.TID 0000.0001)                 5.907428494299063E+10,      /* J =  7 */
(PID.TID 0000.0001)                 6.488320895111514E+10,      /* J =  8 */
(PID.TID 0000.0001)                 7.014205907741882E+10,      /* J =  9 */
(PID.TID 0000.0001)                 7.484854821847499E+10,      /* J = 10 */
(PID.TID 0000.0001)                 7.898934631431560E+10,      /* J = 11 */
(PID.TID 0000.0001)                 8.254500894894537E+10,      /* J = 12 */
(PID.TID 0000.0001)                 8.549360686473492E+10,      /* J = 13 */
(PID.TID 0000.0001)                 8.781353403175085E+10,      /* J = 14 */
(PID.TID 0000.0001)                 8.948571540392021E+10,      /* J = 15 */
(PID.TID 0000.0001)                 9.049530583086168E+10,      /* J = 16 */
(PID.TID 0000.0001)                 9.083293515008307E+10,      /* J = 17 */
(PID.TID 0000.0001)                 9.049530583087070E+10,      /* J = 18 */
(PID.TID 0000.0001)                 8.948571540391121E+10,      /* J = 19 */
(PID.TID 0000.0001)                 8.781353403174185E+10,      /* J = 20 */
(PID.TID 0000.0001)                 8.549360686467184E+10,      /* J = 21 */
(PID.TID 0000.0001)                 8.254500894890933E+10,      /* J = 22 */
(PID.TID 0000.0001)                 7.898934631434262E+10,      /* J = 23 */
(PID.TID 0000.0001)                 7.484854821844795E+10,      /* J = 24 */
(PID.TID 0000.0001)                 7.014205907742783E+10,      /* J = 25 */
(PID.TID 0000.0001)                 6.488320895111514E+10,      /* J = 26 */
(PID.TID 0000.0001)                 5.907428494299063E+10,      /* J = 27 */
(PID.TID 0000.0001)                 5.269930713599078E+10,      /* J = 28 */
(PID.TID 0000.0001)                 4.571243814190767E+10,      /* J = 29 */
(PID.TID 0000.0001)                 3.801790263325260E+10,      /* J = 30 */
(PID.TID 0000.0001)                 2.943712825251114E+10,      /* J = 31 */
(PID.TID 0000.0001)                 1.974052138509018E+10       /* J = 32 */
(PID.TID 0000.0001)     ;
(PID.TID 0000.0001) globalArea = /* Integrated horizontal Area (m^2) */
(PID.TID 0000.0001)                 3.638867375081598E+14
(PID.TID 0000.0001)     ;
(PID.TID 0000.0001) hasWetCSCorners = /* Domain contains CS corners (True/False) */
(PID.TID 0000.0001)                   T
(PID.TID 0000.0001)     ;
(PID.TID 0000.0001) // =======================================================
(PID.TID 0000.0001) // End of Model config. summary
(PID.TID 0000.0001) // =======================================================
(PID.TID 0000.0001) 
(PID.TID 0000.0001) == Packages configuration : Check & print summary ==
(PID.TID 0000.0001) 
(PID.TID 0000.0001) GMREDI_CHECK: #define GMREDI
(PID.TID 0000.0001) GM_AdvForm =     /* if FALSE => use SkewFlux Form */
(PID.TID 0000.0001)                   F
(PID.TID 0000.0001)     ;
(PID.TID 0000.0001) GM_InMomAsStress = /* if TRUE => apply as Eddy Stress */
(PID.TID 0000.0001)                   F
(PID.TID 0000.0001)     ;
(PID.TID 0000.0001) GM_AdvSeparate = /* Calc Bolus & Euler Adv. separately */
(PID.TID 0000.0001)                   F
(PID.TID 0000.0001)     ;
(PID.TID 0000.0001) GM_ExtraDiag =   /* Tensor Extra Diag (line 1&2) non 0 */
(PID.TID 0000.0001)                   F
(PID.TID 0000.0001)     ;
(PID.TID 0000.0001) GM_isopycK =    /* Background Isopyc. Diffusivity [m^2/s] */
(PID.TID 0000.0001)                 8.000000000000000E+02
(PID.TID 0000.0001)     ;
(PID.TID 0000.0001) GM_skewflx*K =  /* Background GM_SkewFlx Diffusivity [m^2/s] */
(PID.TID 0000.0001)                 8.000000000000000E+02
(PID.TID 0000.0001)     ;
(PID.TID 0000.0001) GM_advec*K =    /* Backg. GM-Advec(=Bolus) Diffusivity [m^2/s]*/
(PID.TID 0000.0001)                 0.000000000000000E+00
(PID.TID 0000.0001)     ;
(PID.TID 0000.0001) GM_Kmin_horiz = /* Minimum Horizontal Diffusivity [m^2/s] */
(PID.TID 0000.0001)                 5.000000000000000E+01
(PID.TID 0000.0001)     ;
(PID.TID 0000.0001) GM_Visbeck_alpha = /* Visbeck alpha coeff. [-] */
(PID.TID 0000.0001)                 0.000000000000000E+00
(PID.TID 0000.0001)     ;
(PID.TID 0000.0001) GM_Small_Number =  /* epsilon used in slope calc */
(PID.TID 0000.0001)                 9.999999999999999E-21
(PID.TID 0000.0001)     ;
(PID.TID 0000.0001) GM_slopeSqCutoff = /* Slope^2 cut-off value */
(PID.TID 0000.0001)                 1.000000000000000E+48
(PID.TID 0000.0001)     ;
(PID.TID 0000.0001) GM_taper_scheme =  /* Type of Tapering/Clipping scheme */
(PID.TID 0000.0001)               'gkw91                                   '
(PID.TID 0000.0001)     ;
(PID.TID 0000.0001) GM_maxSlope =  /* Maximum Slope (Tapering/Clipping) */
(PID.TID 0000.0001)                 1.000000000000000E-02
(PID.TID 0000.0001)     ;
(PID.TID 0000.0001) GM_facTrL2dz = /* Minimum Trans.Layer Thick. (factor of dz) */
(PID.TID 0000.0001)                 1.000000000000000E+00
(PID.TID 0000.0001)     ;
(PID.TID 0000.0001) GM_facTrL2ML = /* Max.Trans.Layer Thick. (factor of MxL Depth)*/
(PID.TID 0000.0001)                 5.000000000000000E+00
(PID.TID 0000.0001)     ;
(PID.TID 0000.0001) GM_maxTransLay = /* Maximum Transition Layer Thickness [m] */
(PID.TID 0000.0001)                 5.000000000000000E+02
(PID.TID 0000.0001)     ;
(PID.TID 0000.0001) GM_UseBVP = /* if TRUE => use bvp a la Ferrari et al. (2010) */
(PID.TID 0000.0001)                   F
(PID.TID 0000.0001)     ;
(PID.TID 0000.0001) GM_BVP_ModeNumber = /* Vertical mode number for BVP wave speed */
(PID.TID 0000.0001)                       1
(PID.TID 0000.0001)     ;
(PID.TID 0000.0001) GM_BVP_cMin = /* Minimum wave speed for BVP [m/s] */
(PID.TID 0000.0001)                 1.000000000000000E-01
(PID.TID 0000.0001)     ;
(PID.TID 0000.0001) GM_useSubMeso = /* if TRUE => use Sub-Meso param. (B.Fox-Kemper) */
(PID.TID 0000.0001)                   F
(PID.TID 0000.0001)     ;
(PID.TID 0000.0001) subMeso_Ceff = /* efficiency coeff. of Mixed-Layer Eddies [-] */
(PID.TID 0000.0001)                 7.000000000000001E-02
(PID.TID 0000.0001)     ;
(PID.TID 0000.0001) subMeso_invTau = /* inverse of Sub-Meso mixing time-scale [/s] */
(PID.TID 0000.0001)                 2.000000000000000E-06
(PID.TID 0000.0001)     ;
(PID.TID 0000.0001) subMeso_LfMin = /* minimum length-scale "Lf" [m] */
(PID.TID 0000.0001)                 1.000000000000000E+03
(PID.TID 0000.0001)     ;
(PID.TID 0000.0001) subMeso_Lmax = /* maximum grid-scale length [m] */
(PID.TID 0000.0001)                 1.100000000000000E+05
(PID.TID 0000.0001)     ;
(PID.TID 0000.0001) GAD_CHECK: #define ALLOW_GENERIC_ADVDIFF
(PID.TID 0000.0001) // =======================================================
(PID.TID 0000.0001) // Check Model config. (CONFIG_CHECK):
(PID.TID 0000.0001) // CONFIG_CHECK : Normal End
(PID.TID 0000.0001) // =======================================================
(PID.TID 0000.0001) 
(PID.TID 0000.0001)  MDS_READ_META: opening file: pickup.0000072000.meta
(PID.TID 0000.0001)  nRecords = 123 ; filePrec =  64 ; fileIter =     72000
(PID.TID 0000.0001)     nDims =   2 , dims:
(PID.TID 0000.0001)    1: 192   1 192
(PID.TID 0000.0001)    2:  32   1  32
(PID.TID 0000.0001)     nFlds =  11 , nFl3D =   8 , fields:
(PID.TID 0000.0001)  >Uvel    < >GuNm1   < >Vvel    < >GvNm1   < >Theta   < >GtNm1   < >Salt    < >GsNm1   < >EtaN    < >dEtaHdt < >EtaH    <
(PID.TID 0000.0001) missingVal=  1.00000000000000E+00 ; nTimRec =   0 , timeList:
(PID.TID 0000.0001) READ_MFLDS_3D_RL: read field: "Uvel    ", #   1 in fldList, rec=   1
(PID.TID 0000.0001)  MDS_READ_FIELD: opening global file: pickup.0000072000
(PID.TID 0000.0001) READ_MFLDS_3D_RL: read field: "Vvel    ", #   3 in fldList, rec=   3
(PID.TID 0000.0001)  MDS_READ_FIELD: opening global file: pickup.0000072000
(PID.TID 0000.0001) READ_MFLDS_3D_RL: read field: "Theta   ", #   5 in fldList, rec=   5
(PID.TID 0000.0001)  MDS_READ_FIELD: opening global file: pickup.0000072000
(PID.TID 0000.0001) READ_MFLDS_3D_RL: read field: "Salt    ", #   7 in fldList, rec=   7
(PID.TID 0000.0001)  MDS_READ_FIELD: opening global file: pickup.0000072000
(PID.TID 0000.0001) READ_MFLDS_3D_RL: read field: "GuNm1   ", #   2 in fldList, rec=   2
(PID.TID 0000.0001)  MDS_READ_FIELD: opening global file: pickup.0000072000
(PID.TID 0000.0001) READ_MFLDS_3D_RL: read field: "GvNm1   ", #   4 in fldList, rec=   4
(PID.TID 0000.0001)  MDS_READ_FIELD: opening global file: pickup.0000072000
(PID.TID 0000.0001) READ_MFLDS_3D_RL: read field: "GtNm1   ", #   6 in fldList, rec=   6
(PID.TID 0000.0001)  MDS_READ_FIELD: opening global file: pickup.0000072000
(PID.TID 0000.0001) READ_MFLDS_3D_RL: read field: "GsNm1   ", #   8 in fldList, rec=   8
(PID.TID 0000.0001)  MDS_READ_FIELD: opening global file: pickup.0000072000
(PID.TID 0000.0001) READ_MFLDS_3D_RL: read field: "EtaN    ", #   9 in fldList, rec= 121
(PID.TID 0000.0001)  MDS_READ_FIELD: opening global file: pickup.0000072000
(PID.TID 0000.0001) READ_MFLDS_3D_RL: read field: "dEtaHdt ", #  10 in fldList, rec= 122
(PID.TID 0000.0001)  MDS_READ_FIELD: opening global file: pickup.0000072000
(PID.TID 0000.0001) READ_MFLDS_3D_RL: read field: "EtaH    ", #  11 in fldList, rec= 123
(PID.TID 0000.0001)  MDS_READ_FIELD: opening global file: pickup.0000072000
(PID.TID 0000.0001) READ_MFLDS_CHECK: - normal end ; reset MFLDS file-name: pickup.0000072000
(PID.TID 0000.0001)  write diagnostics summary to file ioUnit:     36
Iter.Nb:     72000 ; Time(s):  6.4800000000000E+07
------------------------------------------------------------------------
2D/3D diagnostics: Number of lists:    11
------------------------------------------------------------------------
listId=    1 ; file name: oceTAUX
 nFlds, nActive,       freq     &     phase        , nLev               
    1  |    1  |     -3600.000000      1800.000000 |   1
 levels:   1
 diag# | name   |   ipt  |  iMate | kLev|   count |   mate.C|           
    81 |oceTAUX |      1 |      2 |   1 |       0 |       0 |
------------------------------------------------------------------------
listId=    2 ; file name: oceTAUY
 nFlds, nActive,       freq     &     phase        , nLev               
    1  |    1  |     -3600.000000      1800.000000 |   1
 levels:   1
 diag# | name   |   ipt  |  iMate | kLev|   count |   mate.C|           
    82 |oceTAUY |      2 |      1 |   1 |       0 |       0 |
------------------------------------------------------------------------
listId=    3 ; file name: oceFWflx
 nFlds, nActive,       freq     &     phase        , nLev               
    1  |    1  |     -3600.000000      1800.000000 |   1
 levels:   1
 diag# | name   |   ipt  |  iMate | kLev|   count |   mate.C|           
    85 |oceFWflx|      3 |      0 |   1 |       0 |
------------------------------------------------------------------------
listId=    4 ; file name: oceSflux
 nFlds, nActive,       freq     &     phase        , nLev               
    1  |    1  |     -3600.000000      1800.000000 |   1
 levels:   1
 diag# | name   |   ipt  |  iMate | kLev|   count |   mate.C|           
    86 |oceSflux|      4 |      0 |   1 |       0 |
------------------------------------------------------------------------
listId=    5 ; file name: oceQnet
 nFlds, nActive,       freq     &     phase        , nLev               
    1  |    1  |     -3600.000000      1800.000000 |   1
 levels:   1
 diag# | name   |   ipt  |  iMate | kLev|   count |   mate.C|           
    87 |oceQnet |      5 |      0 |   1 |       0 |
------------------------------------------------------------------------
listId=    6 ; file name: oceQsw
 nFlds, nActive,       freq     &     phase        , nLev               
    1  |    1  |     -3600.000000      1800.000000 |   1
 levels:   1
 diag# | name   |   ipt  |  iMate | kLev|   count |   mate.C|           
    88 |oceQsw  |      6 |      0 |   1 |       0 |
------------------------------------------------------------------------
listId=    7 ; file name: SSS
 nFlds, nActive,       freq     &     phase        , nLev               
    1  |    1  |     -3600.000000      1800.000000 |   1
 levels:   1
 diag# | name   |   ipt  |  iMate | kLev|   count |   mate.C|           
    27 |SALT    |      7 |      0 |  15 |       0 |
------------------------------------------------------------------------
listId=    8 ; file name: SST
 nFlds, nActive,       freq     &     phase        , nLev               
    1  |    1  |     -3600.000000      1800.000000 |   1
 levels:   1
 diag# | name   |   ipt  |  iMate | kLev|   count |   mate.C|           
    26 |THETA   |     22 |      0 |  15 |       0 |
------------------------------------------------------------------------
listId=    9 ; file name: UVEL1
 nFlds, nActive,       freq     &     phase        , nLev               
    1  |    1  |     -3600.000000      1800.000000 |   1
 levels:   1
 diag# | name   |   ipt  |  iMate | kLev|   count |   mate.C|           
    45 |UVELMASS|     37 |     52 |  15 |       0 |       0 |
------------------------------------------------------------------------
listId=   10 ; file name: VVEL1
 nFlds, nActive,       freq     &     phase        , nLev               
    1  |    1  |     -3600.000000      1800.000000 |   1
 levels:   1
 diag# | name   |   ipt  |  iMate | kLev|   count |   mate.C|           
    46 |VVELMASS|     52 |     37 |  15 |       0 |       0 |
------------------------------------------------------------------------
listId=   11 ; file name: atmPload
 nFlds, nActive,       freq     &     phase        , nLev               
    1  |    1  |     -3600.000000      1800.000000 |   1
 levels:   1
 diag# | name   |   ipt  |  iMate | kLev|   count |   mate.C|           
    83 |atmPload|     67 |      0 |   1 |       0 |
------------------------------------------------------------------------
Global & Regional Statistics diagnostics: Number of lists:     0
------------------------------------------------------------------------
(PID.TID 0000.0001) // =======================================================
(PID.TID 0000.0001) // Model current state
(PID.TID 0000.0001) // =======================================================
(PID.TID 0000.0001) 
(PID.TID 0000.0001) // =======================================================
(PID.TID 0000.0001) // Begin MONITOR dynamic field statistics
(PID.TID 0000.0001) // =======================================================
(PID.TID 0000.0001) %MON time_tsnumber                =                 72000
(PID.TID 0000.0001) %MON time_secondsf                =   6.4800000000000E+07
(PID.TID 0000.0001) %MON dynstat_eta_max              =   9.2249308874653E-01
(PID.TID 0000.0001) %MON dynstat_eta_min              =  -1.6181619580030E+00
(PID.TID 0000.0001) %MON dynstat_eta_mean             =   1.4427566214562E-14
(PID.TID 0000.0001) %MON dynstat_eta_sd               =   5.9907976973986E-01
(PID.TID 0000.0001) %MON dynstat_eta_del2             =   7.8581345364806E-04
(PID.TID 0000.0001) %MON dynstat_uvel_max             =   1.8639442347386E-01
(PID.TID 0000.0001) %MON dynstat_uvel_min             =  -2.8803502100767E-01
(PID.TID 0000.0001) %MON dynstat_uvel_mean            =  -4.8914430325890E-04
(PID.TID 0000.0001) %MON dynstat_uvel_sd              =   1.2021379389426E-02
(PID.TID 0000.0001) %MON dynstat_uvel_del2            =   5.1214215649781E-05
(PID.TID 0000.0001) %MON dynstat_vvel_max             =   1.7346247050018E-01
(PID.TID 0000.0001) %MON dynstat_vvel_min             =  -2.2519444280963E-01
(PID.TID 0000.0001) %MON dynstat_vvel_mean            =  -4.0398186384005E-04
(PID.TID 0000.0001) %MON dynstat_vvel_sd              =   1.2638380334010E-02
(PID.TID 0000.0001) %MON dynstat_vvel_del2            =   5.0639130168720E-05
(PID.TID 0000.0001) %MON dynstat_wvel_max             =   1.0315548206230E-04
(PID.TID 0000.0001) %MON dynstat_wvel_min             =  -2.0412092606640E-04
(PID.TID 0000.0001) %MON dynstat_wvel_mean            =   1.3594270097552E-10
(PID.TID 0000.0001) %MON dynstat_wvel_sd              =   3.8382293649569E-06
(PID.TID 0000.0001) %MON dynstat_wvel_del2            =   2.6457320450043E-08
(PID.TID 0000.0001) %MON dynstat_theta_max            =   3.0925958904704E+01
(PID.TID 0000.0001) %MON dynstat_theta_min            =  -3.0175293673864E+00
(PID.TID 0000.0001) %MON dynstat_theta_mean           =   3.9091304559860E+00
(PID.TID 0000.0001) %MON dynstat_theta_sd             =   4.5711443147581E+00
(PID.TID 0000.0001) %MON dynstat_theta_del2           =   2.6590891135791E-03
(PID.TID 0000.0001) %MON dynstat_salt_max             =   4.1386265990462E+01
(PID.TID 0000.0001) %MON dynstat_salt_min             =   1.8383410676806E+01
(PID.TID 0000.0001) %MON dynstat_salt_mean            =   3.4772068623474E+01
(PID.TID 0000.0001) %MON dynstat_salt_sd              =   5.3145226117181E-01
(PID.TID 0000.0001) %MON dynstat_salt_del2            =   8.0693627005698E-04
(PID.TID 0000.0001) %MON dynstat_sst_max              =   3.0925958904704E+01
(PID.TID 0000.0001) %MON dynstat_sst_min              =  -1.9648692042086E+00
(PID.TID 0000.0001) %MON dynstat_sst_mean             =   1.8113137824165E+01
(PID.TID 0000.0001) %MON dynstat_sst_sd               =   9.7982972159706E+00
(PID.TID 0000.0001) %MON dynstat_sst_del2             =   1.5454157826167E-02
(PID.TID 0000.0001) %MON dynstat_sss_max              =   4.1386265990462E+01
(PID.TID 0000.0001) %MON dynstat_sss_min              =   1.8383410676806E+01
(PID.TID 0000.0001) %MON dynstat_sss_mean             =   3.4632078412677E+01
(PID.TID 0000.0001) %MON dynstat_sss_sd               =   1.4684189495322E+00
(PID.TID 0000.0001) %MON dynstat_sss_del2             =   8.0812048509615E-03
(PID.TID 0000.0001) %MON forcing_qnet_max             =   0.0000000000000E+00
(PID.TID 0000.0001) %MON forcing_qnet_min             =   0.0000000000000E+00
(PID.TID 0000.0001) %MON forcing_qnet_mean            =   0.0000000000000E+00
(PID.TID 0000.0001) %MON forcing_qnet_sd              =   0.0000000000000E+00
(PID.TID 0000.0001) %MON forcing_qnet_del2            =   0.0000000000000E+00
(PID.TID 0000.0001) %MON forcing_qsw_max              =   0.0000000000000E+00
(PID.TID 0000.0001) %MON forcing_qsw_min              =   0.0000000000000E+00
(PID.TID 0000.0001) %MON forcing_qsw_mean             =   0.0000000000000E+00
(PID.TID 0000.0001) %MON forcing_qsw_sd               =   0.0000000000000E+00
(PID.TID 0000.0001) %MON forcing_qsw_del2             =   0.0000000000000E+00
(PID.TID 0000.0001) %MON forcing_empmr_max            =   0.0000000000000E+00
(PID.TID 0000.0001) %MON forcing_empmr_min            =   0.0000000000000E+00
(PID.TID 0000.0001) %MON forcing_empmr_mean           =   0.0000000000000E+00
(PID.TID 0000.0001) %MON forcing_empmr_sd             =   0.0000000000000E+00
(PID.TID 0000.0001) %MON forcing_empmr_del2           =   0.0000000000000E+00
(PID.TID 0000.0001) %MON forcing_fu_max               =   0.0000000000000E+00
(PID.TID 0000.0001) %MON forcing_fu_min               =   0.0000000000000E+00
(PID.TID 0000.0001) %MON forcing_fu_mean              =   0.0000000000000E+00
(PID.TID 0000.0001) %MON forcing_fu_sd                =   0.0000000000000E+00
(PID.TID 0000.0001) %MON forcing_fu_del2              =   0.0000000000000E+00
(PID.TID 0000.0001) %MON forcing_fv_max               =   0.0000000000000E+00
(PID.TID 0000.0001) %MON forcing_fv_min               =   0.0000000000000E+00
(PID.TID 0000.0001) %MON forcing_fv_mean              =   0.0000000000000E+00
(PID.TID 0000.0001) %MON forcing_fv_sd                =   0.0000000000000E+00
(PID.TID 0000.0001) %MON forcing_fv_del2              =   0.0000000000000E+00
(PID.TID 0000.0001) %MON trAdv_CFL_u_max              =   0.0000000000000E+00
(PID.TID 0000.0001) %MON trAdv_CFL_v_max              =   0.0000000000000E+00
(PID.TID 0000.0001) %MON trAdv_CFL_w_max              =   0.0000000000000E+00
(PID.TID 0000.0001) %MON advcfl_uvel_max              =   8.5096037087284E-04
(PID.TID 0000.0001) %MON advcfl_vvel_max              =   7.8760257411030E-04
(PID.TID 0000.0001) %MON advcfl_wvel_max              =   6.9324088098023E-04
(PID.TID 0000.0001) %MON advcfl_W_hf_max              =   7.6573916672744E-04
(PID.TID 0000.0001) %MON pe_b_mean                    =   4.7811655460464E-04
(PID.TID 0000.0001) %MON ke_max                       =   4.0700637549387E-02
(PID.TID 0000.0001) %MON ke_mean                      =   1.4067882101803E-04
(PID.TID 0000.0001) %MON ke_vol                       =   1.3398024453628E+18
(PID.TID 0000.0001) %MON vort_r_min                   =  -1.1843904755479E-06
(PID.TID 0000.0001) %MON vort_r_max                   =   1.2148454936551E-06
(PID.TID 0000.0001) %MON vort_a_mean                  =  -2.0549865324846E-05
(PID.TID 0000.0001) %MON vort_a_sd                    =   7.5259517155846E-05
(PID.TID 0000.0001) %MON vort_p_mean                  =  -2.4783469227166E-05
(PID.TID 0000.0001) %MON vort_p_sd                    =   1.2812074522595E-04
(PID.TID 0000.0001) %MON surfExpan_theta_mean         =  -3.8378290301302E-07
(PID.TID 0000.0001) %MON surfExpan_salt_mean          =  -1.6258537219558E-07
(PID.TID 0000.0001) // =======================================================
(PID.TID 0000.0001) // End MONITOR dynamic field statistics
(PID.TID 0000.0001) // =======================================================
(PID.TID 0000.0001) SOLVE_FOR_PRESSURE: putPmEinXvector =    F
(PID.TID 0000.0001) SOLVE_FOR_PRESSURE: zeroPsNH=    F , zeroMeanPnh=    F
(PID.TID 0000.0001) SOLVE_FOR_PRESSURE: oldFreeSurfTerm =    F
 cg2d: Sum(rhs),rhsMax =  -4.15567526718164E+00  1.71157446052848E+02
(PID.TID 0000.0001)      cg2d_init_res =   1.82627667751418E+00
(PID.TID 0000.0001)      cg2d_iters(min,last) =      -1       9
(PID.TID 0000.0001)      cg2d_last_res =   5.41716785336076E-08
(PID.TID 0000.0001) // =======================================================
(PID.TID 0000.0001) // Begin MONITOR dynamic field statistics
(PID.TID 0000.0001) // =======================================================
(PID.TID 0000.0001) %MON time_tsnumber                =                 72001
(PID.TID 0000.0001) %MON time_secondsf                =   6.4800900000000E+07
(PID.TID 0000.0001) %MON dynstat_eta_max              =   8.2753248603515E+00
(PID.TID 0000.0001) %MON dynstat_eta_min              =  -1.7013067136187E+00
(PID.TID 0000.0001) %MON dynstat_eta_mean             =   8.2649184792568E-03
(PID.TID 0000.0001) %MON dynstat_eta_sd               =   6.4411379459213E-01
(PID.TID 0000.0001) %MON dynstat_eta_del2             =   7.8581043414469E-03
(PID.TID 0000.0001) %MON dynstat_uvel_max             =   3.2763427685314E-01
(PID.TID 0000.0001) %MON dynstat_uvel_min             =  -2.8705054766291E-01
(PID.TID 0000.0001) %MON dynstat_uvel_mean            =  -4.7496988719699E-04
(PID.TID 0000.0001) %MON dynstat_uvel_sd              =   1.2102424823172E-02
(PID.TID 0000.0001) %MON dynstat_uvel_del2            =   5.7501460854739E-05
(PID.TID 0000.0001) %MON dynstat_vvel_max             =   2.5891757135170E-01
(PID.TID 0000.0001) %MON dynstat_vvel_min             =  -2.6145139611381E-01
(PID.TID 0000.0001) %MON dynstat_vvel_mean            =  -3.9526002293339E-04
(PID.TID 0000.0001) %MON dynstat_vvel_sd              =   1.2717138298743E-02
(PID.TID 0000.0001) %MON dynstat_vvel_del2            =   6.3785355654322E-05
(PID.TID 0000.0001) %MON dynstat_wvel_max             =   1.2092710117211E-03
(PID.TID 0000.0001) %MON dynstat_wvel_min             =  -9.5244762402226E-03
(PID.TID 0000.0001) %MON dynstat_wvel_mean            =  -2.0243116849563E-07
(PID.TID 0000.0001) %MON dynstat_wvel_sd              =   3.1998778955705E-05
(PID.TID 0000.0001) %MON dynstat_wvel_del2            =   7.8903357355974E-07
(PID.TID 0000.0001) %MON dynstat_theta_max            =   3.0925747390141E+01
(PID.TID 0000.0001) %MON dynstat_theta_min            =  -3.0174068477860E+00
(PID.TID 0000.0001) %MON dynstat_theta_mean           =   3.9089289293568E+00
(PID.TID 0000.0001) %MON dynstat_theta_sd             =   4.5705894931715E+00
(PID.TID 0000.0001) %MON dynstat_theta_del2           =   2.6547413067017E-03
(PID.TID 0000.0001) %MON dynstat_salt_max             =   4.1379252577007E+01
(PID.TID 0000.0001) %MON dynstat_salt_min             =   1.8518388124896E+01
(PID.TID 0000.0001) %MON dynstat_salt_mean            =   3.4772204635190E+01
(PID.TID 0000.0001) %MON dynstat_salt_sd              =   5.3093677038112E-01
(PID.TID 0000.0001) %MON dynstat_salt_del2            =   8.0227846107925E-04
(PID.TID 0000.0001) %MON dynstat_sst_max              =   3.0925747390141E+01
(PID.TID 0000.0001) %MON dynstat_sst_min              =  -1.8999508964804E+00
(PID.TID 0000.0001) %MON dynstat_sst_mean             =   1.8098847248305E+01
(PID.TID 0000.0001) %MON dynstat_sst_sd               =   9.8006374622971E+00
(PID.TID 0000.0001) %MON dynstat_sst_del2             =   1.5358863750416E-02
(PID.TID 0000.0001) %MON dynstat_sss_max              =   4.1379252577007E+01
(PID.TID 0000.0001) %MON dynstat_sss_min              =   1.8738343050650E+01
(PID.TID 0000.0001) %MON dynstat_sss_mean             =   3.4642167278697E+01
(PID.TID 0000.0001) %MON dynstat_sss_sd               =   1.4555452820464E+00
(PID.TID 0000.0001) %MON dynstat_sss_del2             =   8.0099712750648E-03
(PID.TID 0000.0001) %MON forcing_qnet_max             =   3.7691021875000E+05
(PID.TID 0000.0001) %MON forcing_qnet_min             =  -8.4035695312500E+04
(PID.TID 0000.0001) %MON forcing_qnet_mean            =   3.5052975570329E+03
(PID.TID 0000.0001) %MON forcing_qnet_sd              =   1.3699239947814E+04
(PID.TID 0000.0001) %MON forcing_qnet_del2            =   3.4117286544582E+02
(PID.TID 0000.0001) %MON forcing_qsw_max              =   0.0000000000000E+00
(PID.TID 0000.0001) %MON forcing_qsw_min              =   0.0000000000000E+00
(PID.TID 0000.0001) %MON forcing_qsw_mean             =   0.0000000000000E+00
(PID.TID 0000.0001) %MON forcing_qsw_sd               =   0.0000000000000E+00
(PID.TID 0000.0001) %MON forcing_qsw_del2             =   0.0000000000000E+00
(PID.TID 0000.0001) %MON forcing_empmr_max            =   1.2515954971313E+00
(PID.TID 0000.0001) %MON forcing_empmr_min            =  -9.8578329086304E+00
(PID.TID 0000.0001) %MON forcing_empmr_mean           =  -9.5046562511287E-03
(PID.TID 0000.0001) %MON forcing_empmr_sd             =   2.8328311495506E-01
(PID.TID 0000.0001) %MON forcing_empmr_del2           =   9.3820567515831E-03
(PID.TID 0000.0001) %MON forcing_fu_max               =   5.0394416799918E-01
(PID.TID 0000.0001) %MON forcing_fu_min               =  -4.7713297787496E-01
(PID.TID 0000.0001) %MON forcing_fu_mean              =  -5.5690217709486E-03
(PID.TID 0000.0001) %MON forcing_fu_sd                =   7.3532839210981E-02
(PID.TID 0000.0001) %MON forcing_fu_del2              =   7.3910548905014E-04
(PID.TID 0000.0001) %MON forcing_fv_max               =   2.7803803014539E-01
(PID.TID 0000.0001) %MON forcing_fv_min               =  -5.2780272829866E-01
(PID.TID 0000.0001) %MON forcing_fv_mean              =  -1.4712056918441E-02
(PID.TID 0000.0001) %MON forcing_fv_sd                =   6.9084526055315E-02
(PID.TID 0000.0001) %MON forcing_fv_del2              =   6.1366562127215E-04
(PID.TID 0000.0001) %MON trAdv_CFL_u_max              =   1.1280673743154E-03
(PID.TID 0000.0001) %MON trAdv_CFL_v_max              =   1.5079039795483E-03
(PID.TID 0000.0001) %MON trAdv_CFL_w_max              =   1.0966522999600E-01
(PID.TID 0000.0001) %MON advcfl_uvel_max              =   1.1495869842228E-03
(PID.TID 0000.0001) %MON advcfl_vvel_max              =   8.4494248074644E-04
(PID.TID 0000.0001) %MON advcfl_wvel_max              =   3.4288114464801E-01
(PID.TID 0000.0001) %MON advcfl_W_hf_max              =   1.1442963066945E-01
(PID.TID 0000.0001) %MON pe_b_mean                    =   5.5279126579831E-04
(PID.TID 0000.0001) %MON ke_max                       =   5.0286507755843E-02
(PID.TID 0000.0001) %MON ke_mean                      =   1.4249359841112E-04
(PID.TID 0000.0001) %MON ke_vol                       =   1.3398024453628E+18
(PID.TID 0000.0001) %MON vort_r_min                   =  -1.1879228754947E-06
(PID.TID 0000.0001) %MON vort_r_max                   =   1.2254772535884E-06
(PID.TID 0000.0001) %MON vort_a_mean                  =  -2.0549865324846E-05
(PID.TID 0000.0001) %MON vort_a_sd                    =   7.5259518452377E-05
(PID.TID 0000.0001) %MON vort_p_mean                  =  -2.4783469220072E-05
(PID.TID 0000.0001) %MON vort_p_sd                    =   1.2812073552821E-04
(PID.TID 0000.0001) %MON surfExpan_theta_mean         =  -5.9038107878113E-07
(PID.TID 0000.0001) %MON surfExpan_salt_mean          =   9.6921841921997E-07
(PID.TID 0000.0001) // =======================================================
(PID.TID 0000.0001) // End MONITOR dynamic field statistics
(PID.TID 0000.0001) // =======================================================
 cg2d: Sum(rhs),rhsMax =  -4.49609330510533E+00  1.77239144267647E+02
(PID.TID 0000.0001)      cg2d_init_res =   1.49817363533271E-01
(PID.TID 0000.0001)      cg2d_iters(min,last) =      -1       9
(PID.TID 0000.0001)      cg2d_last_res =   4.00338982431140E-08
(PID.TID 0000.0001) // =======================================================
(PID.TID 0000.0001) // Begin MONITOR dynamic field statistics
(PID.TID 0000.0001) // =======================================================
(PID.TID 0000.0001) %MON time_tsnumber                =                 72002
(PID.TID 0000.0001) %MON time_secondsf                =   6.4801800000000E+07
(PID.TID 0000.0001) %MON dynstat_eta_max              =   8.2924004921162E+00
(PID.TID 0000.0001) %MON dynstat_eta_min              =  -1.6611584502975E+00
(PID.TID 0000.0001) %MON dynstat_eta_mean             =   9.2596832985374E-03
(PID.TID 0000.0001) %MON dynstat_eta_sd               =   6.4477570044662E-01
(PID.TID 0000.0001) %MON dynstat_eta_del2             =   7.7938874322522E-03
(PID.TID 0000.0001) %MON dynstat_uvel_max             =   5.7139578565853E-01
(PID.TID 0000.0001) %MON dynstat_uvel_min             =  -3.7374574212335E-01
(PID.TID 0000.0001) %MON dynstat_uvel_mean            =  -4.5492609398073E-04
(PID.TID 0000.0001) %MON dynstat_uvel_sd              =   1.2337831813357E-02
(PID.TID 0000.0001) %MON dynstat_uvel_del2            =   7.2188320150409E-05
(PID.TID 0000.0001) %MON dynstat_vvel_max             =   4.9622113802970E-01
(PID.TID 0000.0001) %MON dynstat_vvel_min             =  -4.9670110220629E-01
(PID.TID 0000.0001) %MON dynstat_vvel_mean            =  -3.8715809872241E-04
(PID.TID 0000.0001) %MON dynstat_vvel_sd              =   1.2950880079702E-02
(PID.TID 0000.0001) %MON dynstat_vvel_del2            =   9.1295764540363E-05
(PID.TID 0000.0001) %MON dynstat_wvel_max             =   1.0346879972044E-04
(PID.TID 0000.0001) %MON dynstat_wvel_min             =  -9.6458812842622E-04
(PID.TID 0000.0001) %MON dynstat_wvel_mean            =  -1.7310686682859E-07
(PID.TID 0000.0001) %MON dynstat_wvel_sd              =   8.7004333598575E-06
(PID.TID 0000.0001) %MON dynstat_wvel_del2            =   1.0415139234284E-07
(PID.TID 0000.0001) %MON dynstat_theta_max            =   3.0925531570404E+01
(PID.TID 0000.0001) %MON dynstat_theta_min            =  -3.0169874562306E+00
(PID.TID 0000.0001) %MON dynstat_theta_mean           =   3.9089325685309E+00
(PID.TID 0000.0001) %MON dynstat_theta_sd             =   4.5706031330592E+00
(PID.TID 0000.0001) %MON dynstat_theta_del2           =   2.6546947106239E-03
(PID.TID 0000.0001) %MON dynstat_salt_max             =   4.1377063720332E+01
(PID.TID 0000.0001) %MON dynstat_salt_min             =   1.8518393956370E+01
(PID.TID 0000.0001) %MON dynstat_salt_mean            =   3.4772194017914E+01
(PID.TID 0000.0001) %MON dynstat_salt_sd              =   5.3093680931682E-01
(PID.TID 0000.0001) %MON dynstat_salt_del2            =   8.0273098585185E-04
(PID.TID 0000.0001) %MON dynstat_sst_max              =   3.0925531570404E+01
(PID.TID 0000.0001) %MON dynstat_sst_min              =  -1.8999086925615E+00
(PID.TID 0000.0001) %MON dynstat_sst_mean             =   1.8099122720843E+01
(PID.TID 0000.0001) %MON dynstat_sst_sd               =   9.8007891980188E+00
(PID.TID 0000.0001) %MON dynstat_sst_del2             =   1.5337564034634E-02
(PID.TID 0000.0001) %MON dynstat_sss_max              =   4.1377063720332E+01
(PID.TID 0000.0001) %MON dynstat_sss_min              =   1.8752704481778E+01
(PID.TID 0000.0001) %MON dynstat_sss_mean             =   3.4641715546931E+01
(PID.TID 0000.0001) %MON dynstat_sss_sd               =   1.4568674478676E+00
(PID.TID 0000.0001) %MON dynstat_sss_del2             =   8.0134005537618E-03
(PID.TID 0000.0001) %MON forcing_qnet_max             =   5.7813835937500E+04
(PID.TID 0000.0001) %MON forcing_qnet_min             =  -2.5625908203125E+04
(PID.TID 0000.0001) %MON forcing_qnet_mean            =  -1.1908811299431E+02
(PID.TID 0000.0001) %MON forcing_qnet_sd              =   1.9862107910072E+03
(PID.TID 0000.0001) %MON forcing_qnet_del2            =   5.8649116976986E+01
(PID.TID 0000.0001) %MON forcing_qsw_max              =   0.0000000000000E+00
(PID.TID 0000.0001) %MON forcing_qsw_min              =   0.0000000000000E+00
(PID.TID 0000.0001) %MON forcing_qsw_mean             =   0.0000000000000E+00
(PID.TID 0000.0001) %MON forcing_qsw_sd               =   0.0000000000000E+00
(PID.TID 0000.0001) %MON forcing_qsw_del2             =   0.0000000000000E+00
(PID.TID 0000.0001) %MON forcing_empmr_max            =   7.8137055039406E-02
(PID.TID 0000.0001) %MON forcing_empmr_min            =  -9.9834871292114E-01
(PID.TID 0000.0001) %MON forcing_empmr_mean           =  -1.1439795421727E-03
(PID.TID 0000.0001) %MON forcing_empmr_sd             =   2.3077283264818E-02
(PID.TID 0000.0001) %MON forcing_empmr_del2           =   8.6833437599450E-04
(PID.TID 0000.0001) %MON forcing_fu_max               =   5.2673586205875E-01
(PID.TID 0000.0001) %MON forcing_fu_min               =  -4.7110067456762E-01
(PID.TID 0000.0001) %MON forcing_fu_mean              =  -5.8127071193879E-03
(PID.TID 0000.0001) %MON forcing_fu_sd                =   7.5286862912357E-02
(PID.TID 0000.0001) %MON forcing_fu_del2              =   7.6082352579098E-04
(PID.TID 0000.0001) %MON forcing_fv_max               =   3.1840205418107E-01
(PID.TID 0000.0001) %MON forcing_fv_min               =  -5.1674246813341E-01
(PID.TID 0000.0001) %MON forcing_fv_mean              =  -1.4458650509594E-02
(PID.TID 0000.0001) %MON forcing_fv_sd                =   7.1803097169886E-02
(PID.TID 0000.0001) %MON forcing_fv_del2              =   6.3061059378346E-04
(PID.TID 0000.0001) %MON trAdv_CFL_u_max              =   1.8246435590100E-03
(PID.TID 0000.0001) %MON trAdv_CFL_v_max              =   2.8636511715522E-03
(PID.TID 0000.0001) %MON trAdv_CFL_w_max              =   1.5844084519015E-02
(PID.TID 0000.0001) %MON advcfl_uvel_max              =   1.9313399071585E-03
(PID.TID 0000.0001) %MON advcfl_vvel_max              =   1.6193505800968E-03
(PID.TID 0000.0001) %MON advcfl_wvel_max              =   3.4725172623344E-02
(PID.TID 0000.0001) %MON advcfl_W_hf_max              =   1.5844084519015E-02
(PID.TID 0000.0001) %MON pe_b_mean                    =   5.5394976427765E-04
(PID.TID 0000.0001) %MON ke_max                       =   1.5978050372439E-01
(PID.TID 0000.0001) %MON ke_mean                      =   1.4790787392872E-04
(PID.TID 0000.0001) %MON ke_vol                       =   1.3398054528570E+18
(PID.TID 0000.0001) %MON vort_r_min                   =  -1.6394467608389E-06
(PID.TID 0000.0001) %MON vort_r_max                   =   1.7132326034633E-06
(PID.TID 0000.0001) %MON vort_a_mean                  =  -2.0549865324846E-05
(PID.TID 0000.0001) %MON vort_a_sd                    =   7.5259520775864E-05
(PID.TID 0000.0001) %MON vort_p_mean                  =  -2.4783431347483E-05
(PID.TID 0000.0001) %MON vort_p_sd                    =   1.2811974218164E-04
(PID.TID 0000.0001) %MON surfExpan_theta_mean         =  -6.2331410677208E-06
(PID.TID 0000.0001) %MON surfExpan_salt_mean          =   6.5470375901380E-07
(PID.TID 0000.0001) // =======================================================
(PID.TID 0000.0001) // End MONITOR dynamic field statistics
(PID.TID 0000.0001) // =======================================================
 cg2d: Sum(rhs),rhsMax =  -4.95985354518541E+00  1.70734572141882E+02
(PID.TID 0000.0001)      cg2d_init_res =   1.95821929094452E-01
(PID.TID 0000.0001)      cg2d_iters(min,last) =      -1       9
(PID.TID 0000.0001)      cg2d_last_res =   4.54572752703410E-08
(PID.TID 0000.0001) // =======================================================
(PID.TID 0000.0001) // Begin MONITOR dynamic field statistics
(PID.TID 0000.0001) // =======================================================
(PID.TID 0000.0001) %MON time_tsnumber                =                 72003
(PID.TID 0000.0001) %MON time_secondsf                =   6.4802700000000E+07
(PID.TID 0000.0001) %MON dynstat_eta_max              =   7.9894066540940E+00
(PID.TID 0000.0001) %MON dynstat_eta_min              =  -1.6205229485006E+00
(PID.TID 0000.0001) %MON dynstat_eta_mean             =   9.8399183920736E-03
(PID.TID 0000.0001) %MON dynstat_eta_sd               =   6.4036997429813E-01
(PID.TID 0000.0001) %MON dynstat_eta_del2             =   7.1430949410348E-03
(PID.TID 0000.0001) %MON dynstat_uvel_max             =   8.2512186483666E-01
(PID.TID 0000.0001) %MON dynstat_uvel_min             =  -4.7287996179743E-01
(PID.TID 0000.0001) %MON dynstat_uvel_mean            =  -4.3052936122564E-04
(PID.TID 0000.0001) %MON dynstat_uvel_sd              =   1.2637975457746E-02
(PID.TID 0000.0001) %MON dynstat_uvel_del2            =   8.8567152269522E-05
(PID.TID 0000.0001) %MON dynstat_vvel_max             =   7.1115909522383E-01
(PID.TID 0000.0001) %MON dynstat_vvel_min             =  -7.1900551478327E-01
(PID.TID 0000.0001) %MON dynstat_vvel_mean            =  -3.8022620637667E-04
(PID.TID 0000.0001) %MON dynstat_vvel_sd              =   1.3236375663808E-02
(PID.TID 0000.0001) %MON dynstat_vvel_del2            =   1.1885728392594E-04
(PID.TID 0000.0001) %MON dynstat_wvel_max             =   1.0359921346005E-04
(PID.TID 0000.0001) %MON dynstat_wvel_min             =  -8.2196788839985E-04
(PID.TID 0000.0001) %MON dynstat_wvel_mean            =  -2.2595381739839E-07
(PID.TID 0000.0001) %MON dynstat_wvel_sd              =   9.6375815819804E-06
(PID.TID 0000.0001) %MON dynstat_wvel_del2            =   9.3140108443695E-08
(PID.TID 0000.0001) %MON dynstat_theta_max            =   3.0925309998987E+01
(PID.TID 0000.0001) %MON dynstat_theta_min            =  -3.0163140105266E+00
(PID.TID 0000.0001) %MON dynstat_theta_mean           =   3.9089447142921E+00
(PID.TID 0000.0001) %MON dynstat_theta_sd             =   4.5706416320861E+00
(PID.TID 0000.0001) %MON dynstat_theta_del2           =   2.6540322534081E-03
(PID.TID 0000.0001) %MON dynstat_salt_max             =   4.1376508806780E+01
(PID.TID 0000.0001) %MON dynstat_salt_min             =   1.8518404082493E+01
(PID.TID 0000.0001) %MON dynstat_salt_mean            =   3.4772185801404E+01
(PID.TID 0000.0001) %MON dynstat_salt_sd              =   5.3094703867680E-01
(PID.TID 0000.0001) %MON dynstat_salt_del2            =   8.0380463164378E-04
(PID.TID 0000.0001) %MON dynstat_sst_max              =   3.0925309998987E+01
(PID.TID 0000.0001) %MON dynstat_sst_min              =  -1.8998676802089E+00
(PID.TID 0000.0001) %MON dynstat_sst_mean             =   1.8099805018861E+01
(PID.TID 0000.0001) %MON dynstat_sst_sd               =   9.8009349802644E+00
(PID.TID 0000.0001) %MON dynstat_sst_del2             =   1.5314719634409E-02
(PID.TID 0000.0001) %MON dynstat_sss_max              =   4.1376508806780E+01
(PID.TID 0000.0001) %MON dynstat_sss_min              =   1.8753325135138E+01
(PID.TID 0000.0001) %MON dynstat_sss_mean             =   3.4641130392372E+01
(PID.TID 0000.0001) %MON dynstat_sss_sd               =   1.4573499634346E+00
(PID.TID 0000.0001) %MON dynstat_sss_del2             =   8.0292095145638E-03
(PID.TID 0000.0001) %MON forcing_qnet_max             =   4.1463300781250E+04
(PID.TID 0000.0001) %MON forcing_qnet_min             =  -1.6908115234375E+04
(PID.TID 0000.0001) %MON forcing_qnet_mean            =  -1.5598218250890E+02
(PID.TID 0000.0001) %MON forcing_qnet_sd              =   1.4000880700305E+03
(PID.TID 0000.0001) %MON forcing_qnet_del2            =   4.9543778636108E+01
(PID.TID 0000.0001) %MON forcing_qsw_max              =   0.0000000000000E+00
(PID.TID 0000.0001) %MON forcing_qsw_min              =   0.0000000000000E+00
(PID.TID 0000.0001) %MON forcing_qsw_mean             =   0.0000000000000E+00
(PID.TID 0000.0001) %MON forcing_qsw_sd               =   0.0000000000000E+00
(PID.TID 0000.0001) %MON forcing_qsw_del2             =   0.0000000000000E+00
(PID.TID 0000.0001) %MON forcing_empmr_max            =   7.4272707104683E-02
(PID.TID 0000.0001) %MON forcing_empmr_min            =  -7.3675078153610E-01
(PID.TID 0000.0001) %MON forcing_empmr_mean           =  -6.6727035756655E-04
(PID.TID 0000.0001) %MON forcing_empmr_sd             =   1.3765271708811E-02
(PID.TID 0000.0001) %MON forcing_empmr_del2           =   5.3607531293541E-04
(PID.TID 0000.0001) %MON forcing_fu_max               =   5.5432009205424E-01
(PID.TID 0000.0001) %MON forcing_fu_min               =  -4.9094055559773E-01
(PID.TID 0000.0001) %MON forcing_fu_mean              =  -5.7363163135419E-03
(PID.TID 0000.0001) %MON forcing_fu_sd                =   7.6395319348655E-02
(PID.TID 0000.0001) %MON forcing_fu_del2              =   7.7278911138070E-04
(PID.TID 0000.0001) %MON forcing_fv_max               =   3.3957582757018E-01
(PID.TID 0000.0001) %MON forcing_fv_min               =  -5.0014369923249E-01
(PID.TID 0000.0001) %MON forcing_fv_mean              =  -1.4045314881208E-02
(PID.TID 0000.0001) %MON forcing_fv_sd                =   7.3241117180991E-02
(PID.TID 0000.0001) %MON forcing_fv_del2              =   6.4697214179426E-04
(PID.TID 0000.0001) %MON trAdv_CFL_u_max              =   2.5788961248391E-03
(PID.TID 0000.0001) %MON trAdv_CFL_v_max              =   4.0592791867764E-03
(PID.TID 0000.0001) %MON trAdv_CFL_w_max              =   1.1450259100792E-02
(PID.TID 0000.0001) %MON advcfl_uvel_max              =   2.7515888629922E-03
(PID.TID 0000.0001) %MON advcfl_vvel_max              =   2.3207715373925E-03
(PID.TID 0000.0001) %MON advcfl_wvel_max              =   2.5626114140386E-02
(PID.TID 0000.0001) %MON advcfl_W_hf_max              =   1.1450259100792E-02
(PID.TID 0000.0001) %MON pe_b_mean                    =   5.4642156697653E-04
(PID.TID 0000.0001) %MON ke_max                       =   3.2621516444897E-01
(PID.TID 0000.0001) %MON ke_mean                      =   1.5480728957267E-04
(PID.TID 0000.0001) %MON ke_vol                       =   1.3398058148387E+18
(PID.TID 0000.0001) %MON vort_r_min                   =  -2.4217282435810E-06
(PID.TID 0000.0001) %MON vort_r_max                   =   2.4457830597067E-06
(PID.TID 0000.0001) %MON vort_a_mean                  =  -2.0549865324846E-05
(PID.TID 0000.0001) %MON vort_a_sd                    =   7.5259523325176E-05
(PID.TID 0000.0001) %MON vort_p_mean                  =  -2.4783424994462E-05
(PID.TID 0000.0001) %MON vort_p_sd                    =   1.2811962685599E-04
(PID.TID 0000.0001) %MON surfExpan_theta_mean         =  -6.8283962396095E-06
(PID.TID 0000.0001) %MON surfExpan_salt_mean          =   7.2046369795432E-07
(PID.TID 0000.0001) // =======================================================
(PID.TID 0000.0001) // End MONITOR dynamic field statistics
(PID.TID 0000.0001) // =======================================================
 Computing Diagnostic #     81  oceTAUX      Counter:       1   Parms: UU      U1      
           Vector  Mate for  oceTAUX      Diagnostic #     82  oceTAUY  exists 
 Computing Diagnostic #     82  oceTAUY      Counter:       1   Parms: VV      U1      
           Vector  Mate for  oceTAUY      Diagnostic #     81  oceTAUX  exists 
 Computing Diagnostic #     85  oceFWflx     Counter:       1   Parms: SM      U1      
 Computing Diagnostic #     86  oceSflux     Counter:       1   Parms: SM      U1      
 Computing Diagnostic #     87  oceQnet      Counter:       1   Parms: SM      U1      
 Computing Diagnostic #     88  oceQsw       Counter:       1   Parms: SM      U1      
 Computing Diagnostic #     27  SALT         Counter:       1   Parms: SMR     MR      
 Computing Diagnostic #     26  THETA        Counter:       1   Parms: SMR     MR      
 Computing Diagnostic #     45  UVELMASS     Counter:       1   Parms: UUr     MR      
           Vector  Mate for  UVELMASS     Diagnostic #     46  VVELMASS exists 
 Computing Diagnostic #     46  VVELMASS     Counter:       1   Parms: VVr     MR      
           Vector  Mate for  VVELMASS     Diagnostic #     45  UVELMASS exists 
 Computing Diagnostic #     83  atmPload     Counter:       1   Parms: SM      U1      
 cg2d: Sum(rhs),rhsMax =  -5.52484636812480E+00  1.61497875128118E+02
(PID.TID 0000.0001)      cg2d_init_res =   2.22654710281207E-01
(PID.TID 0000.0001)      cg2d_iters(min,last) =      -1       9
(PID.TID 0000.0001)      cg2d_last_res =   4.89838523453267E-08
(PID.TID 0000.0001) // =======================================================
(PID.TID 0000.0001) // Begin MONITOR dynamic field statistics
(PID.TID 0000.0001) // =======================================================
(PID.TID 0000.0001) %MON time_tsnumber                =                 72004
(PID.TID 0000.0001) %MON time_secondsf                =   6.4803600000000E+07
(PID.TID 0000.0001) %MON dynstat_eta_max              =   7.5595019489153E+00
(PID.TID 0000.0001) %MON dynstat_eta_min              =  -1.6221863062009E+00
(PID.TID 0000.0001) %MON dynstat_eta_mean             =   1.0367837739457E-02
(PID.TID 0000.0001) %MON dynstat_eta_sd               =   6.3556611014073E-01
(PID.TID 0000.0001) %MON dynstat_eta_del2             =   6.3790344708303E-03
(PID.TID 0000.0001) %MON dynstat_uvel_max             =   1.0592369712416E+00
(PID.TID 0000.0001) %MON dynstat_uvel_min             =  -5.6495351453379E-01
(PID.TID 0000.0001) %MON dynstat_uvel_mean            =  -4.0240684391800E-04
(PID.TID 0000.0001) %MON dynstat_uvel_sd              =   1.2940064975381E-02
(PID.TID 0000.0001) %MON dynstat_uvel_del2            =   1.0358635349577E-04
(PID.TID 0000.0001) %MON dynstat_vvel_max             =   8.9814444895932E-01
(PID.TID 0000.0001) %MON dynstat_vvel_min             =  -9.2310543237562E-01
(PID.TID 0000.0001) %MON dynstat_vvel_mean            =  -3.7534053653623E-04
(PID.TID 0000.0001) %MON dynstat_vvel_sd              =   1.3514003621881E-02
(PID.TID 0000.0001) %MON dynstat_vvel_del2            =   1.4238216526169E-04
(PID.TID 0000.0001) %MON dynstat_wvel_max             =   1.0372053630322E-04
(PID.TID 0000.0001) %MON dynstat_wvel_min             =  -8.6328966755824E-04
(PID.TID 0000.0001) %MON dynstat_wvel_mean            =  -2.8679369711041E-07
(PID.TID 0000.0001) %MON dynstat_wvel_sd              =   1.0330726214450E-05
(PID.TID 0000.0001) %MON dynstat_wvel_del2            =   9.4151789762541E-08
(PID.TID 0000.0001) %MON dynstat_theta_max            =   3.0925083806859E+01
(PID.TID 0000.0001) %MON dynstat_theta_min            =  -3.0154698306150E+00
(PID.TID 0000.0001) %MON dynstat_theta_mean           =   3.9089546328880E+00
(PID.TID 0000.0001) %MON dynstat_theta_sd             =   4.5706743826321E+00
(PID.TID 0000.0001) %MON dynstat_theta_del2           =   2.6533245004308E-03
(PID.TID 0000.0001) %MON dynstat_salt_max             =   4.1375918236753E+01
(PID.TID 0000.0001) %MON dynstat_salt_min             =   1.8518413788516E+01
(PID.TID 0000.0001) %MON dynstat_salt_mean            =   3.4772178036888E+01
(PID.TID 0000.0001) %MON dynstat_salt_sd              =   5.3096007557580E-01
(PID.TID 0000.0001) %MON dynstat_salt_del2            =   8.0532972440818E-04
(PID.TID 0000.0001) %MON dynstat_sst_max              =   3.0925083806859E+01
(PID.TID 0000.0001) %MON dynstat_sst_min              =  -1.8998265939992E+00
(PID.TID 0000.0001) %MON dynstat_sst_mean             =   1.8100317139448E+01
(PID.TID 0000.0001) %MON dynstat_sst_sd               =   9.8011288557363E+00
(PID.TID 0000.0001) %MON dynstat_sst_del2             =   1.5295133612242E-02
(PID.TID 0000.0001) %MON dynstat_sss_max              =   4.1375918236753E+01
(PID.TID 0000.0001) %MON dynstat_sss_min              =   1.8752727162647E+01
(PID.TID 0000.0001) %MON dynstat_sss_mean             =   3.4640573225990E+01
(PID.TID 0000.0001) %MON dynstat_sss_sd               =   1.4576917398501E+00
(PID.TID 0000.0001) %MON dynstat_sss_del2             =   8.0529500640649E-03
(PID.TID 0000.0001) %MON forcing_qnet_max             =   1.4863687500000E+04
(PID.TID 0000.0001) %MON forcing_qnet_min             =  -9.6742812500000E+03
(PID.TID 0000.0001) %MON forcing_qnet_mean            =  -1.1520118011715E+02
(PID.TID 0000.0001) %MON forcing_qnet_sd              =   9.7031964282477E+02
(PID.TID 0000.0001) %MON forcing_qnet_del2            =   3.1967653395858E+01
(PID.TID 0000.0001) %MON forcing_qsw_max              =   0.0000000000000E+00
(PID.TID 0000.0001) %MON forcing_qsw_min              =   0.0000000000000E+00
(PID.TID 0000.0001) %MON forcing_qsw_mean             =   0.0000000000000E+00
(PID.TID 0000.0001) %MON forcing_qsw_sd               =   0.0000000000000E+00
(PID.TID 0000.0001) %MON forcing_qsw_del2             =   0.0000000000000E+00
(PID.TID 0000.0001) %MON forcing_empmr_max            =   7.5552180409431E-02
(PID.TID 0000.0001) %MON forcing_empmr_min            =  -6.0023152828217E-01
(PID.TID 0000.0001) %MON forcing_empmr_mean           =  -6.0710724949120E-04
(PID.TID 0000.0001) %MON forcing_empmr_sd             =   1.1986910782899E-02
(PID.TID 0000.0001) %MON forcing_empmr_del2           =   4.6983306963435E-04
(PID.TID 0000.0001) %MON forcing_fu_max               =   5.7016868840872E-01
(PID.TID 0000.0001) %MON forcing_fu_min               =  -4.8709506256180E-01
(PID.TID 0000.0001) %MON forcing_fu_mean              =  -5.5556169222155E-03
(PID.TID 0000.0001) %MON forcing_fu_sd                =   7.6502759895101E-02
(PID.TID 0000.0001) %MON forcing_fu_del2              =   7.7637431121957E-04
(PID.TID 0000.0001) %MON forcing_fv_max               =   3.5962580141974E-01
(PID.TID 0000.0001) %MON forcing_fv_min               =  -4.6739339262075E-01
(PID.TID 0000.0001) %MON forcing_fv_mean              =  -1.3751776189212E-02
(PID.TID 0000.0001) %MON forcing_fv_sd                =   7.3752930631677E-02
(PID.TID 0000.0001) %MON forcing_fv_del2              =   6.5396394426220E-04
(PID.TID 0000.0001) %MON trAdv_CFL_u_max              =   3.3232612379690E-03
(PID.TID 0000.0001) %MON trAdv_CFL_v_max              =   5.0134007788297E-03
(PID.TID 0000.0001) %MON trAdv_CFL_w_max              =   9.1026114287422E-03
(PID.TID 0000.0001) %MON advcfl_uvel_max              =   3.5323081081059E-03
(PID.TID 0000.0001) %MON advcfl_vvel_max              =   2.9309729533246E-03
(PID.TID 0000.0001) %MON advcfl_wvel_max              =   2.0877618375032E-02
(PID.TID 0000.0001) %MON advcfl_W_hf_max              =   9.1026114287422E-03
(PID.TID 0000.0001) %MON pe_b_mean                    =   5.3827018952530E-04
(PID.TID 0000.0001) %MON ke_max                       =   5.4146086519758E-01
(PID.TID 0000.0001) %MON ke_mean                      =   1.6178991064892E-04
(PID.TID 0000.0001) %MON ke_vol                       =   1.3398060259786E+18
(PID.TID 0000.0001) %MON vort_r_min                   =  -3.1024015399058E-06
(PID.TID 0000.0001) %MON vort_r_max                   =   3.0683138680892E-06
(PID.TID 0000.0001) %MON vort_a_mean                  =  -2.0549865324846E-05
(PID.TID 0000.0001) %MON vort_a_sd                    =   7.5259525563041E-05
(PID.TID 0000.0001) %MON vort_p_mean                  =  -2.4783420253504E-05
(PID.TID 0000.0001) %MON vort_p_sd                    =   1.2811956534697E-04
(PID.TID 0000.0001) %MON surfExpan_theta_mean         =  -7.2112009188055E-06
(PID.TID 0000.0001) %MON surfExpan_salt_mean          =   8.3068015585865E-07
(PID.TID 0000.0001) // =======================================================
(PID.TID 0000.0001) // End MONITOR dynamic field statistics
(PID.TID 0000.0001) // =======================================================
 cg2d: Sum(rhs),rhsMax =  -6.21934731556183E+00  1.50484876304102E+02
(PID.TID 0000.0001)      cg2d_init_res =   2.42898372129190E-01
(PID.TID 0000.0001)      cg2d_iters(min,last) =      -1       9
(PID.TID 0000.0001)      cg2d_last_res =   5.71024760619993E-08
(PID.TID 0000.0001) // =======================================================
(PID.TID 0000.0001) // Begin MONITOR dynamic field statistics
(PID.TID 0000.0001) // =======================================================
(PID.TID 0000.0001) %MON time_tsnumber                =                 72005
(PID.TID 0000.0001) %MON time_secondsf                =   6.4804500000000E+07
(PID.TID 0000.0001) %MON dynstat_eta_max              =   7.0467671788585E+00
(PID.TID 0000.0001) %MON dynstat_eta_min              =  -1.6237144747992E+00
(PID.TID 0000.0001) %MON dynstat_eta_mean             =   1.0875239732089E-02
(PID.TID 0000.0001) %MON dynstat_eta_sd               =   6.3098797781017E-01
(PID.TID 0000.0001) %MON dynstat_eta_del2             =   5.5764692624521E-03
(PID.TID 0000.0001) %MON dynstat_uvel_max             =   1.2700700713062E+00
(PID.TID 0000.0001) %MON dynstat_uvel_min             =  -6.4906902832996E-01
(PID.TID 0000.0001) %MON dynstat_uvel_mean            =  -3.7171604400046E-04
(PID.TID 0000.0001) %MON dynstat_uvel_sd              =   1.3209904428945E-02
(PID.TID 0000.0001) %MON dynstat_uvel_del2            =   1.1612893246513E-04
(PID.TID 0000.0001) %MON dynstat_vvel_max             =   1.0562561774579E+00
(PID.TID 0000.0001) %MON dynstat_vvel_min             =  -1.1056286668101E+00
(PID.TID 0000.0001) %MON dynstat_vvel_mean            =  -3.7307163002007E-04
(PID.TID 0000.0001) %MON dynstat_vvel_sd              =   1.3757026028637E-02
(PID.TID 0000.0001) %MON dynstat_vvel_del2            =   1.6092453201765E-04
(PID.TID 0000.0001) %MON dynstat_wvel_max             =   1.0379463472077E-04
(PID.TID 0000.0001) %MON dynstat_wvel_min             =  -8.1067458372146E-04
(PID.TID 0000.0001) %MON dynstat_wvel_mean            =  -3.4439697463269E-07
(PID.TID 0000.0001) %MON dynstat_wvel_sd              =   1.0496797975509E-05
(PID.TID 0000.0001) %MON dynstat_wvel_del2            =   9.3968057784328E-08
(PID.TID 0000.0001) %MON dynstat_theta_max            =   3.0924850900328E+01
(PID.TID 0000.0001) %MON dynstat_theta_min            =  -3.0145556086653E+00
(PID.TID 0000.0001) %MON dynstat_theta_mean           =   3.9089681324768E+00
(PID.TID 0000.0001) %MON dynstat_theta_sd             =   4.5707254611646E+00
(PID.TID 0000.0001) %MON dynstat_theta_del2           =   2.6525007625207E-03
(PID.TID 0000.0001) %MON dynstat_salt_max             =   4.1375234658955E+01
(PID.TID 0000.0001) %MON dynstat_salt_min             =   1.8518423382312E+01
(PID.TID 0000.0001) %MON dynstat_salt_mean            =   3.4772170445969E+01
(PID.TID 0000.0001) %MON dynstat_salt_sd              =   5.3097397780274E-01
(PID.TID 0000.0001) %MON dynstat_salt_del2            =   8.0726925967563E-04
(PID.TID 0000.0001) %MON dynstat_sst_max              =   3.0924850900328E+01
(PID.TID 0000.0001) %MON dynstat_sst_min              =  -1.8997863743011E+00
(PID.TID 0000.0001) %MON dynstat_sst_mean             =   1.8101093596920E+01
(PID.TID 0000.0001) %MON dynstat_sst_sd               =   9.8015652854461E+00
(PID.TID 0000.0001) %MON dynstat_sst_del2             =   1.5273392341069E-02
(PID.TID 0000.0001) %MON dynstat_sss_max              =   4.1375234658955E+01
(PID.TID 0000.0001) %MON dynstat_sss_min              =   1.8751626139857E+01
(PID.TID 0000.0001) %MON dynstat_sss_mean             =   3.4640030118288E+01
(PID.TID 0000.0001) %MON dynstat_sss_sd               =   1.4580175575220E+00
(PID.TID 0000.0001) %MON dynstat_sss_del2             =   8.0833508382651E-03
(PID.TID 0000.0001) %MON forcing_qnet_max             =   1.3212538870350E+04
(PID.TID 0000.0001) %MON forcing_qnet_min             =  -1.6055161132812E+04
(PID.TID 0000.0001) %MON forcing_qnet_mean            =  -1.7762088701731E+02
(PID.TID 0000.0001) %MON forcing_qnet_sd              =   8.7344488741702E+02
(PID.TID 0000.0001) %MON forcing_qnet_del2            =   3.1828440110418E+01
(PID.TID 0000.0001) %MON forcing_qsw_max              =   0.0000000000000E+00
(PID.TID 0000.0001) %MON forcing_qsw_min              =  -1.0503431429349E+02
(PID.TID 0000.0001) %MON forcing_qsw_mean             =  -2.2102913836303E+01
(PID.TID 0000.0001) %MON forcing_qsw_sd               =   3.0046620044510E+01
(PID.TID 0000.0001) %MON forcing_qsw_del2             =   2.2166270620040E-01
(PID.TID 0000.0001) %MON forcing_empmr_max            =   4.6322304755449E-02
(PID.TID 0000.0001) %MON forcing_empmr_min            =  -5.0774323940277E-01
(PID.TID 0000.0001) %MON forcing_empmr_mean           =  -5.8351229152668E-04
(PID.TID 0000.0001) %MON forcing_empmr_sd             =   1.0815348791374E-02
(PID.TID 0000.0001) %MON forcing_empmr_del2           =   4.2687063841650E-04
(PID.TID 0000.0001) %MON forcing_fu_max               =   5.8840331402973E-01
(PID.TID 0000.0001) %MON forcing_fu_min               =  -4.6988545992096E-01
(PID.TID 0000.0001) %MON forcing_fu_mean              =  -5.4177142928229E-03
(PID.TID 0000.0001) %MON forcing_fu_sd                =   7.6424081140950E-02
(PID.TID 0000.0001) %MON forcing_fu_del2              =   7.7721890566341E-04
(PID.TID 0000.0001) %MON forcing_fv_max               =   3.6908219427590E-01
(PID.TID 0000.0001) %MON forcing_fv_min               =  -4.3019892100787E-01
(PID.TID 0000.0001) %MON forcing_fv_mean              =  -1.3580828669014E-02
(PID.TID 0000.0001) %MON forcing_fv_sd                =   7.3985862244745E-02
(PID.TID 0000.0001) %MON forcing_fv_del2              =   6.5646317879456E-04
(PID.TID 0000.0001) %MON trAdv_CFL_u_max              =   4.0029059605196E-03
(PID.TID 0000.0001) %MON trAdv_CFL_v_max              =   5.8721543695366E-03
(PID.TID 0000.0001) %MON trAdv_CFL_w_max              =   7.5105332211012E-03
(PID.TID 0000.0001) %MON advcfl_uvel_max              =   4.2353872953272E-03
(PID.TID 0000.0001) %MON advcfl_vvel_max              =   3.4469491978695E-03
(PID.TID 0000.0001) %MON advcfl_wvel_max              =   1.7660634414009E-02
(PID.TID 0000.0001) %MON advcfl_W_hf_max              =   7.5105332211012E-03
(PID.TID 0000.0001) %MON pe_b_mean                    =   5.3055988349893E-04
(PID.TID 0000.0001) %MON ke_max                       =   7.7856903985128E-01
(PID.TID 0000.0001) %MON ke_mean                      =   1.6809492847813E-04
(PID.TID 0000.0001) %MON ke_vol                       =   1.3398062180814E+18
(PID.TID 0000.0001) %MON vort_r_min                   =  -3.6574175298728E-06
(PID.TID 0000.0001) %MON vort_r_max                   =   3.5780672399157E-06
(PID.TID 0000.0001) %MON vort_a_mean                  =  -2.0549865324846E-05
(PID.TID 0000.0001) %MON vort_a_sd                    =   7.5259527198311E-05
(PID.TID 0000.0001) %MON vort_p_mean                  =  -2.4783415537687E-05
(PID.TID 0000.0001) %MON vort_p_sd                    =   1.2811950719877E-04
(PID.TID 0000.0001) %MON surfExpan_theta_mean         =  -7.5234522854982E-06
(PID.TID 0000.0001) %MON surfExpan_salt_mean          =   9.5611652497867E-07
(PID.TID 0000.0001) // =======================================================
(PID.TID 0000.0001) // End MONITOR dynamic field statistics
(PID.TID 0000.0001) // =======================================================
 cg2d: Sum(rhs),rhsMax =  -7.09034198372832E+00  1.37978534189474E+02
(PID.TID 0000.0001)      cg2d_init_res =   2.61385155483547E-01
(PID.TID 0000.0001)      cg2d_iters(min,last) =      -1       9
(PID.TID 0000.0001)      cg2d_last_res =   7.04601938308269E-08
(PID.TID 0000.0001) // =======================================================
(PID.TID 0000.0001) // Begin MONITOR dynamic field statistics
(PID.TID 0000.0001) // =======================================================
(PID.TID 0000.0001) %MON time_tsnumber                =                 72006
(PID.TID 0000.0001) %MON time_secondsf                =   6.4805400000000E+07
(PID.TID 0000.0001) %MON dynstat_eta_max              =   6.4642746747395E+00
(PID.TID 0000.0001) %MON dynstat_eta_min              =  -1.6246873726075E+00
(PID.TID 0000.0001) %MON dynstat_eta_mean             =   1.1367890532271E-02
(PID.TID 0000.0001) %MON dynstat_eta_sd               =   6.2682222423417E-01
(PID.TID 0000.0001) %MON dynstat_eta_del2             =   4.7930880088416E-03
(PID.TID 0000.0001) %MON dynstat_uvel_max             =   1.4552056843751E+00
(PID.TID 0000.0001) %MON dynstat_uvel_min             =  -7.2447780348509E-01
(PID.TID 0000.0001) %MON dynstat_uvel_mean            =  -3.3967989350321E-04
(PID.TID 0000.0001) %MON dynstat_uvel_sd              =   1.3437625850451E-02
(PID.TID 0000.0001) %MON dynstat_uvel_del2            =   1.2590990528928E-04
(PID.TID 0000.0001) %MON dynstat_vvel_max             =   1.1844222284806E+00
(PID.TID 0000.0001) %MON dynstat_vvel_min             =  -1.2636838771152E+00
(PID.TID 0000.0001) %MON dynstat_vvel_mean            =  -3.7359151672723E-04
(PID.TID 0000.0001) %MON dynstat_vvel_sd              =   1.3957324968118E-02
(PID.TID 0000.0001) %MON dynstat_vvel_del2            =   1.7439294760328E-04
(PID.TID 0000.0001) %MON dynstat_wvel_max             =   1.0375263408617E-04
(PID.TID 0000.0001) %MON dynstat_wvel_min             =  -6.9154613907445E-04
(PID.TID 0000.0001) %MON dynstat_wvel_mean            =  -3.9370650966463E-07
(PID.TID 0000.0001) %MON dynstat_wvel_sd              =   1.0268393693925E-05
(PID.TID 0000.0001) %MON dynstat_wvel_del2            =   9.2418733959139E-08
(PID.TID 0000.0001) %MON dynstat_theta_max            =   3.0924611844157E+01
(PID.TID 0000.0001) %MON dynstat_theta_min            =  -3.0136657723463E+00
(PID.TID 0000.0001) %MON dynstat_theta_mean           =   3.9089806160035E+00
(PID.TID 0000.0001) %MON dynstat_theta_sd             =   4.5707734147693E+00
(PID.TID 0000.0001) %MON dynstat_theta_del2           =   2.6516966387050E-03
(PID.TID 0000.0001) %MON dynstat_salt_max             =   4.1374469149056E+01
(PID.TID 0000.0001) %MON dynstat_salt_min             =   1.8518432934867E+01
(PID.TID 0000.0001) %MON dynstat_salt_mean            =   3.4772163014735E+01
(PID.TID 0000.0001) %MON dynstat_salt_sd              =   5.3098836592204E-01
(PID.TID 0000.0001) %MON dynstat_salt_del2            =   8.0961900465586E-04
(PID.TID 0000.0001) %MON dynstat_sst_max              =   3.0924611844157E+01
(PID.TID 0000.0001) %MON dynstat_sst_min              =  -1.8997475496535E+00
(PID.TID 0000.0001) %MON dynstat_sst_mean             =   1.8101806579973E+01
(PID.TID 0000.0001) %MON dynstat_sst_sd               =   9.8019938509040E+00
(PID.TID 0000.0001) %MON dynstat_sst_del2             =   1.5252482811247E-02
(PID.TID 0000.0001) %MON dynstat_sss_max              =   4.1374469149056E+01
(PID.TID 0000.0001) %MON dynstat_sss_min              =   1.8751426173686E+01
(PID.TID 0000.0001) %MON dynstat_sss_mean             =   3.4639499420637E+01
(PID.TID 0000.0001) %MON dynstat_sss_sd               =   1.4583505901529E+00
(PID.TID 0000.0001) %MON dynstat_sss_del2             =   8.1201793082183E-03
(PID.TID 0000.0001) %MON forcing_qnet_max             =   1.4188278320312E+04
(PID.TID 0000.0001) %MON forcing_qnet_min             =  -3.3352460937500E+04
(PID.TID 0000.0001) %MON forcing_qnet_mean            =  -1.6204407743185E+02
(PID.TID 0000.0001) %MON forcing_qnet_sd              =   8.6081155542782E+02
(PID.TID 0000.0001) %MON forcing_qnet_del2            =   3.6094430596652E+01
(PID.TID 0000.0001) %MON forcing_qsw_max              =   0.0000000000000E+00
(PID.TID 0000.0001) %MON forcing_qsw_min              =  -1.0460939561644E+02
(PID.TID 0000.0001) %MON forcing_qsw_mean             =  -2.2142289586752E+01
(PID.TID 0000.0001) %MON forcing_qsw_sd               =   3.0064492340696E+01
(PID.TID 0000.0001) %MON forcing_qsw_del2             =   2.2253605542270E-01
(PID.TID 0000.0001) %MON forcing_empmr_max            =   4.6447187662125E-02
(PID.TID 0000.0001) %MON forcing_empmr_min            =  -4.3683511018753E-01
(PID.TID 0000.0001) %MON forcing_empmr_mean           =  -5.6654842020896E-04
(PID.TID 0000.0001) %MON forcing_empmr_sd             =   9.9559140563341E-03
(PID.TID 0000.0001) %MON forcing_empmr_del2           =   3.9574342268379E-04
(PID.TID 0000.0001) %MON forcing_fu_max               =   6.1035783791983E-01
(PID.TID 0000.0001) %MON forcing_fu_min               =  -4.4471621268653E-01
(PID.TID 0000.0001) %MON forcing_fu_mean              =  -5.3421381065341E-03
(PID.TID 0000.0001) %MON forcing_fu_sd                =   7.6366299566864E-02
(PID.TID 0000.0001) %MON forcing_fu_del2              =   7.7713306646632E-04
(PID.TID 0000.0001) %MON forcing_fv_max               =   3.6919562112088E-01
(PID.TID 0000.0001) %MON forcing_fv_min               =  -3.9398595507406E-01
(PID.TID 0000.0001) %MON forcing_fv_mean              =  -1.3482373682676E-02
(PID.TID 0000.0001) %MON forcing_fv_sd                =   7.4147740981544E-02
(PID.TID 0000.0001) %MON forcing_fv_del2              =   6.5642569028757E-04
(PID.TID 0000.0001) %MON trAdv_CFL_u_max              =   4.6094226006433E-03
(PID.TID 0000.0001) %MON trAdv_CFL_v_max              =   6.7167873193425E-03
(PID.TID 0000.0001) %MON trAdv_CFL_w_max              =   6.4856399675588E-03
(PID.TID 0000.0001) %MON advcfl_uvel_max              =   4.8527713603642E-03
(PID.TID 0000.0001) %MON advcfl_vvel_max              =   3.8652017735184E-03
(PID.TID 0000.0001) %MON advcfl_wvel_max              =   1.5194264702175E-02
(PID.TID 0000.0001) %MON advcfl_W_hf_max              =   6.4856399675588E-03
(PID.TID 0000.0001) %MON pe_b_mean                    =   5.2359414405894E-04
(PID.TID 0000.0001) %MON ke_max                       =   1.0180495195727E+00
(PID.TID 0000.0001) %MON ke_mean                      =   1.7344840196801E-04
(PID.TID 0000.0001) %MON ke_vol                       =   1.3398064027183E+18
(PID.TID 0000.0001) %MON vort_r_min                   =  -4.1710043119660E-06
(PID.TID 0000.0001) %MON vort_r_max                   =   3.9716213426733E-06
(PID.TID 0000.0001) %MON vort_a_mean                  =  -2.0549865324846E-05
(PID.TID 0000.0001) %MON vort_a_sd                    =   7.5259528117224E-05
(PID.TID 0000.0001) %MON vort_p_mean                  =  -2.4783410801628E-05
(PID.TID 0000.0001) %MON vort_p_sd                    =   1.2811944957904E-04
(PID.TID 0000.0001) %MON surfExpan_theta_mean         =  -7.7514601781588E-06
(PID.TID 0000.0001) %MON surfExpan_salt_mean          =   1.0844073276267E-06
(PID.TID 0000.0001) // =======================================================
(PID.TID 0000.0001) // End MONITOR dynamic field statistics
(PID.TID 0000.0001) // =======================================================
 cg2d: Sum(rhs),rhsMax =  -8.20431279587439E+00  1.24273857610300E+02
(PID.TID 0000.0001)      cg2d_init_res =   2.81569968206716E-01
(PID.TID 0000.0001)      cg2d_iters(min,last) =      -1       9
(PID.TID 0000.0001)      cg2d_last_res =   8.17822329814757E-08
(PID.TID 0000.0001) // =======================================================
(PID.TID 0000.0001) // Begin MONITOR dynamic field statistics
(PID.TID 0000.0001) // =======================================================
(PID.TID 0000.0001) %MON time_tsnumber                =                 72007
(PID.TID 0000.0001) %MON time_secondsf                =   6.4806300000000E+07
(PID.TID 0000.0001) %MON dynstat_eta_max              =   5.8257089030633E+00
(PID.TID 0000.0001) %MON dynstat_eta_min              =  -2.3303130339314E+00
(PID.TID 0000.0001) %MON dynstat_eta_mean             =   1.1847403027524E-02
(PID.TID 0000.0001) %MON dynstat_eta_sd               =   6.2309410916401E-01
(PID.TID 0000.0001) %MON dynstat_eta_del2             =   4.0817389721306E-03
(PID.TID 0000.0001) %MON dynstat_uvel_max             =   1.6133073218635E+00
(PID.TID 0000.0001) %MON dynstat_uvel_min             =  -7.9058136129862E-01
(PID.TID 0000.0001) %MON dynstat_uvel_mean            =  -3.0740701094206E-04
(PID.TID 0000.0001) %MON dynstat_uvel_sd              =   1.3629088897530E-02
(PID.TID 0000.0001) %MON dynstat_uvel_del2            =   1.3309333141969E-04
(PID.TID 0000.0001) %MON dynstat_vvel_max             =   1.2820370779681E+00
(PID.TID 0000.0001) %MON dynstat_vvel_min             =  -1.3949709680948E+00
(PID.TID 0000.0001) %MON dynstat_vvel_mean            =  -3.7673676457664E-04
(PID.TID 0000.0001) %MON dynstat_vvel_sd              =   1.4114244617533E-02
(PID.TID 0000.0001) %MON dynstat_vvel_del2            =   1.8307101120785E-04
(PID.TID 0000.0001) %MON dynstat_wvel_max             =   1.0369120823008E-04
(PID.TID 0000.0001) %MON dynstat_wvel_min             =  -5.3448812433518E-04
(PID.TID 0000.0001) %MON dynstat_wvel_mean            =  -4.3095295641151E-07
(PID.TID 0000.0001) %MON dynstat_wvel_sd              =   9.8226013425937E-06
(PID.TID 0000.0001) %MON dynstat_wvel_del2            =   8.9825343689272E-08
(PID.TID 0000.0001) %MON dynstat_theta_max            =   3.0924369849900E+01
(PID.TID 0000.0001) %MON dynstat_theta_min            =  -3.0128712567260E+00
(PID.TID 0000.0001) %MON dynstat_theta_mean           =   3.9089918669932E+00
(PID.TID 0000.0001) %MON dynstat_theta_sd             =   4.5708178752881E+00
(PID.TID 0000.0001) %MON dynstat_theta_del2           =   2.6511933947457E-03
(PID.TID 0000.0001) %MON dynstat_salt_max             =   4.1373640191005E+01
(PID.TID 0000.0001) %MON dynstat_salt_min             =   1.8518442472149E+01
(PID.TID 0000.0001) %MON dynstat_salt_mean            =   3.4772155674802E+01
(PID.TID 0000.0001) %MON dynstat_salt_sd              =   5.3100331122331E-01
(PID.TID 0000.0001) %MON dynstat_salt_del2            =   8.1247155248677E-04
(PID.TID 0000.0001) %MON dynstat_sst_max              =   3.0924369849900E+01
(PID.TID 0000.0001) %MON dynstat_sst_min              =  -1.8997092001387E+00
(PID.TID 0000.0001) %MON dynstat_sst_mean             =   1.8102466580114E+01
(PID.TID 0000.0001) %MON dynstat_sst_sd               =   9.8024097481953E+00
(PID.TID 0000.0001) %MON dynstat_sst_del2             =   1.5239685622758E-02
(PID.TID 0000.0001) %MON dynstat_sss_max              =   4.1373640191005E+01
(PID.TID 0000.0001) %MON dynstat_sss_min              =   1.8751390401085E+01
(PID.TID 0000.0001) %MON dynstat_sss_mean             =   3.4638981174019E+01
(PID.TID 0000.0001) %MON dynstat_sss_sd               =   1.4587041944616E+00
(PID.TID 0000.0001) %MON dynstat_sss_del2             =   8.1647781368888E-03
(PID.TID 0000.0001) %MON forcing_qnet_max             =   4.3841921875000E+04
(PID.TID 0000.0001) %MON forcing_qnet_min             =  -9.6747919921875E+03
(PID.TID 0000.0001) %MON forcing_qnet_mean            =  -1.4296161647232E+02
(PID.TID 0000.0001) %MON forcing_qnet_sd              =   9.7005963713223E+02
(PID.TID 0000.0001) %MON forcing_qnet_del2            =   3.8798493898105E+01
(PID.TID 0000.0001) %MON forcing_qsw_max              =   0.0000000000000E+00
(PID.TID 0000.0001) %MON forcing_qsw_min              =  -1.0515437009096E+02
(PID.TID 0000.0001) %MON forcing_qsw_mean             =  -2.2105238315837E+01
(PID.TID 0000.0001) %MON forcing_qsw_sd               =   3.0033356167750E+01
(PID.TID 0000.0001) %MON forcing_qsw_del2             =   2.2316508160701E-01
(PID.TID 0000.0001) %MON forcing_empmr_max            =   4.4964373111725E-02
(PID.TID 0000.0001) %MON forcing_empmr_min            =  -3.7805065512657E-01
(PID.TID 0000.0001) %MON forcing_empmr_mean           =  -5.5143936954132E-04
(PID.TID 0000.0001) %MON forcing_empmr_sd             =   9.2713139242333E-03
(PID.TID 0000.0001) %MON forcing_empmr_del2           =   3.7099828935078E-04
(PID.TID 0000.0001) %MON forcing_fu_max               =   6.3676279047824E-01
(PID.TID 0000.0001) %MON forcing_fu_min               =  -4.1475240906438E-01
(PID.TID 0000.0001) %MON forcing_fu_mean              =  -5.3222709050218E-03
(PID.TID 0000.0001) %MON forcing_fu_sd                =   7.6412119194083E-02
(PID.TID 0000.0001) %MON forcing_fu_del2              =   7.7810673551187E-04
(PID.TID 0000.0001) %MON forcing_fv_max               =   3.6444236985121E-01
(PID.TID 0000.0001) %MON forcing_fv_min               =  -3.6230837617710E-01
(PID.TID 0000.0001) %MON forcing_fv_mean              =  -1.3396845998597E-02
(PID.TID 0000.0001) %MON forcing_fv_sd                =   7.4286020701050E-02
(PID.TID 0000.0001) %MON forcing_fv_del2              =   6.5613390970474E-04
(PID.TID 0000.0001) %MON trAdv_CFL_u_max              =   5.1369216557983E-03
(PID.TID 0000.0001) %MON trAdv_CFL_v_max              =   7.4261683482049E-03
(PID.TID 0000.0001) %MON trAdv_CFL_w_max              =   6.8561652537196E-03
(PID.TID 0000.0001) %MON advcfl_uvel_max              =   5.3800034256785E-03
(PID.TID 0000.0001) %MON advcfl_vvel_max              =   4.1837546343884E-03
(PID.TID 0000.0001) %MON advcfl_wvel_max              =   1.3149588004402E-02
(PID.TID 0000.0001) %MON advcfl_W_hf_max              =   6.8561652537196E-03
(PID.TID 0000.0001) %MON pe_b_mean                    =   5.1740116579884E-04
(PID.TID 0000.0001) %MON ke_max                       =   1.2419397688111E+00
(PID.TID 0000.0001) %MON ke_mean                      =   1.7786502357161E-04
(PID.TID 0000.0001) %MON ke_vol                       =   1.3398065819874E+18
(PID.TID 0000.0001) %MON vort_r_min                   =  -4.6043397627844E-06
(PID.TID 0000.0001) %MON vort_r_max                   =   4.2478217404947E-06
(PID.TID 0000.0001) %MON vort_a_mean                  =  -2.0549865324846E-05
(PID.TID 0000.0001) %MON vort_a_sd                    =   7.5259528338042E-05
(PID.TID 0000.0001) %MON vort_p_mean                  =  -2.4783406089212E-05
(PID.TID 0000.0001) %MON vort_p_sd                    =   1.2811939338403E-04
(PID.TID 0000.0001) %MON surfExpan_theta_mean         =  -7.8724645206884E-06
(PID.TID 0000.0001) %MON surfExpan_salt_mean          =   1.2064736154416E-06
(PID.TID 0000.0001) // =======================================================
(PID.TID 0000.0001) // End MONITOR dynamic field statistics
(PID.TID 0000.0001) // =======================================================
 Computing Diagnostic #     81  oceTAUX      Counter:       1   Parms: UU      U1      
           Vector  Mate for  oceTAUX      Diagnostic #     82  oceTAUY  exists 
 Computing Diagnostic #     82  oceTAUY      Counter:       1   Parms: VV      U1      
           Vector  Mate for  oceTAUY      Diagnostic #     81  oceTAUX  exists 
 Computing Diagnostic #     85  oceFWflx     Counter:       1   Parms: SM      U1      
 Computing Diagnostic #     86  oceSflux     Counter:       1   Parms: SM      U1      
 Computing Diagnostic #     87  oceQnet      Counter:       1   Parms: SM      U1      
 Computing Diagnostic #     88  oceQsw       Counter:       1   Parms: SM      U1      
 Computing Diagnostic #     27  SALT         Counter:       1   Parms: SMR     MR      
 Computing Diagnostic #     26  THETA        Counter:       1   Parms: SMR     MR      
 Computing Diagnostic #     45  UVELMASS     Counter:       1   Parms: UUr     MR      
           Vector  Mate for  UVELMASS     Diagnostic #     46  VVELMASS exists 
 Computing Diagnostic #     46  VVELMASS     Counter:       1   Parms: VVr     MR      
           Vector  Mate for  VVELMASS     Diagnostic #     45  UVELMASS exists 
 Computing Diagnostic #     83  atmPload     Counter:       1   Parms: SM      U1      
 cg2d: Sum(rhs),rhsMax =  -9.66263197127105E+00  1.09671389772346E+02
(PID.TID 0000.0001)      cg2d_init_res =   3.07921598336626E-01
(PID.TID 0000.0001)      cg2d_iters(min,last) =      -1       9
(PID.TID 0000.0001)      cg2d_last_res =   9.27895898794469E-08
(PID.TID 0000.0001) // =======================================================
(PID.TID 0000.0001) // Begin MONITOR dynamic field statistics
(PID.TID 0000.0001) // =======================================================
(PID.TID 0000.0001) %MON time_tsnumber                =                 72008
(PID.TID 0000.0001) %MON time_secondsf                =   6.4807200000000E+07
(PID.TID 0000.0001) %MON dynstat_eta_max              =   5.1450298176839E+00
(PID.TID 0000.0001) %MON dynstat_eta_min              =  -2.6957300598154E+00
(PID.TID 0000.0001) %MON dynstat_eta_mean             =   1.2313739413419E-02
(PID.TID 0000.0001) %MON dynstat_eta_sd               =   6.1978404547006E-01
(PID.TID 0000.0001) %MON dynstat_eta_del2             =   3.4823618366673E-03
(PID.TID 0000.0001) %MON dynstat_uvel_max             =   1.7439982293592E+00
(PID.TID 0000.0001) %MON dynstat_uvel_min             =  -8.4695525356592E-01
(PID.TID 0000.0001) %MON dynstat_uvel_mean            =  -2.7579189928335E-04
(PID.TID 0000.0001) %MON dynstat_uvel_sd              =   1.3795259645187E-02
(PID.TID 0000.0001) %MON dynstat_uvel_del2            =   1.3807441310845E-04
(PID.TID 0000.0001) %MON dynstat_vvel_max             =   1.3489777130603E+00
(PID.TID 0000.0001) %MON dynstat_vvel_min             =  -1.4978159673088E+00
(PID.TID 0000.0001) %MON dynstat_vvel_mean            =  -3.8214915011396E-04
(PID.TID 0000.0001) %MON dynstat_vvel_sd              =   1.4228769467354E-02
(PID.TID 0000.0001) %MON dynstat_vvel_del2            =   1.8743673359264E-04
(PID.TID 0000.0001) %MON dynstat_wvel_max             =   1.0382350118105E-04
(PID.TID 0000.0001) %MON dynstat_wvel_min             =  -5.5028756966480E-04
(PID.TID 0000.0001) %MON dynstat_wvel_mean            =  -4.5421533519785E-07
(PID.TID 0000.0001) %MON dynstat_wvel_sd              =   9.3343677915684E-06
(PID.TID 0000.0001) %MON dynstat_wvel_del2            =   8.6731194248682E-08
(PID.TID 0000.0001) %MON dynstat_theta_max            =   3.0924128061077E+01
(PID.TID 0000.0001) %MON dynstat_theta_min            =  -3.0122108310553E+00
(PID.TID 0000.0001) %MON dynstat_theta_mean           =   3.9090028950862E+00
(PID.TID 0000.0001) %MON dynstat_theta_sd             =   4.5708606729340E+00
(PID.TID 0000.0001) %MON dynstat_theta_del2           =   2.6507065570968E-03
(PID.TID 0000.0001) %MON dynstat_salt_max             =   4.1372762739597E+01
(PID.TID 0000.0001) %MON dynstat_salt_min             =   1.8518452017041E+01
(PID.TID 0000.0001) %MON dynstat_salt_mean            =   3.4772148624272E+01
(PID.TID 0000.0001) %MON dynstat_salt_sd              =   5.3101900530834E-01
(PID.TID 0000.0001) %MON dynstat_salt_del2            =   8.1569060574352E-04
(PID.TID 0000.0001) %MON dynstat_sst_max              =   3.0924128061077E+01
(PID.TID 0000.0001) %MON dynstat_sst_min              =  -1.8996726629572E+00
(PID.TID 0000.0001) %MON dynstat_sst_mean             =   1.8103100892378E+01
(PID.TID 0000.0001) %MON dynstat_sst_sd               =   9.8027938149426E+00
(PID.TID 0000.0001) %MON dynstat_sst_del2             =   1.5227126403502E-02
(PID.TID 0000.0001) %MON dynstat_sss_max              =   4.1372762739597E+01
(PID.TID 0000.0001) %MON dynstat_sss_min              =   1.8751384501592E+01
(PID.TID 0000.0001) %MON dynstat_sss_mean             =   3.4638479537261E+01
(PID.TID 0000.0001) %MON dynstat_sss_sd               =   1.4590758596170E+00
(PID.TID 0000.0001) %MON dynstat_sss_del2             =   8.2150536594897E-03
(PID.TID 0000.0001) %MON forcing_qnet_max             =   1.4299329101562E+04
(PID.TID 0000.0001) %MON forcing_qnet_min             =  -1.2334704101562E+04
(PID.TID 0000.0001) %MON forcing_qnet_mean            =  -1.4083987313550E+02
(PID.TID 0000.0001) %MON forcing_qnet_sd              =   7.0084598600104E+02
(PID.TID 0000.0001) %MON forcing_qnet_del2            =   2.2638416924681E+01
(PID.TID 0000.0001) %MON forcing_qsw_max              =   0.0000000000000E+00
(PID.TID 0000.0001) %MON forcing_qsw_min              =  -1.0525418687767E+02
(PID.TID 0000.0001) %MON forcing_qsw_mean             =  -2.1997367374558E+01
(PID.TID 0000.0001) %MON forcing_qsw_sd               =   2.9949362951751E+01
(PID.TID 0000.0001) %MON forcing_qsw_del2             =   2.2353152285975E-01
(PID.TID 0000.0001) %MON forcing_empmr_max            =   4.1822850704193E-02
(PID.TID 0000.0001) %MON forcing_empmr_min            =  -3.2979744672775E-01
(PID.TID 0000.0001) %MON forcing_empmr_mean           =  -5.3628684377970E-04
(PID.TID 0000.0001) %MON forcing_empmr_sd             =   8.7274007203011E-03
(PID.TID 0000.0001) %MON forcing_empmr_del2           =   3.5097529070062E-04
(PID.TID 0000.0001) %MON forcing_fu_max               =   6.5954022942184E-01
(PID.TID 0000.0001) %MON forcing_fu_min               =  -3.9704330041476E-01
(PID.TID 0000.0001) %MON forcing_fu_mean              =  -5.3441068246930E-03
(PID.TID 0000.0001) %MON forcing_fu_sd                =   7.6425950715296E-02
(PID.TID 0000.0001) %MON forcing_fu_del2              =   7.7802248720217E-04
(PID.TID 0000.0001) %MON forcing_fv_max               =   3.5895721557346E-01
(PID.TID 0000.0001) %MON forcing_fv_min               =  -3.3699663685812E-01
(PID.TID 0000.0001) %MON forcing_fv_mean              =  -1.3290235426857E-02
(PID.TID 0000.0001) %MON forcing_fv_sd                =   7.4445936653065E-02
(PID.TID 0000.0001) %MON forcing_fv_del2              =   6.5660330343405E-04
(PID.TID 0000.0001) %MON trAdv_CFL_u_max              =   5.5820439298594E-03
(PID.TID 0000.0001) %MON trAdv_CFL_v_max              =   7.9940804720864E-03
(PID.TID 0000.0001) %MON trAdv_CFL_w_max              =   7.0568305041553E-03
(PID.TID 0000.0001) %MON advcfl_uvel_max              =   5.8158271032279E-03
(PID.TID 0000.0001) %MON advcfl_vvel_max              =   4.4886090723738E-03
(PID.TID 0000.0001) %MON advcfl_wvel_max              =   1.1471215538357E-02
(PID.TID 0000.0001) %MON advcfl_W_hf_max              =   7.0568305041553E-03
(PID.TID 0000.0001) %MON pe_b_mean                    =   5.1193550996947E-04
(PID.TID 0000.0001) %MON ke_max                       =   1.4347153783246E+00
(PID.TID 0000.0001) %MON ke_mean                      =   1.8145861547452E-04
(PID.TID 0000.0001) %MON ke_vol                       =   1.3398067564756E+18
(PID.TID 0000.0001) %MON vort_r_min                   =  -4.9437972354594E-06
(PID.TID 0000.0001) %MON vort_r_max                   =   4.4078301626844E-06
(PID.TID 0000.0001) %MON vort_a_mean                  =  -2.0549865324846E-05
(PID.TID 0000.0001) %MON vort_a_sd                    =   7.5259527944722E-05
(PID.TID 0000.0001) %MON vort_p_mean                  =  -2.4783401449204E-05
(PID.TID 0000.0001) %MON vort_p_sd                    =   1.2811933987465E-04
(PID.TID 0000.0001) %MON surfExpan_theta_mean         =  -7.9061196551759E-06
(PID.TID 0000.0001) %MON surfExpan_salt_mean          =   1.3136644475470E-06
(PID.TID 0000.0001) // =======================================================
(PID.TID 0000.0001) // End MONITOR dynamic field statistics
(PID.TID 0000.0001) // =======================================================
 cg2d: Sum(rhs),rhsMax =  -1.16302128737211E+01  9.44701566755065E+01
(PID.TID 0000.0001)      cg2d_init_res =   3.47326908466174E-01
(PID.TID 0000.0001)      cg2d_iters(min,last) =      -1      10
(PID.TID 0000.0001)      cg2d_last_res =   2.21549156716857E-08
(PID.TID 0000.0001) // =======================================================
(PID.TID 0000.0001) // Begin MONITOR dynamic field statistics
(PID.TID 0000.0001) // =======================================================
(PID.TID 0000.0001) %MON time_tsnumber                =                 72009
(PID.TID 0000.0001) %MON time_secondsf                =   6.4808100000000E+07
(PID.TID 0000.0001) %MON dynstat_eta_max              =   4.4361423421638E+00
(PID.TID 0000.0001) %MON dynstat_eta_min              =  -2.6956269295058E+00
(PID.TID 0000.0001) %MON dynstat_eta_mean             =   1.2766841679437E-02
(PID.TID 0000.0001) %MON dynstat_eta_sd               =   6.1689199839669E-01
(PID.TID 0000.0001) %MON dynstat_eta_del2             =   3.0161604255571E-03
(PID.TID 0000.0001) %MON dynstat_uvel_max             =   1.8476018150541E+00
(PID.TID 0000.0001) %MON dynstat_uvel_min             =  -8.9333751786269E-01
(PID.TID 0000.0001) %MON dynstat_uvel_mean            =  -2.4543124665076E-04
(PID.TID 0000.0001) %MON dynstat_uvel_sd              =   1.3943499913690E-02
(PID.TID 0000.0001) %MON dynstat_uvel_del2            =   1.4129187942641E-04
(PID.TID 0000.0001) %MON dynstat_vvel_max             =   1.3855575657473E+00
(PID.TID 0000.0001) %MON dynstat_vvel_min             =  -1.5711815339340E+00
(PID.TID 0000.0001) %MON dynstat_vvel_mean            =  -3.8929898200690E-04
(PID.TID 0000.0001) %MON dynstat_vvel_sd              =   1.4301520323409E-02
(PID.TID 0000.0001) %MON dynstat_vvel_del2            =   1.8806150355046E-04
(PID.TID 0000.0001) %MON dynstat_wvel_max             =   1.0399301006153E-04
(PID.TID 0000.0001) %MON dynstat_wvel_min             =  -5.5480264687618E-04
(PID.TID 0000.0001) %MON dynstat_wvel_mean            =  -4.6487814405852E-07
(PID.TID 0000.0001) %MON dynstat_wvel_sd              =   8.9383759691152E-06
(PID.TID 0000.0001) %MON dynstat_wvel_del2            =   8.3761463617574E-08
(PID.TID 0000.0001) %MON dynstat_theta_max            =   3.0923896557029E+01
(PID.TID 0000.0001) %MON dynstat_theta_min            =  -3.0116907067067E+00
(PID.TID 0000.0001) %MON dynstat_theta_mean           =   3.9090133500589E+00
(PID.TID 0000.0001) %MON dynstat_theta_sd             =   4.5709019890312E+00
(PID.TID 0000.0001) %MON dynstat_theta_del2           =   2.6502563522442E-03
(PID.TID 0000.0001) %MON dynstat_salt_max             =   4.1371845743253E+01
(PID.TID 0000.0001) %MON dynstat_salt_min             =   1.8518461591922E+01
(PID.TID 0000.0001) %MON dynstat_salt_mean            =   3.4772141725912E+01
(PID.TID 0000.0001) %MON dynstat_salt_sd              =   5.3103540513485E-01
(PID.TID 0000.0001) %MON dynstat_salt_del2            =   8.1923450430023E-04
(PID.TID 0000.0001) %MON dynstat_sst_max              =   3.0923896557029E+01
(PID.TID 0000.0001) %MON dynstat_sst_min              =  -1.8996381032983E+00
(PID.TID 0000.0001) %MON dynstat_sst_mean             =   1.8103686589596E+01
(PID.TID 0000.0001) %MON dynstat_sst_sd               =   9.8031926272627E+00
(PID.TID 0000.0001) %MON dynstat_sst_del2             =   1.5215542974342E-02
(PID.TID 0000.0001) %MON dynstat_sss_max              =   4.1371845743253E+01
(PID.TID 0000.0001) %MON dynstat_sss_min              =   1.8751384065394E+01
(PID.TID 0000.0001) %MON dynstat_sss_mean             =   3.4637985910539E+01
(PID.TID 0000.0001) %MON dynstat_sss_sd               =   1.4594660082419E+00
(PID.TID 0000.0001) %MON dynstat_sss_del2             =   8.2703163192740E-03
(PID.TID 0000.0001) %MON forcing_qnet_max             =   1.4907752929688E+04
(PID.TID 0000.0001) %MON forcing_qnet_min             =  -1.1731864257812E+04
(PID.TID 0000.0001) %MON forcing_qnet_mean            =  -1.3241303882172E+02
(PID.TID 0000.0001) %MON forcing_qnet_sd              =   6.5204420532244E+02
(PID.TID 0000.0001) %MON forcing_qnet_del2            =   2.0363105766531E+01
(PID.TID 0000.0001) %MON forcing_qsw_max              =   0.0000000000000E+00
(PID.TID 0000.0001) %MON forcing_qsw_min              =  -1.0739313665688E+02
(PID.TID 0000.0001) %MON forcing_qsw_mean             =  -2.2577970163754E+01
(PID.TID 0000.0001) %MON forcing_qsw_sd               =   3.0610447123605E+01
(PID.TID 0000.0001) %MON forcing_qsw_del2             =   2.2973313266061E-01
(PID.TID 0000.0001) %MON forcing_empmr_max            =   3.6605279892683E-02
(PID.TID 0000.0001) %MON forcing_empmr_min            =  -2.9093036055565E-01
(PID.TID 0000.0001) %MON forcing_empmr_mean           =  -5.2106760592080E-04
(PID.TID 0000.0001) %MON forcing_empmr_sd             =   8.2920661394372E-03
(PID.TID 0000.0001) %MON forcing_empmr_del2           =   3.3456526866679E-04
(PID.TID 0000.0001) %MON forcing_fu_max               =   6.8082479506222E-01
(PID.TID 0000.0001) %MON forcing_fu_min               =  -4.2471731443100E-01
(PID.TID 0000.0001) %MON forcing_fu_mean              =  -5.3566705574949E-03
(PID.TID 0000.0001) %MON forcing_fu_sd                =   7.6589857278613E-02
(PID.TID 0000.0001) %MON forcing_fu_del2              =   7.8097214305171E-04
(PID.TID 0000.0001) %MON forcing_fv_max               =   3.5524746791379E-01
(PID.TID 0000.0001) %MON forcing_fv_min               =  -3.2666660214743E-01
(PID.TID 0000.0001) %MON forcing_fv_mean              =  -1.3120811642021E-02
(PID.TID 0000.0001) %MON forcing_fv_sd                =   7.4655567469947E-02
(PID.TID 0000.0001) %MON forcing_fv_del2              =   6.5881999518346E-04
(PID.TID 0000.0001) %MON trAdv_CFL_u_max              =   5.9434381000268E-03
(PID.TID 0000.0001) %MON trAdv_CFL_v_max              =   8.4159573034888E-03
(PID.TID 0000.0001) %MON trAdv_CFL_w_max              =   7.1138827425574E-03
(PID.TID 0000.0001) %MON advcfl_uvel_max              =   6.1613208838593E-03
(PID.TID 0000.0001) %MON advcfl_vvel_max              =   4.7084687581705E-03
(PID.TID 0000.0001) %MON advcfl_wvel_max              =   1.0119316888892E-02
(PID.TID 0000.0001) %MON advcfl_W_hf_max              =   7.1138827425574E-03
(PID.TID 0000.0001) %MON pe_b_mean                    =   5.0718600738088E-04
(PID.TID 0000.0001) %MON ke_max                       =   1.5840889168596E+00
(PID.TID 0000.0001) %MON ke_mean                      =   1.8430641804547E-04
(PID.TID 0000.0001) %MON ke_vol                       =   1.3398069261692E+18
(PID.TID 0000.0001) %MON vort_r_min                   =  -5.1859528095594E-06
(PID.TID 0000.0001) %MON vort_r_max                   =   4.4547433838162E-06
(PID.TID 0000.0001) %MON vort_a_mean                  =  -2.0549865324846E-05
(PID.TID 0000.0001) %MON vort_a_sd                    =   7.5259527048455E-05
(PID.TID 0000.0001) %MON vort_p_mean                  =  -2.4783396924510E-05
(PID.TID 0000.0001) %MON vort_p_sd                    =   1.2811929050696E-04
(PID.TID 0000.0001) %MON surfExpan_theta_mean         =  -7.8947049894403E-06
(PID.TID 0000.0001) %MON surfExpan_salt_mean          =   1.4038227885432E-06
(PID.TID 0000.0001) // =======================================================
(PID.TID 0000.0001) // End MONITOR dynamic field statistics
(PID.TID 0000.0001) // =======================================================
 cg2d: Sum(rhs),rhsMax =  -1.43969929107173E+01  7.89614794499219E+01
(PID.TID 0000.0001)      cg2d_init_res =   4.09058984130736E-01
(PID.TID 0000.0001)      cg2d_iters(min,last) =      -1      10
(PID.TID 0000.0001)      cg2d_last_res =   2.76231834100792E-08
(PID.TID 0000.0001) // =======================================================
(PID.TID 0000.0001) // Begin MONITOR dynamic field statistics
(PID.TID 0000.0001) // =======================================================
(PID.TID 0000.0001) %MON time_tsnumber                =                 72010
(PID.TID 0000.0001) %MON time_secondsf                =   6.4809000000000E+07
(PID.TID 0000.0001) %MON dynstat_eta_max              =   3.7126058109133E+00
(PID.TID 0000.0001) %MON dynstat_eta_min              =  -2.3912848029677E+00
(PID.TID 0000.0001) %MON dynstat_eta_mean             =   1.3209556624188E-02
(PID.TID 0000.0001) %MON dynstat_eta_sd               =   6.1446943452249E-01
(PID.TID 0000.0001) %MON dynstat_eta_del2             =   2.6893084437868E-03
(PID.TID 0000.0001) %MON dynstat_uvel_max             =   1.9249210340718E+00
(PID.TID 0000.0001) %MON dynstat_uvel_min             =  -9.2961134544867E-01
(PID.TID 0000.0001) %MON dynstat_uvel_mean            =  -2.1658678877180E-04
(PID.TID 0000.0001) %MON dynstat_uvel_sd              =   1.4072522932911E-02
(PID.TID 0000.0001) %MON dynstat_uvel_del2            =   1.4307990003908E-04
(PID.TID 0000.0001) %MON dynstat_vvel_max             =   1.3925480822238E+00
(PID.TID 0000.0001) %MON dynstat_vvel_min             =  -1.6146620363438E+00
(PID.TID 0000.0001) %MON dynstat_vvel_mean            =  -3.9748937415972E-04
(PID.TID 0000.0001) %MON dynstat_vvel_sd              =   1.4333061887859E-02
(PID.TID 0000.0001) %MON dynstat_vvel_del2            =   1.8554362911969E-04
(PID.TID 0000.0001) %MON dynstat_wvel_max             =   1.0416346708696E-04
(PID.TID 0000.0001) %MON dynstat_wvel_min             =  -5.5019147272935E-04
(PID.TID 0000.0001) %MON dynstat_wvel_mean            =  -4.6648897623304E-07
(PID.TID 0000.0001) %MON dynstat_wvel_sd              =   8.6985548888745E-06
(PID.TID 0000.0001) %MON dynstat_wvel_del2            =   8.1486123484120E-08
(PID.TID 0000.0001) %MON dynstat_theta_max            =   3.0923670970643E+01
(PID.TID 0000.0001) %MON dynstat_theta_min            =  -3.0112899744063E+00
(PID.TID 0000.0001) %MON dynstat_theta_mean           =   3.9090230615598E+00
(PID.TID 0000.0001) %MON dynstat_theta_sd             =   4.5709412128959E+00
(PID.TID 0000.0001) %MON dynstat_theta_del2           =   2.6498216631394E-03
(PID.TID 0000.0001) %MON dynstat_salt_max             =   4.1370902212936E+01
(PID.TID 0000.0001) %MON dynstat_salt_min             =   1.8518471214417E+01
(PID.TID 0000.0001) %MON dynstat_salt_mean            =   3.4772134985041E+01
(PID.TID 0000.0001) %MON dynstat_salt_sd              =   5.3105230936262E-01
(PID.TID 0000.0001) %MON dynstat_salt_del2            =   8.2306244710598E-04
(PID.TID 0000.0001) %MON dynstat_sst_max              =   3.0923670970643E+01
(PID.TID 0000.0001) %MON dynstat_sst_min              =  -1.8996045154199E+00
(PID.TID 0000.0001) %MON dynstat_sst_mean             =   1.8104216697756E+01
(PID.TID 0000.0001) %MON dynstat_sst_sd               =   9.8036092317806E+00
(PID.TID 0000.0001) %MON dynstat_sst_del2             =   1.5204246649109E-02
(PID.TID 0000.0001) %MON dynstat_sss_max              =   4.1370902212936E+01
(PID.TID 0000.0001) %MON dynstat_sss_min              =   1.8751384704707E+01
(PID.TID 0000.0001) %MON dynstat_sss_mean             =   3.4637502961333E+01
(PID.TID 0000.0001) %MON dynstat_sss_sd               =   1.4598730318180E+00
(PID.TID 0000.0001) %MON dynstat_sss_del2             =   8.3298971831097E-03
(PID.TID 0000.0001) %MON forcing_qnet_max             =   9.1470673828125E+03
(PID.TID 0000.0001) %MON forcing_qnet_min             =  -1.2160629882812E+04
(PID.TID 0000.0001) %MON forcing_qnet_mean            =  -1.2085683484766E+02
(PID.TID 0000.0001) %MON forcing_qnet_sd              =   5.9632628081493E+02
(PID.TID 0000.0001) %MON forcing_qnet_del2            =   1.8359781911232E+01
(PID.TID 0000.0001) %MON forcing_qsw_max              =   0.0000000000000E+00
(PID.TID 0000.0001) %MON forcing_qsw_min              =  -1.0848623609605E+02
(PID.TID 0000.0001) %MON forcing_qsw_mean             =  -2.2486121215297E+01
(PID.TID 0000.0001) %MON forcing_qsw_sd               =   3.0551041900789E+01
(PID.TID 0000.0001) %MON forcing_qsw_del2             =   2.3129105317511E-01
(PID.TID 0000.0001) %MON forcing_empmr_max            =   2.8456801548600E-02
(PID.TID 0000.0001) %MON forcing_empmr_min            =  -2.5989630818367E-01
(PID.TID 0000.0001) %MON forcing_empmr_mean           =  -5.0912218646298E-04
(PID.TID 0000.0001) %MON forcing_empmr_sd             =   7.9500455383246E-03
(PID.TID 0000.0001) %MON forcing_empmr_del2           =   3.2145137855973E-04
(PID.TID 0000.0001) %MON forcing_fu_max               =   6.9575323317776E-01
(PID.TID 0000.0001) %MON forcing_fu_min               =  -4.4777405677820E-01
(PID.TID 0000.0001) %MON forcing_fu_mean              =  -5.3198298979886E-03
(PID.TID 0000.0001) %MON forcing_fu_sd                =   7.6655289067164E-02
(PID.TID 0000.0001) %MON forcing_fu_del2              =   7.8334844974598E-04
(PID.TID 0000.0001) %MON forcing_fv_max               =   3.5022767764519E-01
(PID.TID 0000.0001) %MON forcing_fv_min               =  -3.3173369367085E-01
(PID.TID 0000.0001) %MON forcing_fv_mean              =  -1.2875978442002E-02
(PID.TID 0000.0001) %MON forcing_fv_sd                =   7.4855850285080E-02
(PID.TID 0000.0001) %MON forcing_fv_del2              =   6.6076571894535E-04
(PID.TID 0000.0001) %MON trAdv_CFL_u_max              =   6.2214636951000E-03
(PID.TID 0000.0001) %MON trAdv_CFL_v_max              =   8.6889682497912E-03
(PID.TID 0000.0001) %MON trAdv_CFL_w_max              =   7.0551362822210E-03
(PID.TID 0000.0001) %MON advcfl_uvel_max              =   6.4191624355271E-03
(PID.TID 0000.0001) %MON advcfl_vvel_max              =   4.8387697977158E-03
(PID.TID 0000.0001) %MON advcfl_wvel_max              =   9.0398715889972E-03
(PID.TID 0000.0001) %MON advcfl_W_hf_max              =   7.0551362822210E-03
(PID.TID 0000.0001) %MON pe_b_mean                    =   5.0322730285180E-04
(PID.TID 0000.0001) %MON ke_max                       =   1.6815529650522E+00
(PID.TID 0000.0001) %MON ke_mean                      =   1.8638321128633E-04
(PID.TID 0000.0001) %MON ke_vol                       =   1.3398070910471E+18
(PID.TID 0000.0001) %MON vort_r_min                   =  -5.6727854410519E-06
(PID.TID 0000.0001) %MON vort_r_max                   =   4.3933669070993E-06
(PID.TID 0000.0001) %MON vort_a_mean                  =  -2.0549865324846E-05
(PID.TID 0000.0001) %MON vort_a_sd                    =   7.5259525764621E-05
(PID.TID 0000.0001) %MON vort_p_mean                  =  -2.4783392543923E-05
(PID.TID 0000.0001) %MON vort_p_sd                    =   1.2811924670037E-04
(PID.TID 0000.0001) %MON surfExpan_theta_mean         =  -7.8522927359932E-06
(PID.TID 0000.0001) %MON surfExpan_salt_mean          =   1.4769999673308E-06
(PID.TID 0000.0001) // =======================================================
(PID.TID 0000.0001) // End MONITOR dynamic field statistics
(PID.TID 0000.0001) // =======================================================
 cg2d: Sum(rhs),rhsMax =  -1.85149019842828E+01  6.34233521465527E+01
(PID.TID 0000.0001)      cg2d_init_res =   5.05746982296794E-01
(PID.TID 0000.0001)      cg2d_iters(min,last) =      -1      10
(PID.TID 0000.0001)      cg2d_last_res =   4.00710729337304E-08
(PID.TID 0000.0001) // =======================================================
(PID.TID 0000.0001) // Begin MONITOR dynamic field statistics
(PID.TID 0000.0001) // =======================================================
(PID.TID 0000.0001) %MON time_tsnumber                =                 72011
(PID.TID 0000.0001) %MON time_secondsf                =   6.4809900000000E+07
(PID.TID 0000.0001) %MON dynstat_eta_max              =   2.9873700304209E+00
(PID.TID 0000.0001) %MON dynstat_eta_min              =  -1.8627432546017E+00
(PID.TID 0000.0001) %MON dynstat_eta_mean             =   1.3644944790946E-02
(PID.TID 0000.0001) %MON dynstat_eta_sd               =   6.1261616403448E-01
(PID.TID 0000.0001) %MON dynstat_eta_del2             =   2.5017708945364E-03
(PID.TID 0000.0001) %MON dynstat_uvel_max             =   1.9770394555270E+00
(PID.TID 0000.0001) %MON dynstat_uvel_min             =  -9.5580382959972E-01
(PID.TID 0000.0001) %MON dynstat_uvel_mean            =  -1.8923880791349E-04
(PID.TID 0000.0001) %MON dynstat_uvel_sd              =   1.4173370688164E-02
(PID.TID 0000.0001) %MON dynstat_uvel_del2            =   1.4361174263908E-04
(PID.TID 0000.0001) %MON dynstat_vvel_max             =   1.3712045561008E+00
(PID.TID 0000.0001) %MON dynstat_vvel_min             =  -1.6284579301409E+00
(PID.TID 0000.0001) %MON dynstat_vvel_mean            =  -4.0593968721080E-04
(PID.TID 0000.0001) %MON dynstat_vvel_sd              =   1.4325125768003E-02
(PID.TID 0000.0001) %MON dynstat_vvel_del2            =   1.8046735269787E-04
(PID.TID 0000.0001) %MON dynstat_wvel_max             =   1.0434094804132E-04
(PID.TID 0000.0001) %MON dynstat_wvel_min             =  -5.3858262700970E-04
(PID.TID 0000.0001) %MON dynstat_wvel_mean            =  -4.6231048124360E-07
(PID.TID 0000.0001) %MON dynstat_wvel_sd              =   8.5979409778962E-06
(PID.TID 0000.0001) %MON dynstat_wvel_del2            =   8.0123704514761E-08
(PID.TID 0000.0001) %MON dynstat_theta_max            =   3.0923453746212E+01
(PID.TID 0000.0001) %MON dynstat_theta_min            =  -3.0109695689295E+00
(PID.TID 0000.0001) %MON dynstat_theta_mean           =   3.9090317204700E+00
(PID.TID 0000.0001) %MON dynstat_theta_sd             =   4.5709772095905E+00
(PID.TID 0000.0001) %MON dynstat_theta_del2           =   2.6493519513117E-03
(PID.TID 0000.0001) %MON dynstat_salt_max             =   4.1369944693027E+01
(PID.TID 0000.0001) %MON dynstat_salt_min             =   1.8518480894286E+01
(PID.TID 0000.0001) %MON dynstat_salt_mean            =   3.4772128304098E+01
(PID.TID 0000.0001) %MON dynstat_salt_sd              =   5.3106953030977E-01
(PID.TID 0000.0001) %MON dynstat_salt_del2            =   8.2712882140743E-04
(PID.TID 0000.0001) %MON dynstat_sst_max              =   3.0923453746212E+01
(PID.TID 0000.0001) %MON dynstat_sst_min              =  -1.8995730573855E+00
(PID.TID 0000.0001) %MON dynstat_sst_mean             =   1.8104661065975E+01
(PID.TID 0000.0001) %MON dynstat_sst_sd               =   9.8040313231276E+00
(PID.TID 0000.0001) %MON dynstat_sst_del2             =   1.5192142162475E-02
(PID.TID 0000.0001) %MON dynstat_sss_max              =   4.1369944693027E+01
(PID.TID 0000.0001) %MON dynstat_sss_min              =   1.8751385477593E+01
(PID.TID 0000.0001) %MON dynstat_sss_mean             =   3.4637020508487E+01
(PID.TID 0000.0001) %MON dynstat_sss_sd               =   1.4602860032015E+00
(PID.TID 0000.0001) %MON dynstat_sss_del2             =   8.3930610307394E-03
(PID.TID 0000.0001) %MON forcing_qnet_max             =   9.3057871093750E+03
(PID.TID 0000.0001) %MON forcing_qnet_min             =  -6.8660161132812E+03
(PID.TID 0000.0001) %MON forcing_qnet_mean            =  -1.0383854607636E+02
(PID.TID 0000.0001) %MON forcing_qnet_sd              =   5.6456689640154E+02
(PID.TID 0000.0001) %MON forcing_qnet_del2            =   1.6805574235174E+01
(PID.TID 0000.0001) %MON forcing_qsw_max              =   0.0000000000000E+00
(PID.TID 0000.0001) %MON forcing_qsw_min              =  -1.0912052861481E+02
(PID.TID 0000.0001) %MON forcing_qsw_mean             =  -2.2324754153501E+01
(PID.TID 0000.0001) %MON forcing_qsw_sd               =   3.0433670923713E+01
(PID.TID 0000.0001) %MON forcing_qsw_del2             =   2.3264427840396E-01
(PID.TID 0000.0001) %MON forcing_empmr_max            =   1.6656283289194E-02
(PID.TID 0000.0001) %MON forcing_empmr_min            =  -2.3681873083115E-01
(PID.TID 0000.0001) %MON forcing_empmr_mean           =  -5.0069639177186E-04
(PID.TID 0000.0001) %MON forcing_empmr_sd             =   7.6830848557890E-03
(PID.TID 0000.0001) %MON forcing_empmr_del2           =   3.1113116524675E-04
(PID.TID 0000.0001) %MON forcing_fu_max               =   7.0041985718752E-01
(PID.TID 0000.0001) %MON forcing_fu_min               =  -4.5920387656717E-01
(PID.TID 0000.0001) %MON forcing_fu_mean              =  -5.2171436649233E-03
(PID.TID 0000.0001) %MON forcing_fu_sd                =   7.6525216403833E-02
(PID.TID 0000.0001) %MON forcing_fu_del2              =   7.8427881115245E-04
(PID.TID 0000.0001) %MON forcing_fv_max               =   3.4961356279338E-01
(PID.TID 0000.0001) %MON forcing_fv_min               =  -3.3747998021525E-01
(PID.TID 0000.0001) %MON forcing_fv_mean              =  -1.2596172346686E-02
(PID.TID 0000.0001) %MON forcing_fv_sd                =   7.5097954665790E-02
(PID.TID 0000.0001) %MON forcing_fv_del2              =   6.6329907331195E-04
(PID.TID 0000.0001) %MON trAdv_CFL_u_max              =   6.4177376177625E-03
(PID.TID 0000.0001) %MON trAdv_CFL_v_max              =   8.8121636641830E-03
(PID.TID 0000.0001) %MON trAdv_CFL_w_max              =   6.9077994301592E-03
(PID.TID 0000.0001) %MON advcfl_uvel_max              =   6.5929652083590E-03
(PID.TID 0000.0001) %MON advcfl_vvel_max              =   4.8801129102281E-03
(PID.TID 0000.0001) %MON advcfl_wvel_max              =   8.2371732463007E-03
(PID.TID 0000.0001) %MON advcfl_W_hf_max              =   6.9077994301592E-03
(PID.TID 0000.0001) %MON pe_b_mean                    =   5.0021327911619E-04
(PID.TID 0000.0001) %MON ke_max                       =   1.7226639633329E+00
(PID.TID 0000.0001) %MON ke_mean                      =   1.8758450035385E-04
(PID.TID 0000.0001) %MON ke_vol                       =   1.3398072521452E+18
(PID.TID 0000.0001) %MON vort_r_min                   =  -6.3635458075774E-06
(PID.TID 0000.0001) %MON vort_r_max                   =   4.2300387795727E-06
(PID.TID 0000.0001) %MON vort_a_mean                  =  -2.0549865324846E-05
(PID.TID 0000.0001) %MON vort_a_sd                    =   7.5259524210297E-05
(PID.TID 0000.0001) %MON vort_p_mean                  =  -2.4783388311134E-05
(PID.TID 0000.0001) %MON vort_p_sd                    =   1.2811920929930E-04
(PID.TID 0000.0001) %MON surfExpan_theta_mean         =  -7.8061350653453E-06
(PID.TID 0000.0001) %MON surfExpan_salt_mean          =   1.5341763119799E-06
(PID.TID 0000.0001) // =======================================================
(PID.TID 0000.0001) // End MONITOR dynamic field statistics
(PID.TID 0000.0001) // =======================================================
 Computing Diagnostic #     81  oceTAUX      Counter:       1   Parms: UU      U1      
           Vector  Mate for  oceTAUX      Diagnostic #     82  oceTAUY  exists 
 Computing Diagnostic #     82  oceTAUY      Counter:       1   Parms: VV      U1      
           Vector  Mate for  oceTAUY      Diagnostic #     81  oceTAUX  exists 
 Computing Diagnostic #     85  oceFWflx     Counter:       1   Parms: SM      U1      
 Computing Diagnostic #     86  oceSflux     Counter:       1   Parms: SM      U1      
 Computing Diagnostic #     87  oceQnet      Counter:       1   Parms: SM      U1      
 Computing Diagnostic #     88  oceQsw       Counter:       1   Parms: SM      U1      
 Computing Diagnostic #     27  SALT         Counter:       1   Parms: SMR     MR      
 Computing Diagnostic #     26  THETA        Counter:       1   Parms: SMR     MR      
 Computing Diagnostic #     45  UVELMASS     Counter:       1   Parms: UUr     MR      
           Vector  Mate for  UVELMASS     Diagnostic #     46  VVELMASS exists 
 Computing Diagnostic #     46  VVELMASS     Counter:       1   Parms: VVr     MR      
           Vector  Mate for  VVELMASS     Diagnostic #     45  UVELMASS exists 
 Computing Diagnostic #     83  atmPload     Counter:       1   Parms: SM      U1      
 cg2d: Sum(rhs),rhsMax =  -1.94028571915387E+01  6.24289963438315E+01
(PID.TID 0000.0001)      cg2d_init_res =   5.08725901583304E-01
(PID.TID 0000.0001)      cg2d_iters(min,last) =      -1      10
(PID.TID 0000.0001)      cg2d_last_res =   5.09750898776903E-08
(PID.TID 0000.0001) // =======================================================
(PID.TID 0000.0001) // Begin MONITOR dynamic field statistics
(PID.TID 0000.0001) // =======================================================
(PID.TID 0000.0001) %MON time_tsnumber                =                 72012
(PID.TID 0000.0001) %MON time_secondsf                =   6.4810800000000E+07
(PID.TID 0000.0001) %MON dynstat_eta_max              =   2.8695207789137E+00
(PID.TID 0000.0001) %MON dynstat_eta_min              =  -1.6139541322941E+00
(PID.TID 0000.0001) %MON dynstat_eta_mean             =   1.4075155882809E-02
(PID.TID 0000.0001) %MON dynstat_eta_sd               =   6.1143475439075E-01
(PID.TID 0000.0001) %MON dynstat_eta_del2             =   2.4503061928899E-03
(PID.TID 0000.0001) %MON dynstat_uvel_max             =   2.0051430172182E+00
(PID.TID 0000.0001) %MON dynstat_uvel_min             =  -9.7212316600898E-01
(PID.TID 0000.0001) %MON dynstat_uvel_mean            =  -1.6320920906129E-04
(PID.TID 0000.0001) %MON dynstat_uvel_sd              =   1.4234447838527E-02
(PID.TID 0000.0001) %MON dynstat_uvel_del2            =   1.4293654767005E-04
(PID.TID 0000.0001) %MON dynstat_vvel_max             =   1.3425808266389E+00
(PID.TID 0000.0001) %MON dynstat_vvel_min             =  -1.6133445557652E+00
(PID.TID 0000.0001) %MON dynstat_vvel_mean            =  -4.1390542315785E-04
(PID.TID 0000.0001) %MON dynstat_vvel_sd              =   1.4281437873130E-02
(PID.TID 0000.0001) %MON dynstat_vvel_del2            =   1.7338505776833E-04
(PID.TID 0000.0001) %MON dynstat_wvel_max             =   1.0452432790383E-04
(PID.TID 0000.0001) %MON dynstat_wvel_min             =  -5.3615054256819E-04
(PID.TID 0000.0001) %MON dynstat_wvel_mean            =  -4.5408764585327E-07
(PID.TID 0000.0001) %MON dynstat_wvel_sd              =   8.5755025405567E-06
(PID.TID 0000.0001) %MON dynstat_wvel_del2            =   7.9592835662195E-08
(PID.TID 0000.0001) %MON dynstat_theta_max            =   3.0923243673844E+01
(PID.TID 0000.0001) %MON dynstat_theta_min            =  -3.0106839330058E+00
(PID.TID 0000.0001) %MON dynstat_theta_mean           =   3.9090395958000E+00
(PID.TID 0000.0001) %MON dynstat_theta_sd             =   4.5710109393565E+00
(PID.TID 0000.0001) %MON dynstat_theta_del2           =   2.6489383639522E-03
(PID.TID 0000.0001) %MON dynstat_salt_max             =   4.1368984613301E+01
(PID.TID 0000.0001) %MON dynstat_salt_min             =   1.8518490632240E+01
(PID.TID 0000.0001) %MON dynstat_salt_mean            =   3.4772121776820E+01
(PID.TID 0000.0001) %MON dynstat_salt_sd              =   5.3108713008021E-01
(PID.TID 0000.0001) %MON dynstat_salt_del2            =   8.3142909179348E-04
(PID.TID 0000.0001) %MON dynstat_sst_max              =   3.0923243673844E+01
(PID.TID 0000.0001) %MON dynstat_sst_min              =  -1.8995425359023E+00
(PID.TID 0000.0001) %MON dynstat_sst_mean             =   1.8105051277478E+01
(PID.TID 0000.0001) %MON dynstat_sst_sd               =   9.8044577992629E+00
(PID.TID 0000.0001) %MON dynstat_sst_del2             =   1.5180825083395E-02
(PID.TID 0000.0001) %MON dynstat_sss_max              =   4.1368984613301E+01
(PID.TID 0000.0001) %MON dynstat_sss_min              =   1.8751386384669E+01
(PID.TID 0000.0001) %MON dynstat_sss_mean             =   3.4636548529255E+01
(PID.TID 0000.0001) %MON dynstat_sss_sd               =   1.4607103978298E+00
(PID.TID 0000.0001) %MON dynstat_sss_del2             =   8.4596353596303E-03
(PID.TID 0000.0001) %MON forcing_qnet_max             =   9.8964228515625E+03
(PID.TID 0000.0001) %MON forcing_qnet_min             =  -5.3315068359375E+03
(PID.TID 0000.0001) %MON forcing_qnet_mean            =  -9.1250253774308E+01
(PID.TID 0000.0001) %MON forcing_qnet_sd              =   5.5711563359176E+02
(PID.TID 0000.0001) %MON forcing_qnet_del2            =   1.6203826385923E+01
(PID.TID 0000.0001) %MON forcing_qsw_max              =   0.0000000000000E+00
(PID.TID 0000.0001) %MON forcing_qsw_min              =  -1.0929297095286E+02
(PID.TID 0000.0001) %MON forcing_qsw_mean             =  -2.2096817463919E+01
(PID.TID 0000.0001) %MON forcing_qsw_sd               =   3.0258437857968E+01
(PID.TID 0000.0001) %MON forcing_qsw_del2             =   2.3377523291557E-01
(PID.TID 0000.0001) %MON forcing_empmr_max            =   1.3882089406252E-02
(PID.TID 0000.0001) %MON forcing_empmr_min            =  -2.2118647396564E-01
(PID.TID 0000.0001) %MON forcing_empmr_mean           =  -4.9474275564263E-04
(PID.TID 0000.0001) %MON forcing_empmr_sd             =   7.4915946376707E-03
(PID.TID 0000.0001) %MON forcing_empmr_del2           =   3.0377432276270E-04
(PID.TID 0000.0001) %MON forcing_fu_max               =   6.9987595806030E-01
(PID.TID 0000.0001) %MON forcing_fu_min               =  -4.6253135483171E-01
(PID.TID 0000.0001) %MON forcing_fu_mean              =  -5.1038725037852E-03
(PID.TID 0000.0001) %MON forcing_fu_sd                =   7.6317577027640E-02
(PID.TID 0000.0001) %MON forcing_fu_del2              =   7.8428889715602E-04
(PID.TID 0000.0001) %MON forcing_fv_max               =   3.5754062872858E-01
(PID.TID 0000.0001) %MON forcing_fv_min               =  -3.4169105307353E-01
(PID.TID 0000.0001) %MON forcing_fv_mean              =  -1.2367633870706E-02
(PID.TID 0000.0001) %MON forcing_fv_sd                =   7.5038594292054E-02
(PID.TID 0000.0001) %MON forcing_fv_del2              =   6.6374518793481E-04
(PID.TID 0000.0001) %MON trAdv_CFL_u_max              =   6.5346632878006E-03
(PID.TID 0000.0001) %MON trAdv_CFL_v_max              =   8.7866624611245E-03
(PID.TID 0000.0001) %MON trAdv_CFL_w_max              =   6.6967223770553E-03
(PID.TID 0000.0001) %MON advcfl_uvel_max              =   6.6866840281545E-03
(PID.TID 0000.0001) %MON advcfl_vvel_max              =   4.8348216122199E-03
(PID.TID 0000.0001) %MON advcfl_wvel_max              =   7.6934425727181E-03
(PID.TID 0000.0001) %MON advcfl_W_hf_max              =   6.6967223770553E-03
(PID.TID 0000.0001) %MON pe_b_mean                    =   4.9830263416956E-04
(PID.TID 0000.0001) %MON ke_max                       =   1.7070595309516E+00
(PID.TID 0000.0001) %MON ke_mean                      =   1.8780061958084E-04
(PID.TID 0000.0001) %MON ke_vol                       =   1.3398074105772E+18
(PID.TID 0000.0001) %MON vort_r_min                   =  -6.9971666257465E-06
(PID.TID 0000.0001) %MON vort_r_max                   =   3.9724702153239E-06
(PID.TID 0000.0001) %MON vort_a_mean                  =  -2.0549865324846E-05
(PID.TID 0000.0001) %MON vort_a_sd                    =   7.5259522511726E-05
(PID.TID 0000.0001) %MON vort_p_mean                  =  -2.4783384219606E-05
(PID.TID 0000.0001) %MON vort_p_sd                    =   1.2811917906181E-04
(PID.TID 0000.0001) %MON surfExpan_theta_mean         =  -7.7600771898255E-06
(PID.TID 0000.0001) %MON surfExpan_salt_mean          =   1.5755787853922E-06
(PID.TID 0000.0001) // =======================================================
(PID.TID 0000.0001) // End MONITOR dynamic field statistics
(PID.TID 0000.0001) // =======================================================
 cg2d: Sum(rhs),rhsMax =  -1.82021200489678E+01  6.85570228888714E+01
(PID.TID 0000.0001)      cg2d_init_res =   4.51739097756869E-01
(PID.TID 0000.0001)      cg2d_iters(min,last) =      -1      10
(PID.TID 0000.0001)      cg2d_last_res =   5.18165280560458E-08
(PID.TID 0000.0001) // =======================================================
(PID.TID 0000.0001) // Begin MONITOR dynamic field statistics
(PID.TID 0000.0001) // =======================================================
(PID.TID 0000.0001) %MON time_tsnumber                =                 72013
(PID.TID 0000.0001) %MON time_secondsf                =   6.4811700000000E+07
(PID.TID 0000.0001) %MON dynstat_eta_max              =   3.1460411899745E+00
(PID.TID 0000.0001) %MON dynstat_eta_min              =  -1.6103393110189E+00
(PID.TID 0000.0001) %MON dynstat_eta_mean             =   1.4500236896047E-02
(PID.TID 0000.0001) %MON dynstat_eta_sd               =   6.1097907421327E-01
(PID.TID 0000.0001) %MON dynstat_eta_del2             =   2.5215720932318E-03
(PID.TID 0000.0001) %MON dynstat_uvel_max             =   2.0103865772297E+00
(PID.TID 0000.0001) %MON dynstat_uvel_min             =  -9.7886027899013E-01
(PID.TID 0000.0001) %MON dynstat_uvel_mean            =  -1.3822487881653E-04
(PID.TID 0000.0001) %MON dynstat_uvel_sd              =   1.4247433691031E-02
(PID.TID 0000.0001) %MON dynstat_uvel_del2            =   1.4106706223124E-04
(PID.TID 0000.0001) %MON dynstat_vvel_max             =   1.3042389506671E+00
(PID.TID 0000.0001) %MON dynstat_vvel_min             =  -1.5706284876639E+00
(PID.TID 0000.0001) %MON dynstat_vvel_mean            =  -4.2075435720863E-04
(PID.TID 0000.0001) %MON dynstat_vvel_sd              =   1.4208613042605E-02
(PID.TID 0000.0001) %MON dynstat_vvel_del2            =   1.6481922736355E-04
(PID.TID 0000.0001) %MON dynstat_wvel_max             =   1.0827596895962E-04
(PID.TID 0000.0001) %MON dynstat_wvel_min             =  -5.5354953367171E-04
(PID.TID 0000.0001) %MON dynstat_wvel_mean            =  -4.4255726872706E-07
(PID.TID 0000.0001) %MON dynstat_wvel_sd              =   8.5727070806163E-06
(PID.TID 0000.0001) %MON dynstat_wvel_del2            =   7.9528826830398E-08
(PID.TID 0000.0001) %MON dynstat_theta_max            =   3.0923061537214E+01
(PID.TID 0000.0001) %MON dynstat_theta_min            =  -3.0103912692797E+00
(PID.TID 0000.0001) %MON dynstat_theta_mean           =   3.9090468949537E+00
(PID.TID 0000.0001) %MON dynstat_theta_sd             =   4.5710427649962E+00
(PID.TID 0000.0001) %MON dynstat_theta_del2           =   2.6485677471442E-03
(PID.TID 0000.0001) %MON dynstat_salt_max             =   4.1368032910180E+01
(PID.TID 0000.0001) %MON dynstat_salt_min             =   1.8518500421223E+01
(PID.TID 0000.0001) %MON dynstat_salt_mean            =   3.4772115411204E+01
(PID.TID 0000.0001) %MON dynstat_salt_sd              =   5.3110522666524E-01
(PID.TID 0000.0001) %MON dynstat_salt_del2            =   8.3593894150414E-04
(PID.TID 0000.0001) %MON dynstat_sst_max              =   3.0923061537214E+01
(PID.TID 0000.0001) %MON dynstat_sst_min              =  -1.8995138858402E+00
(PID.TID 0000.0001) %MON dynstat_sst_mean             =   1.8105407182628E+01
(PID.TID 0000.0001) %MON dynstat_sst_sd               =   9.8048828110802E+00
(PID.TID 0000.0001) %MON dynstat_sst_del2             =   1.5171203422479E-02
(PID.TID 0000.0001) %MON dynstat_sss_max              =   4.1368032910180E+01
(PID.TID 0000.0001) %MON dynstat_sss_min              =   1.8751387254204E+01
(PID.TID 0000.0001) %MON dynstat_sss_mean             =   3.4636089549264E+01
(PID.TID 0000.0001) %MON dynstat_sss_sd               =   1.4611527980172E+00
(PID.TID 0000.0001) %MON dynstat_sss_del2             =   8.5293685134345E-03
(PID.TID 0000.0001) %MON forcing_qnet_max             =   1.0004931640625E+04
(PID.TID 0000.0001) %MON forcing_qnet_min             =  -3.1083258212414E+03
(PID.TID 0000.0001) %MON forcing_qnet_mean            =  -8.2121591028640E+01
(PID.TID 0000.0001) %MON forcing_qnet_sd              =   5.2870025060940E+02
(PID.TID 0000.0001) %MON forcing_qnet_del2            =   1.4905034044190E+01
(PID.TID 0000.0001) %MON forcing_qsw_max              =   0.0000000000000E+00
(PID.TID 0000.0001) %MON forcing_qsw_min              =  -1.0761383226304E+02
(PID.TID 0000.0001) %MON forcing_qsw_mean             =  -2.1915160354425E+01
(PID.TID 0000.0001) %MON forcing_qsw_sd               =   3.0239272429317E+01
(PID.TID 0000.0001) %MON forcing_qsw_del2             =   2.4093935782428E-01
(PID.TID 0000.0001) %MON forcing_empmr_max            =   1.4172190800309E-02
(PID.TID 0000.0001) %MON forcing_empmr_min            =  -2.0914037525654E-01
(PID.TID 0000.0001) %MON forcing_empmr_mean           =  -4.8884316522414E-04
(PID.TID 0000.0001) %MON forcing_empmr_sd             =   7.3407428334175E-03
(PID.TID 0000.0001) %MON forcing_empmr_del2           =   2.9790448974044E-04
(PID.TID 0000.0001) %MON forcing_fu_max               =   6.9586860057051E-01
(PID.TID 0000.0001) %MON forcing_fu_min               =  -4.6098357133453E-01
(PID.TID 0000.0001) %MON forcing_fu_mean              =  -4.9025576106968E-03
(PID.TID 0000.0001) %MON forcing_fu_sd                =   7.6324181506759E-02
(PID.TID 0000.0001) %MON forcing_fu_del2              =   7.8166934891932E-04
(PID.TID 0000.0001) %MON forcing_fv_max               =   3.5192118620815E-01
(PID.TID 0000.0001) %MON forcing_fv_min               =  -3.4546845294109E-01
(PID.TID 0000.0001) %MON forcing_fv_mean              =  -1.2163870972990E-02
(PID.TID 0000.0001) %MON forcing_fv_sd                =   7.4805606407988E-02
(PID.TID 0000.0001) %MON forcing_fv_del2              =   6.6292482668862E-04
(PID.TID 0000.0001) %MON trAdv_CFL_u_max              =   6.5750307372619E-03
(PID.TID 0000.0001) %MON trAdv_CFL_v_max              =   8.6158427568391E-03
(PID.TID 0000.0001) %MON trAdv_CFL_w_max              =   6.4431410077338E-03
(PID.TID 0000.0001) %MON advcfl_uvel_max              =   6.7041700771187E-03
(PID.TID 0000.0001) %MON advcfl_vvel_max              =   4.7068114060259E-03
(PID.TID 0000.0001) %MON advcfl_wvel_max              =   7.2744478350100E-03
(PID.TID 0000.0001) %MON advcfl_W_hf_max              =   6.4431410077338E-03
(PID.TID 0000.0001) %MON pe_b_mean                    =   4.9757669401458E-04
(PID.TID 0000.0001) %MON ke_max                       =   1.6382085825276E+00
(PID.TID 0000.0001) %MON ke_mean                      =   1.8700713021665E-04
(PID.TID 0000.0001) %MON ke_vol                       =   1.3398075671253E+18
(PID.TID 0000.0001) %MON vort_r_min                   =  -7.5563809246521E-06
(PID.TID 0000.0001) %MON vort_r_max                   =   3.6296380600557E-06
(PID.TID 0000.0001) %MON vort_a_mean                  =  -2.0549865324846E-05
(PID.TID 0000.0001) %MON vort_a_sd                    =   7.5259520812907E-05
(PID.TID 0000.0001) %MON vort_p_mean                  =  -2.4783380264286E-05
(PID.TID 0000.0001) %MON vort_p_sd                    =   1.2811915660918E-04
(PID.TID 0000.0001) %MON surfExpan_theta_mean         =  -7.7107769729466E-06
(PID.TID 0000.0001) %MON surfExpan_salt_mean          =   1.6017404986788E-06
(PID.TID 0000.0001) // =======================================================
(PID.TID 0000.0001) // End MONITOR dynamic field statistics
(PID.TID 0000.0001) // =======================================================
 cg2d: Sum(rhs),rhsMax =  -1.73255576933671E+01  7.41137943384298E+01
(PID.TID 0000.0001)      cg2d_init_res =   3.98132338107129E-01
(PID.TID 0000.0001)      cg2d_iters(min,last) =      -1      10
(PID.TID 0000.0001)      cg2d_last_res =   4.63709477132286E-08
(PID.TID 0000.0001) // =======================================================
(PID.TID 0000.0001) // Begin MONITOR dynamic field statistics
(PID.TID 0000.0001) // =======================================================
(PID.TID 0000.0001) %MON time_tsnumber                =                 72014
(PID.TID 0000.0001) %MON time_secondsf                =   6.4812600000000E+07
(PID.TID 0000.0001) %MON dynstat_eta_max              =   3.3967633593884E+00
(PID.TID 0000.0001) %MON dynstat_eta_min              =  -1.6069473065331E+00
(PID.TID 0000.0001) %MON dynstat_eta_mean             =   1.4920639735659E-02
(PID.TID 0000.0001) %MON dynstat_eta_sd               =   6.1121374876286E-01
(PID.TID 0000.0001) %MON dynstat_eta_del2             =   2.6858277964732E-03
(PID.TID 0000.0001) %MON dynstat_uvel_max             =   1.9937858752817E+00
(PID.TID 0000.0001) %MON dynstat_uvel_min             =  -9.7647874294550E-01
(PID.TID 0000.0001) %MON dynstat_uvel_mean            =  -1.1409286840569E-04
(PID.TID 0000.0001) %MON dynstat_uvel_sd              =   1.4210651981808E-02
(PID.TID 0000.0001) %MON dynstat_uvel_del2            =   1.3806681686258E-04
(PID.TID 0000.0001) %MON dynstat_vvel_max             =   1.2470748408251E+00
(PID.TID 0000.0001) %MON dynstat_vvel_min             =  -1.5020907729817E+00
(PID.TID 0000.0001) %MON dynstat_vvel_mean            =  -4.2604061074911E-04
(PID.TID 0000.0001) %MON dynstat_vvel_sd              =   1.4116018988582E-02
(PID.TID 0000.0001) %MON dynstat_vvel_del2            =   1.5527693803839E-04
(PID.TID 0000.0001) %MON dynstat_wvel_max             =   1.0492484619693E-04
(PID.TID 0000.0001) %MON dynstat_wvel_min             =  -5.6112797350242E-04
(PID.TID 0000.0001) %MON dynstat_wvel_mean            =  -4.2933753500393E-07
(PID.TID 0000.0001) %MON dynstat_wvel_sd              =   8.5664627377982E-06
(PID.TID 0000.0001) %MON dynstat_wvel_del2            =   7.9666726471648E-08
(PID.TID 0000.0001) %MON dynstat_theta_max            =   3.0922891289127E+01
(PID.TID 0000.0001) %MON dynstat_theta_min            =  -3.0100609729813E+00
(PID.TID 0000.0001) %MON dynstat_theta_mean           =   3.9090538029621E+00
(PID.TID 0000.0001) %MON dynstat_theta_sd             =   4.5710727561075E+00
(PID.TID 0000.0001) %MON dynstat_theta_del2           =   2.6482423097881E-03
(PID.TID 0000.0001) %MON dynstat_salt_max             =   4.1367098875034E+01
(PID.TID 0000.0001) %MON dynstat_salt_min             =   1.8518510249695E+01
(PID.TID 0000.0001) %MON dynstat_salt_mean            =   3.4772109210676E+01
(PID.TID 0000.0001) %MON dynstat_salt_sd              =   5.3112366547680E-01
(PID.TID 0000.0001) %MON dynstat_salt_del2            =   8.4063124222144E-04
(PID.TID 0000.0001) %MON dynstat_sst_max              =   3.0922891289127E+01
(PID.TID 0000.0001) %MON dynstat_sst_min              =  -1.8994868133759E+00
(PID.TID 0000.0001) %MON dynstat_sst_mean             =   1.8105737944314E+01
(PID.TID 0000.0001) %MON dynstat_sst_sd               =   9.8052861334506E+00
(PID.TID 0000.0001) %MON dynstat_sst_del2             =   1.5162815372560E-02
(PID.TID 0000.0001) %MON dynstat_sss_max              =   4.1367098875034E+01
(PID.TID 0000.0001) %MON dynstat_sss_min              =   1.8751388130566E+01
(PID.TID 0000.0001) %MON dynstat_sss_mean             =   3.4635642170142E+01
(PID.TID 0000.0001) %MON dynstat_sss_sd               =   1.4616062162410E+00
(PID.TID 0000.0001) %MON dynstat_sss_del2             =   8.6017024297727E-03
(PID.TID 0000.0001) %MON forcing_qnet_max             =   8.4043750000000E+03
(PID.TID 0000.0001) %MON forcing_qnet_min             =  -3.5626074218750E+03
(PID.TID 0000.0001) %MON forcing_qnet_mean            =  -7.6009814953867E+01
(PID.TID 0000.0001) %MON forcing_qnet_sd              =   4.9503015715708E+02
(PID.TID 0000.0001) %MON forcing_qnet_del2            =   1.4165227594242E+01
(PID.TID 0000.0001) %MON forcing_qsw_max              =   0.0000000000000E+00
(PID.TID 0000.0001) %MON forcing_qsw_min              =  -1.0687216942822E+02
(PID.TID 0000.0001) %MON forcing_qsw_mean             =  -2.1718925248455E+01
(PID.TID 0000.0001) %MON forcing_qsw_sd               =   3.0077317069107E+01
(PID.TID 0000.0001) %MON forcing_qsw_del2             =   2.4337058547429E-01
(PID.TID 0000.0001) %MON forcing_empmr_max            =   1.4291688799858E-02
(PID.TID 0000.0001) %MON forcing_empmr_min            =  -1.9875164330006E-01
(PID.TID 0000.0001) %MON forcing_empmr_mean           =  -4.8346326555279E-04
(PID.TID 0000.0001) %MON forcing_empmr_sd             =   7.2139018326797E-03
(PID.TID 0000.0001) %MON forcing_empmr_del2           =   2.9306581613596E-04
(PID.TID 0000.0001) %MON forcing_fu_max               =   6.8940155836618E-01
(PID.TID 0000.0001) %MON forcing_fu_min               =  -4.5519459994563E-01
(PID.TID 0000.0001) %MON forcing_fu_mean              =  -4.6999455114777E-03
(PID.TID 0000.0001) %MON forcing_fu_sd                =   7.6301707708153E-02
(PID.TID 0000.0001) %MON forcing_fu_del2              =   7.7753240525561E-04
(PID.TID 0000.0001) %MON forcing_fv_max               =   3.4241623935219E-01
(PID.TID 0000.0001) %MON forcing_fv_min               =  -3.4614615376573E-01
(PID.TID 0000.0001) %MON forcing_fv_mean              =  -1.1950051182113E-02
(PID.TID 0000.0001) %MON forcing_fv_sd                =   7.4618320923994E-02
(PID.TID 0000.0001) %MON forcing_fv_del2              =   6.6150243912537E-04
(PID.TID 0000.0001) %MON trAdv_CFL_u_max              =   6.5416045542190E-03
(PID.TID 0000.0001) %MON trAdv_CFL_v_max              =   8.3054905084070E-03
(PID.TID 0000.0001) %MON trAdv_CFL_w_max              =   6.1639096649156E-03
(PID.TID 0000.0001) %MON advcfl_uvel_max              =   6.6488106101786E-03
(PID.TID 0000.0001) %MON advcfl_vvel_max              =   4.5014196792473E-03
(PID.TID 0000.0001) %MON advcfl_wvel_max              =   6.9131006365237E-03
(PID.TID 0000.0001) %MON advcfl_W_hf_max              =   6.1639096649156E-03
(PID.TID 0000.0001) %MON pe_b_mean                    =   4.9797520626680E-04
(PID.TID 0000.0001) %MON ke_max                       =   1.5229072508398E+00
(PID.TID 0000.0001) %MON ke_mean                      =   1.8530874108725E-04
(PID.TID 0000.0001) %MON ke_vol                       =   1.3398077218067E+18
(PID.TID 0000.0001) %MON vort_r_min                   =  -8.0264300390208E-06
(PID.TID 0000.0001) %MON vort_r_max                   =   3.2115966089581E-06
(PID.TID 0000.0001) %MON vort_a_mean                  =  -2.0549865324846E-05
(PID.TID 0000.0001) %MON vort_a_sd                    =   7.5259519253423E-05
(PID.TID 0000.0001) %MON vort_p_mean                  =  -2.4783376452313E-05
(PID.TID 0000.0001) %MON vort_p_sd                    =   1.2811914224614E-04
(PID.TID 0000.0001) %MON surfExpan_theta_mean         =  -7.6698423387197E-06
(PID.TID 0000.0001) %MON surfExpan_salt_mean          =   1.6151953778809E-06
(PID.TID 0000.0001) // =======================================================
(PID.TID 0000.0001) // End MONITOR dynamic field statistics
(PID.TID 0000.0001) // =======================================================
 cg2d: Sum(rhs),rhsMax =  -1.67113509471743E+01  7.89840404717932E+01
(PID.TID 0000.0001)      cg2d_init_res =   3.46992204994068E-01
(PID.TID 0000.0001)      cg2d_iters(min,last) =      -1      10
(PID.TID 0000.0001)      cg2d_last_res =   4.20404634807393E-08
(PID.TID 0000.0001) // =======================================================
(PID.TID 0000.0001) // Begin MONITOR dynamic field statistics
(PID.TID 0000.0001) // =======================================================
(PID.TID 0000.0001) %MON time_tsnumber                =                 72015
(PID.TID 0000.0001) %MON time_secondsf                =   6.4813500000000E+07
(PID.TID 0000.0001) %MON dynstat_eta_max              =   3.6164627210077E+00
(PID.TID 0000.0001) %MON dynstat_eta_min              =  -1.7976215084033E+00
(PID.TID 0000.0001) %MON dynstat_eta_mean             =   1.5337411843153E-02
(PID.TID 0000.0001) %MON dynstat_eta_sd               =   6.1201389984704E-01
(PID.TID 0000.0001) %MON dynstat_eta_del2             =   2.9028362971106E-03
(PID.TID 0000.0001) %MON dynstat_uvel_max             =   1.9561813282263E+00
(PID.TID 0000.0001) %MON dynstat_uvel_min             =  -9.6552403923097E-01
(PID.TID 0000.0001) %MON dynstat_uvel_mean            =  -9.0758130256935E-05
(PID.TID 0000.0001) %MON dynstat_uvel_sd              =   1.4129825864451E-02
(PID.TID 0000.0001) %MON dynstat_uvel_del2            =   1.3408965601301E-04
(PID.TID 0000.0001) %MON dynstat_vvel_max             =   1.1730315590429E+00
(PID.TID 0000.0001) %MON dynstat_vvel_min             =  -1.4099305468629E+00
(PID.TID 0000.0001) %MON dynstat_vvel_mean            =  -4.2957020414492E-04
(PID.TID 0000.0001) %MON dynstat_vvel_sd              =   1.4014692298708E-02
(PID.TID 0000.0001) %MON dynstat_vvel_del2            =   1.4526631451194E-04
(PID.TID 0000.0001) %MON dynstat_wvel_max             =   1.1721258744435E-04
(PID.TID 0000.0001) %MON dynstat_wvel_min             =  -5.5785492884108E-04
(PID.TID 0000.0001) %MON dynstat_wvel_mean            =  -4.1600797090522E-07
(PID.TID 0000.0001) %MON dynstat_wvel_sd              =   8.5700144900450E-06
(PID.TID 0000.0001) %MON dynstat_wvel_del2            =   7.9897044873871E-08
(PID.TID 0000.0001) %MON dynstat_theta_max            =   3.0922735050942E+01
(PID.TID 0000.0001) %MON dynstat_theta_min            =  -3.0096779759734E+00
(PID.TID 0000.0001) %MON dynstat_theta_mean           =   3.9090604487185E+00
(PID.TID 0000.0001) %MON dynstat_theta_sd             =   4.5711008594587E+00
(PID.TID 0000.0001) %MON dynstat_theta_del2           =   2.6479792860434E-03
(PID.TID 0000.0001) %MON dynstat_salt_max             =   4.1366190897405E+01
(PID.TID 0000.0001) %MON dynstat_salt_min             =   1.8518520103770E+01
(PID.TID 0000.0001) %MON dynstat_salt_mean            =   3.4772103196814E+01
(PID.TID 0000.0001) %MON dynstat_salt_sd              =   5.3114245014822E-01
(PID.TID 0000.0001) %MON dynstat_salt_del2            =   8.4548036868871E-04
(PID.TID 0000.0001) %MON dynstat_sst_max              =   3.0922735050942E+01
(PID.TID 0000.0001) %MON dynstat_sst_min              =  -1.8994597576219E+00
(PID.TID 0000.0001) %MON dynstat_sst_mean             =   1.8106050015021E+01
(PID.TID 0000.0001) %MON dynstat_sst_sd               =   9.8056489705032E+00
(PID.TID 0000.0001) %MON dynstat_sst_del2             =   1.5156259992327E-02
(PID.TID 0000.0001) %MON dynstat_sss_max              =   4.1366190897405E+01
(PID.TID 0000.0001) %MON dynstat_sss_min              =   1.8751388930948E+01
(PID.TID 0000.0001) %MON dynstat_sss_mean             =   3.4635206795421E+01
(PID.TID 0000.0001) %MON dynstat_sss_sd               =   1.4620678374927E+00
(PID.TID 0000.0001) %MON dynstat_sss_del2             =   8.6762813397580E-03
(PID.TID 0000.0001) %MON forcing_qnet_max             =   7.5642338867188E+03
(PID.TID 0000.0001) %MON forcing_qnet_min             =  -4.1771035156250E+03
(PID.TID 0000.0001) %MON forcing_qnet_mean            =  -7.1944919082167E+01
(PID.TID 0000.0001) %MON forcing_qnet_sd              =   4.4701349685069E+02
(PID.TID 0000.0001) %MON forcing_qnet_del2            =   1.2887921279921E+01
(PID.TID 0000.0001) %MON forcing_qsw_max              =   0.0000000000000E+00
(PID.TID 0000.0001) %MON forcing_qsw_min              =  -1.0567837385142E+02
(PID.TID 0000.0001) %MON forcing_qsw_mean             =  -2.1464271280520E+01
(PID.TID 0000.0001) %MON forcing_qsw_sd               =   2.9855066248265E+01
(PID.TID 0000.0001) %MON forcing_qsw_del2             =   2.4549148738885E-01
(PID.TID 0000.0001) %MON forcing_empmr_max            =   1.4226810075343E-02
(PID.TID 0000.0001) %MON forcing_empmr_min            =  -1.9068460166454E-01
(PID.TID 0000.0001) %MON forcing_empmr_mean           =  -4.7928792361809E-04
(PID.TID 0000.0001) %MON forcing_empmr_sd             =   7.1057978882167E-03
(PID.TID 0000.0001) %MON forcing_empmr_del2           =   2.8895391668300E-04
(PID.TID 0000.0001) %MON forcing_fu_max               =   6.7325676993615E-01
(PID.TID 0000.0001) %MON forcing_fu_min               =  -4.4861946165045E-01
(PID.TID 0000.0001) %MON forcing_fu_mean              =  -4.6022027481684E-03
(PID.TID 0000.0001) %MON forcing_fu_sd                =   7.5872704135742E-02
(PID.TID 0000.0001) %MON forcing_fu_del2              =   7.7051796827699E-04
(PID.TID 0000.0001) %MON forcing_fv_max               =   3.3373117488163E-01
(PID.TID 0000.0001) %MON forcing_fv_min               =  -3.4980991229967E-01
(PID.TID 0000.0001) %MON forcing_fv_mean              =  -1.1720278585918E-02
(PID.TID 0000.0001) %MON forcing_fv_sd                =   7.4284026652600E-02
(PID.TID 0000.0001) %MON forcing_fv_del2              =   6.5929433665430E-04
(PID.TID 0000.0001) %MON trAdv_CFL_u_max              =   6.4369255057069E-03
(PID.TID 0000.0001) %MON trAdv_CFL_v_max              =   7.8639004029862E-03
(PID.TID 0000.0001) %MON trAdv_CFL_w_max              =   5.8712545051246E-03
(PID.TID 0000.0001) %MON advcfl_uvel_max              =   6.5234082214104E-03
(PID.TID 0000.0001) %MON advcfl_vvel_max              =   4.2252367328123E-03
(PID.TID 0000.0001) %MON advcfl_wvel_max              =   6.6325078839841E-03
(PID.TID 0000.0001) %MON advcfl_W_hf_max              =   5.8712545051246E-03
(PID.TID 0000.0001) %MON pe_b_mean                    =   4.9929584227684E-04
(PID.TID 0000.0001) %MON ke_max                       =   1.3705703980196E+00
(PID.TID 0000.0001) %MON ke_mean                      =   1.8293320090942E-04
(PID.TID 0000.0001) %MON ke_vol                       =   1.3398078747857E+18
(PID.TID 0000.0001) %MON vort_r_min                   =  -8.3952987037200E-06
(PID.TID 0000.0001) %MON vort_r_max                   =   3.1274340306222E-06
(PID.TID 0000.0001) %MON vort_a_mean                  =  -2.0549865324846E-05
(PID.TID 0000.0001) %MON vort_a_sd                    =   7.5259517938233E-05
(PID.TID 0000.0001) %MON vort_p_mean                  =  -2.4783372785115E-05
(PID.TID 0000.0001) %MON vort_p_sd                    =   1.2811913537806E-04
(PID.TID 0000.0001) %MON surfExpan_theta_mean         =  -7.6489555499258E-06
(PID.TID 0000.0001) %MON surfExpan_salt_mean          =   1.6174013743682E-06
(PID.TID 0000.0001) // =======================================================
(PID.TID 0000.0001) // End MONITOR dynamic field statistics
(PID.TID 0000.0001) // =======================================================
 Computing Diagnostic #     81  oceTAUX      Counter:       1   Parms: UU      U1      
           Vector  Mate for  oceTAUX      Diagnostic #     82  oceTAUY  exists 
 Computing Diagnostic #     82  oceTAUY      Counter:       1   Parms: VV      U1      
           Vector  Mate for  oceTAUY      Diagnostic #     81  oceTAUX  exists 
 Computing Diagnostic #     85  oceFWflx     Counter:       1   Parms: SM      U1      
 Computing Diagnostic #     86  oceSflux     Counter:       1   Parms: SM      U1      
 Computing Diagnostic #     87  oceQnet      Counter:       1   Parms: SM      U1      
 Computing Diagnostic #     88  oceQsw       Counter:       1   Parms: SM      U1      
 Computing Diagnostic #     27  SALT         Counter:       1   Parms: SMR     MR      
 Computing Diagnostic #     26  THETA        Counter:       1   Parms: SMR     MR      
 Computing Diagnostic #     45  UVELMASS     Counter:       1   Parms: UUr     MR      
           Vector  Mate for  UVELMASS     Diagnostic #     46  VVELMASS exists 
 Computing Diagnostic #     46  VVELMASS     Counter:       1   Parms: VVr     MR      
           Vector  Mate for  VVELMASS     Diagnostic #     45  UVELMASS exists 
 Computing Diagnostic #     83  atmPload     Counter:       1   Parms: SM      U1      
 cg2d: Sum(rhs),rhsMax =  -1.63167649351348E+01  8.30711030484467E+01
(PID.TID 0000.0001)      cg2d_init_res =   2.99888162055030E-01
(PID.TID 0000.0001)      cg2d_iters(min,last) =      -1      10
(PID.TID 0000.0001)      cg2d_last_res =   4.20399190164027E-08
(PID.TID 0000.0001) // =======================================================
(PID.TID 0000.0001) // Begin MONITOR dynamic field statistics
(PID.TID 0000.0001) // =======================================================
(PID.TID 0000.0001) %MON time_tsnumber                =                 72016
(PID.TID 0000.0001) %MON time_secondsf                =   6.4814400000000E+07
(PID.TID 0000.0001) %MON dynstat_eta_max              =   3.8007529849704E+00
(PID.TID 0000.0001) %MON dynstat_eta_min              =  -2.0051117582664E+00
(PID.TID 0000.0001) %MON dynstat_eta_mean             =   1.5750168611670E-02
(PID.TID 0000.0001) %MON dynstat_eta_sd               =   6.1319791696448E-01
(PID.TID 0000.0001) %MON dynstat_eta_del2             =   3.1340430318974E-03
(PID.TID 0000.0001) %MON dynstat_uvel_max             =   1.8982625539617E+00
(PID.TID 0000.0001) %MON dynstat_uvel_min             =  -9.4663059457958E-01
(PID.TID 0000.0001) %MON dynstat_uvel_mean            =  -6.8294866238783E-05
(PID.TID 0000.0001) %MON dynstat_uvel_sd              =   1.4016324499118E-02
(PID.TID 0000.0001) %MON dynstat_uvel_del2            =   1.2937272248456E-04
(PID.TID 0000.0001) %MON dynstat_vvel_max             =   1.0842587263966E+00
(PID.TID 0000.0001) %MON dynstat_vvel_min             =  -1.2966947118080E+00
(PID.TID 0000.0001) %MON dynstat_vvel_mean            =  -4.3142736547362E-04
(PID.TID 0000.0001) %MON dynstat_vvel_sd              =   1.3916002382066E-02
(PID.TID 0000.0001) %MON dynstat_vvel_del2            =   1.3530755220760E-04
(PID.TID 0000.0001) %MON dynstat_wvel_max             =   1.2786020744836E-04
(PID.TID 0000.0001) %MON dynstat_wvel_min             =  -5.4336424838927E-04
(PID.TID 0000.0001) %MON dynstat_wvel_mean            =  -4.0173221038672E-07
(PID.TID 0000.0001) %MON dynstat_wvel_sd              =   8.6106719508651E-06
(PID.TID 0000.0001) %MON dynstat_wvel_del2            =   8.0268482294139E-08
(PID.TID 0000.0001) %MON dynstat_theta_max            =   3.0922592534060E+01
(PID.TID 0000.0001) %MON dynstat_theta_min            =  -3.0092430781219E+00
(PID.TID 0000.0001) %MON dynstat_theta_mean           =   3.9090668495928E+00
(PID.TID 0000.0001) %MON dynstat_theta_sd             =   4.5711269670029E+00
(PID.TID 0000.0001) %MON dynstat_theta_del2           =   2.6477666230355E-03
(PID.TID 0000.0001) %MON dynstat_salt_max             =   4.1365315773016E+01
(PID.TID 0000.0001) %MON dynstat_salt_min             =   1.8518529970984E+01
(PID.TID 0000.0001) %MON dynstat_salt_mean            =   3.4772097369812E+01
(PID.TID 0000.0001) %MON dynstat_salt_sd              =   5.3116157140464E-01
(PID.TID 0000.0001) %MON dynstat_salt_del2            =   8.5046998810756E-04
(PID.TID 0000.0001) %MON dynstat_sst_max              =   3.0922592534060E+01
(PID.TID 0000.0001) %MON dynstat_sst_min              =  -1.8994333134763E+00
(PID.TID 0000.0001) %MON dynstat_sst_mean             =   1.8106344183318E+01
(PID.TID 0000.0001) %MON dynstat_sst_sd               =   9.8059676852515E+00
(PID.TID 0000.0001) %MON dynstat_sst_del2             =   1.5151051390974E-02
(PID.TID 0000.0001) %MON dynstat_sss_max              =   4.1365315773016E+01
(PID.TID 0000.0001) %MON dynstat_sss_min              =   1.8751389694377E+01
(PID.TID 0000.0001) %MON dynstat_sss_mean             =   3.4634783537116E+01
(PID.TID 0000.0001) %MON dynstat_sss_sd               =   1.4625387981085E+00
(PID.TID 0000.0001) %MON dynstat_sss_del2             =   8.7528185513825E-03
(PID.TID 0000.0001) %MON forcing_qnet_max             =   8.9133476562500E+03
(PID.TID 0000.0001) %MON forcing_qnet_min             =  -2.1818632551206E+03
(PID.TID 0000.0001) %MON forcing_qnet_mean            =  -6.8312382454918E+01
(PID.TID 0000.0001) %MON forcing_qnet_sd              =   4.0505608551333E+02
(PID.TID 0000.0001) %MON forcing_qnet_del2            =   1.2241784368721E+01
(PID.TID 0000.0001) %MON forcing_qsw_max              =   0.0000000000000E+00
(PID.TID 0000.0001) %MON forcing_qsw_min              =  -1.0501473993393E+02
(PID.TID 0000.0001) %MON forcing_qsw_mean             =  -2.1146663040651E+01
(PID.TID 0000.0001) %MON forcing_qsw_sd               =   2.9579190758533E+01
(PID.TID 0000.0001) %MON forcing_qsw_del2             =   2.4727740809722E-01
(PID.TID 0000.0001) %MON forcing_empmr_max            =   1.3968721032143E-02
(PID.TID 0000.0001) %MON forcing_empmr_min            =  -1.8343120813370E-01
(PID.TID 0000.0001) %MON forcing_empmr_mean           =  -4.7467028379519E-04
(PID.TID 0000.0001) %MON forcing_empmr_sd             =   7.0105210931659E-03
(PID.TID 0000.0001) %MON forcing_empmr_del2           =   2.8548309246847E-04
(PID.TID 0000.0001) %MON forcing_fu_max               =   6.5910000306337E-01
(PID.TID 0000.0001) %MON forcing_fu_min               =  -4.4023726991208E-01
(PID.TID 0000.0001) %MON forcing_fu_mean              =  -4.5526884684881E-03
(PID.TID 0000.0001) %MON forcing_fu_sd                =   7.5327093376213E-02
(PID.TID 0000.0001) %MON forcing_fu_del2              =   7.6356103889269E-04
(PID.TID 0000.0001) %MON forcing_fv_max               =   3.2699753221633E-01
(PID.TID 0000.0001) %MON forcing_fv_min               =  -3.5430579185154E-01
(PID.TID 0000.0001) %MON forcing_fv_mean              =  -1.1547593711963E-02
(PID.TID 0000.0001) %MON forcing_fv_sd                =   7.3865906553431E-02
(PID.TID 0000.0001) %MON forcing_fv_del2              =   6.5555592857152E-04
(PID.TID 0000.0001) %MON trAdv_CFL_u_max              =   6.2632281153792E-03
(PID.TID 0000.0001) %MON trAdv_CFL_v_max              =   7.3018656934682E-03
(PID.TID 0000.0001) %MON trAdv_CFL_w_max              =   5.5730621426947E-03
(PID.TID 0000.0001) %MON advcfl_uvel_max              =   6.3302626255700E-03
(PID.TID 0000.0001) %MON advcfl_vvel_max              =   3.8858950462241E-03
(PID.TID 0000.0001) %MON advcfl_wvel_max              =   6.3802159350851E-03
(PID.TID 0000.0001) %MON advcfl_W_hf_max              =   5.5730621426947E-03
(PID.TID 0000.0001) %MON pe_b_mean                    =   5.0124543458056E-04
(PID.TID 0000.0001) %MON ke_max                       =   1.1923677369998E+00
(PID.TID 0000.0001) %MON ke_mean                      =   1.8018585802318E-04
(PID.TID 0000.0001) %MON ke_vol                       =   1.3398080264435E+18
(PID.TID 0000.0001) %MON vort_r_min                   =  -8.6538308735346E-06
(PID.TID 0000.0001) %MON vort_r_max                   =   3.0976936950241E-06
(PID.TID 0000.0001) %MON vort_a_mean                  =  -2.0549865324846E-05
(PID.TID 0000.0001) %MON vort_a_sd                    =   7.5259516932875E-05
(PID.TID 0000.0001) %MON vort_p_mean                  =  -2.4783369254752E-05
(PID.TID 0000.0001) %MON vort_p_sd                    =   1.2811913452796E-04
(PID.TID 0000.0001) %MON surfExpan_theta_mean         =  -7.6140363671480E-06
(PID.TID 0000.0001) %MON surfExpan_salt_mean          =   1.6088573296051E-06
(PID.TID 0000.0001) // =======================================================
(PID.TID 0000.0001) // End MONITOR dynamic field statistics
(PID.TID 0000.0001) // =======================================================
 cg2d: Sum(rhs),rhsMax =  -1.61127869258603E+01  8.62981518694025E+01
(PID.TID 0000.0001)      cg2d_init_res =   2.59360422403130E-01
(PID.TID 0000.0001)      cg2d_iters(min,last) =      -1      10
(PID.TID 0000.0001)      cg2d_last_res =   3.92054553437819E-08
(PID.TID 0000.0001) // =======================================================
(PID.TID 0000.0001) // Begin MONITOR dynamic field statistics
(PID.TID 0000.0001) // =======================================================
(PID.TID 0000.0001) %MON time_tsnumber                =                 72017
(PID.TID 0000.0001) %MON time_secondsf                =   6.4815300000000E+07
(PID.TID 0000.0001) %MON dynstat_eta_max              =   3.9461421965147E+00
(PID.TID 0000.0001) %MON dynstat_eta_min              =  -2.2815892104311E+00
(PID.TID 0000.0001) %MON dynstat_eta_mean             =   1.6157469039380E-02
(PID.TID 0000.0001) %MON dynstat_eta_sd               =   6.1457566422007E-01
(PID.TID 0000.0001) %MON dynstat_eta_del2             =   3.3502486870294E-03
(PID.TID 0000.0001) %MON dynstat_uvel_max             =   1.8206501049915E+00
(PID.TID 0000.0001) %MON dynstat_uvel_min             =  -9.2050821303042E-01
(PID.TID 0000.0001) %MON dynstat_uvel_mean            =  -4.6951832739032E-05
(PID.TID 0000.0001) %MON dynstat_uvel_sd              =   1.3883340454849E-02
(PID.TID 0000.0001) %MON dynstat_uvel_del2            =   1.2419284136025E-04
(PID.TID 0000.0001) %MON dynstat_vvel_max             =   9.8306527781123E-01
(PID.TID 0000.0001) %MON dynstat_vvel_min             =  -1.1652098495741E+00
(PID.TID 0000.0001) %MON dynstat_vvel_mean            =  -4.3189944279345E-04
(PID.TID 0000.0001) %MON dynstat_vvel_sd              =   1.3829951347341E-02
(PID.TID 0000.0001) %MON dynstat_vvel_del2            =   1.2592948958745E-04
(PID.TID 0000.0001) %MON dynstat_wvel_max             =   1.3025896903201E-04
(PID.TID 0000.0001) %MON dynstat_wvel_min             =  -5.1830772539464E-04
(PID.TID 0000.0001) %MON dynstat_wvel_mean            =  -3.8661384768538E-07
(PID.TID 0000.0001) %MON dynstat_wvel_sd              =   8.7042150099472E-06
(PID.TID 0000.0001) %MON dynstat_wvel_del2            =   8.0772533323013E-08
(PID.TID 0000.0001) %MON dynstat_theta_max            =   3.0922487905100E+01
(PID.TID 0000.0001) %MON dynstat_theta_min            =  -3.0087703704745E+00
(PID.TID 0000.0001) %MON dynstat_theta_mean           =   3.9090729363769E+00
(PID.TID 0000.0001) %MON dynstat_theta_sd             =   4.5711514785545E+00
(PID.TID 0000.0001) %MON dynstat_theta_del2           =   2.6475880060434E-03
(PID.TID 0000.0001) %MON dynstat_salt_max             =   4.1364479101301E+01
(PID.TID 0000.0001) %MON dynstat_salt_min             =   1.8518539841642E+01
(PID.TID 0000.0001) %MON dynstat_salt_mean            =   3.4772091786292E+01
(PID.TID 0000.0001) %MON dynstat_salt_sd              =   5.3118103544017E-01
(PID.TID 0000.0001) %MON dynstat_salt_del2            =   8.5558380683688E-04
(PID.TID 0000.0001) %MON dynstat_sst_max              =   3.0922487905100E+01
(PID.TID 0000.0001) %MON dynstat_sst_min              =  -1.8994057291261E+00
(PID.TID 0000.0001) %MON dynstat_sst_mean             =   1.8106625017467E+01
(PID.TID 0000.0001) %MON dynstat_sst_sd               =   9.8062635917542E+00
(PID.TID 0000.0001) %MON dynstat_sst_del2             =   1.5146789262783E-02
(PID.TID 0000.0001) %MON dynstat_sss_max              =   4.1364479101301E+01
(PID.TID 0000.0001) %MON dynstat_sss_min              =   1.8751390362476E+01
(PID.TID 0000.0001) %MON dynstat_sss_mean             =   3.4634379657133E+01
(PID.TID 0000.0001) %MON dynstat_sss_sd               =   1.4630234032233E+00
(PID.TID 0000.0001) %MON dynstat_sss_del2             =   8.8310516047576E-03
(PID.TID 0000.0001) %MON forcing_qnet_max             =   1.0224211914062E+04
(PID.TID 0000.0001) %MON forcing_qnet_min             =  -2.2180764903702E+03
(PID.TID 0000.0001) %MON forcing_qnet_mean            =  -6.3576233544222E+01
(PID.TID 0000.0001) %MON forcing_qnet_sd              =   3.8130829896476E+02
(PID.TID 0000.0001) %MON forcing_qnet_del2            =   1.2060286264576E+01
(PID.TID 0000.0001) %MON forcing_qsw_max              =   0.0000000000000E+00
(PID.TID 0000.0001) %MON forcing_qsw_min              =  -1.0668299877702E+02
(PID.TID 0000.0001) %MON forcing_qsw_mean             =  -2.0577982354010E+01
(PID.TID 0000.0001) %MON forcing_qsw_sd               =   2.9214922628836E+01
(PID.TID 0000.0001) %MON forcing_qsw_del2             =   2.5333455973469E-01
(PID.TID 0000.0001) %MON forcing_empmr_max            =   1.3576410710812E-02
(PID.TID 0000.0001) %MON forcing_empmr_min            =  -1.7625211179256E-01
(PID.TID 0000.0001) %MON forcing_empmr_mean           =  -4.6839549186624E-04
(PID.TID 0000.0001) %MON forcing_empmr_sd             =   6.9116955297872E-03
(PID.TID 0000.0001) %MON forcing_empmr_del2           =   2.8172625597209E-04
(PID.TID 0000.0001) %MON forcing_fu_max               =   6.4238235122691E-01
(PID.TID 0000.0001) %MON forcing_fu_min               =  -4.3172823748193E-01
(PID.TID 0000.0001) %MON forcing_fu_mean              =  -4.5021150831950E-03
(PID.TID 0000.0001) %MON forcing_fu_sd                =   7.4830966994056E-02
(PID.TID 0000.0001) %MON forcing_fu_del2              =   7.5571440807512E-04
(PID.TID 0000.0001) %MON forcing_fv_max               =   3.2146298627952E-01
(PID.TID 0000.0001) %MON forcing_fv_min               =  -3.5930593069490E-01
(PID.TID 0000.0001) %MON forcing_fv_mean              =  -1.1388959023166E-02
(PID.TID 0000.0001) %MON forcing_fv_sd                =   7.3467578909923E-02
(PID.TID 0000.0001) %MON forcing_fv_del2              =   6.5175755378853E-04
(PID.TID 0000.0001) %MON trAdv_CFL_u_max              =   6.0225568972970E-03
(PID.TID 0000.0001) %MON trAdv_CFL_v_max              =   6.6325533087863E-03
(PID.TID 0000.0001) %MON trAdv_CFL_w_max              =   5.2735332332405E-03
(PID.TID 0000.0001) %MON advcfl_uvel_max              =   6.0714432204412E-03
(PID.TID 0000.0001) %MON advcfl_vvel_max              =   3.4918652332267E-03
(PID.TID 0000.0001) %MON advcfl_wvel_max              =   6.1305082362631E-03
(PID.TID 0000.0001) %MON advcfl_W_hf_max              =   5.2735332332405E-03
(PID.TID 0000.0001) %MON pe_b_mean                    =   5.0351615449626E-04
(PID.TID 0000.0001) %MON ke_max                       =   1.0002837010664E+00
(PID.TID 0000.0001) %MON ke_mean                      =   1.7737277697967E-04
(PID.TID 0000.0001) %MON ke_vol                       =   1.3398081766402E+18
(PID.TID 0000.0001) %MON vort_r_min                   =  -8.7957676613224E-06
(PID.TID 0000.0001) %MON vort_r_max                   =   3.0499599999010E-06
(PID.TID 0000.0001) %MON vort_a_mean                  =  -2.0549865324846E-05
(PID.TID 0000.0001) %MON vort_a_sd                    =   7.5259516233351E-05
(PID.TID 0000.0001) %MON vort_p_mean                  =  -2.4783365860116E-05
(PID.TID 0000.0001) %MON vort_p_sd                    =   1.2811913759315E-04
(PID.TID 0000.0001) %MON surfExpan_theta_mean         =  -7.5583206854360E-06
(PID.TID 0000.0001) %MON surfExpan_salt_mean          =   1.5921798541831E-06
(PID.TID 0000.0001) // =======================================================
(PID.TID 0000.0001) // End MONITOR dynamic field statistics
(PID.TID 0000.0001) // =======================================================
 cg2d: Sum(rhs),rhsMax =  -1.60843071360354E+01  8.86088773937063E+01
(PID.TID 0000.0001)      cg2d_init_res =   2.27758835090905E-01
(PID.TID 0000.0001)      cg2d_iters(min,last) =      -1      10
(PID.TID 0000.0001)      cg2d_last_res =   3.47904633842321E-08
(PID.TID 0000.0001) // =======================================================
(PID.TID 0000.0001) // Begin MONITOR dynamic field statistics
(PID.TID 0000.0001) // =======================================================
(PID.TID 0000.0001) %MON time_tsnumber                =                 72018
(PID.TID 0000.0001) %MON time_secondsf                =   6.4816200000000E+07
(PID.TID 0000.0001) %MON dynstat_eta_max              =   4.0500647215945E+00
(PID.TID 0000.0001) %MON dynstat_eta_min              =  -2.8062567834672E+00
(PID.TID 0000.0001) %MON dynstat_eta_mean             =   1.6560779134770E-02
(PID.TID 0000.0001) %MON dynstat_eta_sd               =   6.1598651928307E-01
(PID.TID 0000.0001) %MON dynstat_eta_del2             =   3.5334422341940E-03
(PID.TID 0000.0001) %MON dynstat_uvel_max             =   1.7240196993681E+00
(PID.TID 0000.0001) %MON dynstat_uvel_min             =  -8.8793153057991E-01
(PID.TID 0000.0001) %MON dynstat_uvel_mean            =  -2.7161400427243E-05
(PID.TID 0000.0001) %MON dynstat_uvel_sd              =   1.3742625794469E-02
(PID.TID 0000.0001) %MON dynstat_uvel_del2            =   1.1881986261095E-04
(PID.TID 0000.0001) %MON dynstat_vvel_max             =   8.7187618988387E-01
(PID.TID 0000.0001) %MON dynstat_vvel_min             =  -1.0184986290672E+00
(PID.TID 0000.0001) %MON dynstat_vvel_mean            =  -4.3144998250405E-04
(PID.TID 0000.0001) %MON dynstat_vvel_sd              =   1.3763703531980E-02
(PID.TID 0000.0001) %MON dynstat_vvel_del2            =   1.1764579347182E-04
(PID.TID 0000.0001) %MON dynstat_wvel_max             =   1.2420178447131E-04
(PID.TID 0000.0001) %MON dynstat_wvel_min             =  -4.8441377978510E-04
(PID.TID 0000.0001) %MON dynstat_wvel_mean            =  -3.7206333762524E-07
(PID.TID 0000.0001) %MON dynstat_wvel_sd              =   8.8424217807525E-06
(PID.TID 0000.0001) %MON dynstat_wvel_del2            =   8.1406216317487E-08
(PID.TID 0000.0001) %MON dynstat_theta_max            =   3.0922401334945E+01
(PID.TID 0000.0001) %MON dynstat_theta_min            =  -3.0082825932007E+00
(PID.TID 0000.0001) %MON dynstat_theta_mean           =   3.9090786802873E+00
(PID.TID 0000.0001) %MON dynstat_theta_sd             =   4.5711744496836E+00
(PID.TID 0000.0001) %MON dynstat_theta_del2           =   2.6474333909648E-03
(PID.TID 0000.0001) %MON dynstat_salt_max             =   4.1363685636752E+01
(PID.TID 0000.0001) %MON dynstat_salt_min             =   1.8518549709884E+01
(PID.TID 0000.0001) %MON dynstat_salt_mean            =   3.4772086358454E+01
(PID.TID 0000.0001) %MON dynstat_salt_sd              =   5.3120069106887E-01
(PID.TID 0000.0001) %MON dynstat_salt_del2            =   8.6080221812293E-04
(PID.TID 0000.0001) %MON dynstat_sst_max              =   3.0922401334945E+01
(PID.TID 0000.0001) %MON dynstat_sst_min              =  -1.8993774119721E+00
(PID.TID 0000.0001) %MON dynstat_sst_mean             =   1.8106880367924E+01
(PID.TID 0000.0001) %MON dynstat_sst_sd               =   9.8065392677835E+00
(PID.TID 0000.0001) %MON dynstat_sst_del2             =   1.5143167813609E-02
(PID.TID 0000.0001) %MON dynstat_sss_max              =   4.1363685636752E+01
(PID.TID 0000.0001) %MON dynstat_sss_min              =   1.8751391046580E+01
(PID.TID 0000.0001) %MON dynstat_sss_mean             =   3.4633985458665E+01
(PID.TID 0000.0001) %MON dynstat_sss_sd               =   1.4635119252803E+00
(PID.TID 0000.0001) %MON dynstat_sss_del2             =   8.9106762361144E-03
(PID.TID 0000.0001) %MON forcing_qnet_max             =   1.0956213867188E+04
(PID.TID 0000.0001) %MON forcing_qnet_min             =  -2.1824650157821E+03
(PID.TID 0000.0001) %MON forcing_qnet_mean            =  -5.8135736993062E+01
(PID.TID 0000.0001) %MON forcing_qnet_sd              =   3.7367393165200E+02
(PID.TID 0000.0001) %MON forcing_qnet_del2            =   1.2138660460681E+01
(PID.TID 0000.0001) %MON forcing_qsw_max              =   0.0000000000000E+00
(PID.TID 0000.0001) %MON forcing_qsw_min              =  -1.0709944047431E+02
(PID.TID 0000.0001) %MON forcing_qsw_mean             =  -2.0328837896247E+01
(PID.TID 0000.0001) %MON forcing_qsw_sd               =   2.8962773600258E+01
(PID.TID 0000.0001) %MON forcing_qsw_del2             =   2.5590771744834E-01
(PID.TID 0000.0001) %MON forcing_empmr_max            =   1.3207657262683E-02
(PID.TID 0000.0001) %MON forcing_empmr_min            =  -1.7019055783749E-01
(PID.TID 0000.0001) %MON forcing_empmr_mean           =  -4.6380660969817E-04
(PID.TID 0000.0001) %MON forcing_empmr_sd             =   6.8192724135461E-03
(PID.TID 0000.0001) %MON forcing_empmr_del2           =   2.7815615996569E-04
(PID.TID 0000.0001) %MON forcing_fu_max               =   6.2837767616191E-01
(PID.TID 0000.0001) %MON forcing_fu_min               =  -4.2414540478076E-01
(PID.TID 0000.0001) %MON forcing_fu_mean              =  -4.4048327133546E-03
(PID.TID 0000.0001) %MON forcing_fu_sd                =   7.4441899217752E-02
(PID.TID 0000.0001) %MON forcing_fu_del2              =   7.4810587600666E-04
(PID.TID 0000.0001) %MON forcing_fv_max               =   3.1756511629875E-01
(PID.TID 0000.0001) %MON forcing_fv_min               =  -3.6055772959203E-01
(PID.TID 0000.0001) %MON forcing_fv_mean              =  -1.1251066266793E-02
(PID.TID 0000.0001) %MON forcing_fv_sd                =   7.3084172107131E-02
(PID.TID 0000.0001) %MON forcing_fv_del2              =   6.4709819311997E-04
(PID.TID 0000.0001) %MON trAdv_CFL_u_max              =   5.7170519676358E-03
(PID.TID 0000.0001) %MON trAdv_CFL_v_max              =   5.8712529792134E-03
(PID.TID 0000.0001) %MON trAdv_CFL_w_max              =   4.9741303873635E-03
(PID.TID 0000.0001) %MON advcfl_uvel_max              =   5.7492033680376E-03
(PID.TID 0000.0001) %MON advcfl_vvel_max              =   3.0522055355340E-03
(PID.TID 0000.0001) %MON advcfl_wvel_max              =   5.9196715769560E-03
(PID.TID 0000.0001) %MON advcfl_W_hf_max              =   4.9741303873635E-03
(PID.TID 0000.0001) %MON pe_b_mean                    =   5.0584653336960E-04
(PID.TID 0000.0001) %MON ke_max                       =   8.3869568212082E-01
(PID.TID 0000.0001) %MON ke_mean                      =   1.7473799120138E-04
(PID.TID 0000.0001) %MON ke_vol                       =   1.3398083248515E+18
(PID.TID 0000.0001) %MON vort_r_min                   =  -8.8177355591195E-06
(PID.TID 0000.0001) %MON vort_r_max                   =   2.9859673344555E-06
(PID.TID 0000.0001) %MON vort_a_mean                  =  -2.0549865324846E-05
(PID.TID 0000.0001) %MON vort_a_sd                    =   7.5259515770135E-05
(PID.TID 0000.0001) %MON vort_p_mean                  =  -2.4783362603367E-05
(PID.TID 0000.0001) %MON vort_p_sd                    =   1.2811914216206E-04
(PID.TID 0000.0001) %MON surfExpan_theta_mean         =  -7.5246325941658E-06
(PID.TID 0000.0001) %MON surfExpan_salt_mean          =   1.5693320273240E-06
(PID.TID 0000.0001) // =======================================================
(PID.TID 0000.0001) // End MONITOR dynamic field statistics
(PID.TID 0000.0001) // =======================================================
 cg2d: Sum(rhs),rhsMax =  -1.62220143077910E+01  8.99676656882301E+01
(PID.TID 0000.0001)      cg2d_init_res =   2.06065505413538E-01
(PID.TID 0000.0001)      cg2d_iters(min,last) =      -1      10
(PID.TID 0000.0001)      cg2d_last_res =   3.11169528264193E-08
(PID.TID 0000.0001) // =======================================================
(PID.TID 0000.0001) // Begin MONITOR dynamic field statistics
(PID.TID 0000.0001) // =======================================================
(PID.TID 0000.0001) %MON time_tsnumber                =                 72019
(PID.TID 0000.0001) %MON time_secondsf                =   6.4817100000000E+07
(PID.TID 0000.0001) %MON dynstat_eta_max              =   4.1108899096455E+00
(PID.TID 0000.0001) %MON dynstat_eta_min              =  -3.2614971226451E+00
(PID.TID 0000.0001) %MON dynstat_eta_mean             =   1.6958694070412E-02
(PID.TID 0000.0001) %MON dynstat_eta_sd               =   6.1732088495163E-01
(PID.TID 0000.0001) %MON dynstat_eta_del2             =   3.6752827882032E-03
(PID.TID 0000.0001) %MON dynstat_uvel_max             =   1.6092251724592E+00
(PID.TID 0000.0001) %MON dynstat_uvel_min             =  -8.4969239857442E-01
(PID.TID 0000.0001) %MON dynstat_uvel_mean            =  -9.5361954979392E-06
(PID.TID 0000.0001) %MON dynstat_uvel_sd              =   1.3602453521498E-02
(PID.TID 0000.0001) %MON dynstat_uvel_del2            =   1.1347907707472E-04
(PID.TID 0000.0001) %MON dynstat_vvel_max             =   7.5315787628321E-01
(PID.TID 0000.0001) %MON dynstat_vvel_min             =  -8.5971450367478E-01
(PID.TID 0000.0001) %MON dynstat_vvel_mean            =  -4.3063192366986E-04
(PID.TID 0000.0001) %MON dynstat_vvel_sd              =   1.3720867256031E-02
(PID.TID 0000.0001) %MON dynstat_vvel_del2            =   1.1090879629420E-04
(PID.TID 0000.0001) %MON dynstat_wvel_max             =   1.1032314901879E-04
(PID.TID 0000.0001) %MON dynstat_wvel_min             =  -4.4426175032480E-04
(PID.TID 0000.0001) %MON dynstat_wvel_mean            =  -3.5646691231019E-07
(PID.TID 0000.0001) %MON dynstat_wvel_sd              =   8.9944323838695E-06
(PID.TID 0000.0001) %MON dynstat_wvel_del2            =   8.1986882047363E-08
(PID.TID 0000.0001) %MON dynstat_theta_max            =   3.0922332130675E+01
(PID.TID 0000.0001) %MON dynstat_theta_min            =  -3.0078058619982E+00
(PID.TID 0000.0001) %MON dynstat_theta_mean           =   3.9090841202919E+00
(PID.TID 0000.0001) %MON dynstat_theta_sd             =   4.5711959793835E+00
(PID.TID 0000.0001) %MON dynstat_theta_del2           =   2.6472986399758E-03
(PID.TID 0000.0001) %MON dynstat_salt_max             =   4.1362938011408E+01
(PID.TID 0000.0001) %MON dynstat_salt_min             =   1.8518559573880E+01
(PID.TID 0000.0001) %MON dynstat_salt_mean            =   3.4772081101135E+01
(PID.TID 0000.0001) %MON dynstat_salt_sd              =   5.3122049190479E-01
(PID.TID 0000.0001) %MON dynstat_salt_del2            =   8.6610697461358E-04
(PID.TID 0000.0001) %MON dynstat_sst_max              =   3.0922332130675E+01
(PID.TID 0000.0001) %MON dynstat_sst_min              =  -1.8993464627146E+00
(PID.TID 0000.0001) %MON dynstat_sst_mean             =   1.8107117691222E+01
(PID.TID 0000.0001) %MON dynstat_sst_sd               =   9.8067941048721E+00
(PID.TID 0000.0001) %MON dynstat_sst_del2             =   1.5140103355602E-02
(PID.TID 0000.0001) %MON dynstat_sss_max              =   4.1362938011408E+01
(PID.TID 0000.0001) %MON dynstat_sss_min              =   1.8751391696796E+01
(PID.TID 0000.0001) %MON dynstat_sss_mean             =   3.4633603386146E+01
(PID.TID 0000.0001) %MON dynstat_sss_sd               =   1.4640050037219E+00
(PID.TID 0000.0001) %MON dynstat_sss_del2             =   8.9914055743428E-03
(PID.TID 0000.0001) %MON forcing_qnet_max             =   9.4974580078125E+03
(PID.TID 0000.0001) %MON forcing_qnet_min             =  -2.0876234020704E+03
(PID.TID 0000.0001) %MON forcing_qnet_mean            =  -5.3584344331268E+01
(PID.TID 0000.0001) %MON forcing_qnet_sd              =   3.5225776631288E+02
(PID.TID 0000.0001) %MON forcing_qnet_del2            =   1.1052687311888E+01
(PID.TID 0000.0001) %MON forcing_qsw_max              =   0.0000000000000E+00
(PID.TID 0000.0001) %MON forcing_qsw_min              =  -1.0708401254972E+02
(PID.TID 0000.0001) %MON forcing_qsw_mean             =  -2.0030116727484E+01
(PID.TID 0000.0001) %MON forcing_qsw_sd               =   2.8656147774636E+01
(PID.TID 0000.0001) %MON forcing_qsw_del2             =   2.5799688827762E-01
(PID.TID 0000.0001) %MON forcing_empmr_max            =   1.2627361342311E-02
(PID.TID 0000.0001) %MON forcing_empmr_min            =  -1.6425077617168E-01
(PID.TID 0000.0001) %MON forcing_empmr_mean           =  -4.5760217598822E-04
(PID.TID 0000.0001) %MON forcing_empmr_sd             =   6.7173707660054E-03
(PID.TID 0000.0001) %MON forcing_empmr_del2           =   2.7391755600248E-04
(PID.TID 0000.0001) %MON forcing_fu_max               =   6.1185215724632E-01
(PID.TID 0000.0001) %MON forcing_fu_min               =  -4.1653427645559E-01
(PID.TID 0000.0001) %MON forcing_fu_mean              =  -4.3221430741866E-03
(PID.TID 0000.0001) %MON forcing_fu_sd                =   7.3988512289886E-02
(PID.TID 0000.0001) %MON forcing_fu_del2              =   7.4005226708003E-04
(PID.TID 0000.0001) %MON forcing_fv_max               =   3.0961254115684E-01
(PID.TID 0000.0001) %MON forcing_fv_min               =  -3.6297765627093E-01
(PID.TID 0000.0001) %MON forcing_fv_mean              =  -1.1161817623196E-02
(PID.TID 0000.0001) %MON forcing_fv_sd                =   7.2617261735575E-02
(PID.TID 0000.0001) %MON forcing_fv_del2              =   6.4253785223669E-04
(PID.TID 0000.0001) %MON trAdv_CFL_u_max              =   5.3492870885998E-03
(PID.TID 0000.0001) %MON trAdv_CFL_v_max              =   5.0349844516440E-03
(PID.TID 0000.0001) %MON trAdv_CFL_w_max              =   4.6745694162082E-03
(PID.TID 0000.0001) %MON advcfl_uvel_max              =   5.3663904100541E-03
(PID.TID 0000.0001) %MON advcfl_vvel_max              =   2.6310093179920E-03
(PID.TID 0000.0001) %MON advcfl_wvel_max              =   5.7130704755368E-03
(PID.TID 0000.0001) %MON advcfl_W_hf_max              =   4.6745694162082E-03
(PID.TID 0000.0001) %MON pe_b_mean                    =   5.0805659051633E-04
(PID.TID 0000.0001) %MON ke_max                       =   7.4273362421942E-01
(PID.TID 0000.0001) %MON ke_mean                      =   1.7243028343456E-04
(PID.TID 0000.0001) %MON ke_vol                       =   1.3398084716106E+18
(PID.TID 0000.0001) %MON vort_r_min                   =  -8.7191247995128E-06
(PID.TID 0000.0001) %MON vort_r_max                   =   2.9073906134433E-06
(PID.TID 0000.0001) %MON vort_a_mean                  =  -2.0549865324846E-05
(PID.TID 0000.0001) %MON vort_a_sd                    =   7.5259515413780E-05
(PID.TID 0000.0001) %MON vort_p_mean                  =  -2.4783359464178E-05
(PID.TID 0000.0001) %MON vort_p_sd                    =   1.2811914568559E-04
(PID.TID 0000.0001) %MON surfExpan_theta_mean         =  -7.4612639142693E-06
(PID.TID 0000.0001) %MON surfExpan_salt_mean          =   1.5407698271423E-06
(PID.TID 0000.0001) // =======================================================
(PID.TID 0000.0001) // End MONITOR dynamic field statistics
(PID.TID 0000.0001) // =======================================================
 Computing Diagnostic #     81  oceTAUX      Counter:       1   Parms: UU      U1      
           Vector  Mate for  oceTAUX      Diagnostic #     82  oceTAUY  exists 
 Computing Diagnostic #     82  oceTAUY      Counter:       1   Parms: VV      U1      
           Vector  Mate for  oceTAUY      Diagnostic #     81  oceTAUX  exists 
 Computing Diagnostic #     85  oceFWflx     Counter:       1   Parms: SM      U1      
 Computing Diagnostic #     86  oceSflux     Counter:       1   Parms: SM      U1      
 Computing Diagnostic #     87  oceQnet      Counter:       1   Parms: SM      U1      
 Computing Diagnostic #     88  oceQsw       Counter:       1   Parms: SM      U1      
 Computing Diagnostic #     27  SALT         Counter:       1   Parms: SMR     MR      
 Computing Diagnostic #     26  THETA        Counter:       1   Parms: SMR     MR      
 Computing Diagnostic #     45  UVELMASS     Counter:       1   Parms: UUr     MR      
           Vector  Mate for  UVELMASS     Diagnostic #     46  VVELMASS exists 
 Computing Diagnostic #     46  VVELMASS     Counter:       1   Parms: VVr     MR      
           Vector  Mate for  VVELMASS     Diagnostic #     45  UVELMASS exists 
 Computing Diagnostic #     83  atmPload     Counter:       1   Parms: SM      U1      
 cg2d: Sum(rhs),rhsMax =  -1.65262421060312E+01  9.03593093555239E+01
(PID.TID 0000.0001)      cg2d_init_res =   1.93367629959349E-01
(PID.TID 0000.0001)      cg2d_iters(min,last) =      -1      10
(PID.TID 0000.0001)      cg2d_last_res =   3.09945373010685E-08
(PID.TID 0000.0001) // =======================================================
(PID.TID 0000.0001) // Begin MONITOR dynamic field statistics
(PID.TID 0000.0001) // =======================================================
(PID.TID 0000.0001) %MON time_tsnumber                =                 72020
(PID.TID 0000.0001) %MON time_secondsf                =   6.4818000000000E+07
(PID.TID 0000.0001) %MON dynstat_eta_max              =   4.1279101031346E+00
(PID.TID 0000.0001) %MON dynstat_eta_min              =  -3.6434245412657E+00
(PID.TID 0000.0001) %MON dynstat_eta_mean             =   1.7351945974830E-02
(PID.TID 0000.0001) %MON dynstat_eta_sd               =   6.1852030293574E-01
(PID.TID 0000.0001) %MON dynstat_eta_del2             =   3.7741163584679E-03
(PID.TID 0000.0001) %MON dynstat_uvel_max             =   1.4774321452940E+00
(PID.TID 0000.0001) %MON dynstat_uvel_min             =  -8.0667173456188E-01
(PID.TID 0000.0001) %MON dynstat_uvel_mean            =   5.2332030654188E-06
(PID.TID 0000.0001) %MON dynstat_uvel_sd              =   1.3467708030795E-02
(PID.TID 0000.0001) %MON dynstat_uvel_del2            =   1.0833917941616E-04
(PID.TID 0000.0001) %MON dynstat_vvel_max             =   6.2934989917367E-01
(PID.TID 0000.0001) %MON dynstat_vvel_min             =  -8.4062714293197E-01
(PID.TID 0000.0001) %MON dynstat_vvel_mean            =  -4.2999506923656E-04
(PID.TID 0000.0001) %MON dynstat_vvel_sd              =   1.3701733110491E-02
(PID.TID 0000.0001) %MON dynstat_vvel_del2            =   1.0604622406891E-04
(PID.TID 0000.0001) %MON dynstat_wvel_max             =   1.0754425968790E-04
(PID.TID 0000.0001) %MON dynstat_wvel_min             =  -4.0086371237545E-04
(PID.TID 0000.0001) %MON dynstat_wvel_mean            =  -3.4082134630500E-07
(PID.TID 0000.0001) %MON dynstat_wvel_sd              =   9.1227560140937E-06
(PID.TID 0000.0001) %MON dynstat_wvel_del2            =   8.2380354257373E-08
(PID.TID 0000.0001) %MON dynstat_theta_max            =   3.0922280784125E+01
(PID.TID 0000.0001) %MON dynstat_theta_min            =  -3.0073647143288E+00
(PID.TID 0000.0001) %MON dynstat_theta_mean           =   3.9090892361360E+00
(PID.TID 0000.0001) %MON dynstat_theta_sd             =   4.5712158136964E+00
(PID.TID 0000.0001) %MON dynstat_theta_del2           =   2.6471596448753E-03
(PID.TID 0000.0001) %MON dynstat_salt_max             =   4.1362238262965E+01
(PID.TID 0000.0001) %MON dynstat_salt_min             =   1.8518569435815E+01
(PID.TID 0000.0001) %MON dynstat_salt_mean            =   3.4772075983201E+01
(PID.TID 0000.0001) %MON dynstat_salt_sd              =   5.3124038684347E-01
(PID.TID 0000.0001) %MON dynstat_salt_del2            =   8.7147933950481E-04
(PID.TID 0000.0001) %MON dynstat_sst_max              =   3.0922280784125E+01
(PID.TID 0000.0001) %MON dynstat_sst_min              =  -1.8993132155607E+00
(PID.TID 0000.0001) %MON dynstat_sst_mean             =   1.8107335605274E+01
(PID.TID 0000.0001) %MON dynstat_sst_sd               =   9.8070220082475E+00
(PID.TID 0000.0001) %MON dynstat_sst_del2             =   1.5136919819291E-02
(PID.TID 0000.0001) %MON dynstat_sss_max              =   4.1362238262965E+01
(PID.TID 0000.0001) %MON dynstat_sss_min              =   1.8751392279919E+01
(PID.TID 0000.0001) %MON dynstat_sss_mean             =   3.4633231486975E+01
(PID.TID 0000.0001) %MON dynstat_sss_sd               =   1.4645013923747E+00
(PID.TID 0000.0001) %MON dynstat_sss_del2             =   9.0729483635662E-03
(PID.TID 0000.0001) %MON forcing_qnet_max             =   4.9919912109375E+03
(PID.TID 0000.0001) %MON forcing_qnet_min             =  -2.3174179687500E+03
(PID.TID 0000.0001) %MON forcing_qnet_mean            =  -4.8521582183578E+01
(PID.TID 0000.0001) %MON forcing_qnet_sd              =   3.2417000067835E+02
(PID.TID 0000.0001) %MON forcing_qnet_del2            =   9.5378915160874E+00
(PID.TID 0000.0001) %MON forcing_qsw_max              =   0.0000000000000E+00
(PID.TID 0000.0001) %MON forcing_qsw_min              =  -1.0737615729213E+02
(PID.TID 0000.0001) %MON forcing_qsw_mean             =  -1.9683801446391E+01
(PID.TID 0000.0001) %MON forcing_qsw_sd               =   2.8298798062255E+01
(PID.TID 0000.0001) %MON forcing_qsw_del2             =   2.5957875183078E-01
(PID.TID 0000.0001) %MON forcing_empmr_max            =   1.2137210927904E-02
(PID.TID 0000.0001) %MON forcing_empmr_min            =  -1.5917983651161E-01
(PID.TID 0000.0001) %MON forcing_empmr_mean           =  -4.5223969008096E-04
(PID.TID 0000.0001) %MON forcing_empmr_sd             =   6.6193323331379E-03
(PID.TID 0000.0001) %MON forcing_empmr_del2           =   2.6975634308340E-04
(PID.TID 0000.0001) %MON forcing_fu_max               =   5.9757641611130E-01
(PID.TID 0000.0001) %MON forcing_fu_min               =  -4.1248319118849E-01
(PID.TID 0000.0001) %MON forcing_fu_mean              =  -4.2629896406387E-03
(PID.TID 0000.0001) %MON forcing_fu_sd                =   7.3616799468311E-02
(PID.TID 0000.0001) %MON forcing_fu_del2              =   7.3263228824712E-04
(PID.TID 0000.0001) %MON forcing_fv_max               =   3.0614812538424E-01
(PID.TID 0000.0001) %MON forcing_fv_min               =  -3.5915607501442E-01
(PID.TID 0000.0001) %MON forcing_fv_mean              =  -1.1119789037961E-02
(PID.TID 0000.0001) %MON forcing_fv_sd                =   7.2118940232531E-02
(PID.TID 0000.0001) %MON forcing_fv_del2              =   6.3702684689088E-04
(PID.TID 0000.0001) %MON trAdv_CFL_u_max              =   4.9227411234221E-03
(PID.TID 0000.0001) %MON trAdv_CFL_v_max              =   4.1420546456387E-03
(PID.TID 0000.0001) %MON trAdv_CFL_w_max              =   4.3738954985990E-03
(PID.TID 0000.0001) %MON advcfl_uvel_max              =   4.9268914206054E-03
(PID.TID 0000.0001) %MON advcfl_vvel_max              =   2.8724273632117E-03
(PID.TID 0000.0001) %MON advcfl_wvel_max              =   5.5366899656213E-03
(PID.TID 0000.0001) %MON advcfl_W_hf_max              =   4.3738954985990E-03
(PID.TID 0000.0001) %MON pe_b_mean                    =   5.1004918563028E-04
(PID.TID 0000.0001) %MON ke_max                       =   6.8572258866194E-01
(PID.TID 0000.0001) %MON ke_mean                      =   1.7051089148269E-04
(PID.TID 0000.0001) %MON ke_vol                       =   1.3398086164066E+18
(PID.TID 0000.0001) %MON vort_r_min                   =  -8.5020003126778E-06
(PID.TID 0000.0001) %MON vort_r_max                   =   2.9136676545046E-06
(PID.TID 0000.0001) %MON vort_a_mean                  =  -2.0549865324846E-05
(PID.TID 0000.0001) %MON vort_a_sd                    =   7.5259515008144E-05
(PID.TID 0000.0001) %MON vort_p_mean                  =  -2.4783356441261E-05
(PID.TID 0000.0001) %MON vort_p_sd                    =   1.2811914607439E-04
(PID.TID 0000.0001) %MON surfExpan_theta_mean         =  -7.4096588300592E-06
(PID.TID 0000.0001) %MON surfExpan_salt_mean          =   1.5094068886661E-06
(PID.TID 0000.0001) // =======================================================
(PID.TID 0000.0001) // End MONITOR dynamic field statistics
(PID.TID 0000.0001) // =======================================================
 cg2d: Sum(rhs),rhsMax =  -1.70029571172703E+01  8.97882808030408E+01
(PID.TID 0000.0001)      cg2d_init_res =   1.87201485132346E-01
(PID.TID 0000.0001)      cg2d_iters(min,last) =      -1      10
(PID.TID 0000.0001)      cg2d_last_res =   3.42479504843711E-08
(PID.TID 0000.0001) // =======================================================
(PID.TID 0000.0001) // Begin MONITOR dynamic field statistics
(PID.TID 0000.0001) // =======================================================
(PID.TID 0000.0001) %MON time_tsnumber                =                 72021
(PID.TID 0000.0001) %MON time_secondsf                =   6.4818900000000E+07
(PID.TID 0000.0001) %MON dynstat_eta_max              =   4.1013083389393E+00
(PID.TID 0000.0001) %MON dynstat_eta_min              =  -3.9489477611411E+00
(PID.TID 0000.0001) %MON dynstat_eta_mean             =   1.7739659876857E-02
(PID.TID 0000.0001) %MON dynstat_eta_sd               =   6.1956350280428E-01
(PID.TID 0000.0001) %MON dynstat_eta_del2             =   3.8319070612029E-03
(PID.TID 0000.0001) %MON dynstat_uvel_max             =   1.3302219371482E+00
(PID.TID 0000.0001) %MON dynstat_uvel_min             =  -7.5973699506213E-01
(PID.TID 0000.0001) %MON dynstat_uvel_mean            =   1.6428843165350E-05
(PID.TID 0000.0001) %MON dynstat_uvel_sd              =   1.3340494235707E-02
(PID.TID 0000.0001) %MON dynstat_uvel_del2            =   1.0352081592766E-04
(PID.TID 0000.0001) %MON dynstat_vvel_max             =   5.0282134800799E-01
(PID.TID 0000.0001) %MON dynstat_vvel_min             =  -8.9617308267396E-01
(PID.TID 0000.0001) %MON dynstat_vvel_mean            =  -4.2999827116707E-04
(PID.TID 0000.0001) %MON dynstat_vvel_sd              =   1.3704101504532E-02
(PID.TID 0000.0001) %MON dynstat_vvel_del2            =   1.0319889264851E-04
(PID.TID 0000.0001) %MON dynstat_wvel_max             =   1.0635641325284E-04
(PID.TID 0000.0001) %MON dynstat_wvel_min             =  -3.6934006562984E-04
(PID.TID 0000.0001) %MON dynstat_wvel_mean            =  -3.2424621863787E-07
(PID.TID 0000.0001) %MON dynstat_wvel_sd              =   9.1961356182127E-06
(PID.TID 0000.0001) %MON dynstat_wvel_del2            =   8.2401351168185E-08
(PID.TID 0000.0001) %MON dynstat_theta_max            =   3.0922269565567E+01
(PID.TID 0000.0001) %MON dynstat_theta_min            =  -3.0069784064018E+00
(PID.TID 0000.0001) %MON dynstat_theta_mean           =   3.9090939817123E+00
(PID.TID 0000.0001) %MON dynstat_theta_sd             =   4.5712340984674E+00
(PID.TID 0000.0001) %MON dynstat_theta_del2           =   2.6470091937324E-03
(PID.TID 0000.0001) %MON dynstat_salt_max             =   4.1361587376178E+01
(PID.TID 0000.0001) %MON dynstat_salt_min             =   1.8518579300736E+01
(PID.TID 0000.0001) %MON dynstat_salt_mean            =   3.4772071040159E+01
(PID.TID 0000.0001) %MON dynstat_salt_sd              =   5.3126041821870E-01
(PID.TID 0000.0001) %MON dynstat_salt_del2            =   8.7689993276270E-04
(PID.TID 0000.0001) %MON dynstat_sst_max              =   3.0922269565567E+01
(PID.TID 0000.0001) %MON dynstat_sst_min              =  -1.8992757258389E+00
(PID.TID 0000.0001) %MON dynstat_sst_mean             =   1.8107534482742E+01
(PID.TID 0000.0001) %MON dynstat_sst_sd               =   9.8072340637427E+00
(PID.TID 0000.0001) %MON dynstat_sst_del2             =   1.5133468467090E-02
(PID.TID 0000.0001) %MON dynstat_sss_max              =   4.1361587376178E+01
(PID.TID 0000.0001) %MON dynstat_sss_min              =   1.8751392902357E+01
(PID.TID 0000.0001) %MON dynstat_sss_mean             =   3.4632873706154E+01
(PID.TID 0000.0001) %MON dynstat_sss_sd               =   1.4650041239094E+00
(PID.TID 0000.0001) %MON dynstat_sss_del2             =   9.1550078520428E-03
(PID.TID 0000.0001) %MON forcing_qnet_max             =   3.2182795423826E+03
(PID.TID 0000.0001) %MON forcing_qnet_min             =  -3.7539907226562E+03
(PID.TID 0000.0001) %MON forcing_qnet_mean            =  -4.2742009849680E+01
(PID.TID 0000.0001) %MON forcing_qnet_sd              =   3.0206326321918E+02
(PID.TID 0000.0001) %MON forcing_qnet_del2            =   8.4936822567623E+00
(PID.TID 0000.0001) %MON forcing_qsw_max              =   0.0000000000000E+00
(PID.TID 0000.0001) %MON forcing_qsw_min              =  -1.0855775934124E+02
(PID.TID 0000.0001) %MON forcing_qsw_mean             =  -1.9099065535574E+01
(PID.TID 0000.0001) %MON forcing_qsw_sd               =   2.7750035476500E+01
(PID.TID 0000.0001) %MON forcing_qsw_del2             =   2.6336800206343E-01
(PID.TID 0000.0001) %MON forcing_empmr_max            =   1.1458219029009E-02
(PID.TID 0000.0001) %MON forcing_empmr_min            =  -1.5516774356365E-01
(PID.TID 0000.0001) %MON forcing_empmr_mean           =  -4.4587098733115E-04
(PID.TID 0000.0001) %MON forcing_empmr_sd             =   6.5174319395212E-03
(PID.TID 0000.0001) %MON forcing_empmr_del2           =   2.6516146787216E-04
(PID.TID 0000.0001) %MON forcing_fu_max               =   5.8651884095644E-01
(PID.TID 0000.0001) %MON forcing_fu_min               =  -4.0892068504495E-01
(PID.TID 0000.0001) %MON forcing_fu_mean              =  -4.2508491688244E-03
(PID.TID 0000.0001) %MON forcing_fu_sd                =   7.3011126327878E-02
(PID.TID 0000.0001) %MON forcing_fu_del2              =   7.2484814536040E-04
(PID.TID 0000.0001) %MON forcing_fv_max               =   3.1052234664297E-01
(PID.TID 0000.0001) %MON forcing_fv_min               =  -3.5618666414379E-01
(PID.TID 0000.0001) %MON forcing_fv_mean              =  -1.1120444691107E-02
(PID.TID 0000.0001) %MON forcing_fv_sd                =   7.1575768679285E-02
(PID.TID 0000.0001) %MON forcing_fv_del2              =   6.3166264297299E-04
(PID.TID 0000.0001) %MON trAdv_CFL_u_max              =   4.4422025178540E-03
(PID.TID 0000.0001) %MON trAdv_CFL_v_max              =   3.2114821300319E-03
(PID.TID 0000.0001) %MON trAdv_CFL_w_max              =   4.0713181994776E-03
(PID.TID 0000.0001) %MON advcfl_uvel_max              =   4.4359797304482E-03
(PID.TID 0000.0001) %MON advcfl_vvel_max              =   3.0622281310928E-03
(PID.TID 0000.0001) %MON advcfl_wvel_max              =   5.3971389065618E-03
(PID.TID 0000.0001) %MON advcfl_W_hf_max              =   4.0713181994776E-03
(PID.TID 0000.0001) %MON pe_b_mean                    =   5.1178785640771E-04
(PID.TID 0000.0001) %MON ke_max                       =   6.2749838176797E-01
(PID.TID 0000.0001) %MON ke_mean                      =   1.6897442718970E-04
(PID.TID 0000.0001) %MON ke_vol                       =   1.3398087595058E+18
(PID.TID 0000.0001) %MON vort_r_min                   =  -8.1709820394958E-06
(PID.TID 0000.0001) %MON vort_r_max                   =   2.9417021620684E-06
(PID.TID 0000.0001) %MON vort_a_mean                  =  -2.0549865324846E-05
(PID.TID 0000.0001) %MON vort_a_sd                    =   7.5259514398229E-05
(PID.TID 0000.0001) %MON vort_p_mean                  =  -2.4783353518820E-05
(PID.TID 0000.0001) %MON vort_p_sd                    =   1.2811914186382E-04
(PID.TID 0000.0001) %MON surfExpan_theta_mean         =  -7.3506909908888E-06
(PID.TID 0000.0001) %MON surfExpan_salt_mean          =   1.4758866589714E-06
(PID.TID 0000.0001) // =======================================================
(PID.TID 0000.0001) // End MONITOR dynamic field statistics
(PID.TID 0000.0001) // =======================================================
 cg2d: Sum(rhs),rhsMax =  -1.76667845356460E+01  8.82776568074050E+01
(PID.TID 0000.0001)      cg2d_init_res =   1.84863397362417E-01
(PID.TID 0000.0001)      cg2d_iters(min,last) =      -1       9
(PID.TID 0000.0001)      cg2d_last_res =   9.07047671893462E-08
(PID.TID 0000.0001) // =======================================================
(PID.TID 0000.0001) // Begin MONITOR dynamic field statistics
(PID.TID 0000.0001) // =======================================================
(PID.TID 0000.0001) %MON time_tsnumber                =                 72022
(PID.TID 0000.0001) %MON time_secondsf                =   6.4819800000000E+07
(PID.TID 0000.0001) %MON dynstat_eta_max              =   4.0321105565710E+00
(PID.TID 0000.0001) %MON dynstat_eta_min              =  -4.1760114961159E+00
(PID.TID 0000.0001) %MON dynstat_eta_mean             =   1.8122140060641E-02
(PID.TID 0000.0001) %MON dynstat_eta_sd               =   6.2044602734094E-01
(PID.TID 0000.0001) %MON dynstat_eta_del2             =   3.8518320354543E-03
(PID.TID 0000.0001) %MON dynstat_uvel_max             =   1.1696462193596E+00
(PID.TID 0000.0001) %MON dynstat_uvel_min             =  -7.0975054479572E-01
(PID.TID 0000.0001) %MON dynstat_uvel_mean            =   2.3410192394950E-05
(PID.TID 0000.0001) %MON dynstat_uvel_sd              =   1.3222219721982E-02
(PID.TID 0000.0001) %MON dynstat_uvel_del2            =   9.9114885020719E-05
(PID.TID 0000.0001) %MON dynstat_vvel_max             =   3.7581882376667E-01
(PID.TID 0000.0001) %MON dynstat_vvel_min             =  -9.3649932200020E-01
(PID.TID 0000.0001) %MON dynstat_vvel_mean            =  -4.3091952113636E-04
(PID.TID 0000.0001) %MON dynstat_vvel_sd              =   1.3724413426413E-02
(PID.TID 0000.0001) %MON dynstat_vvel_del2            =   1.0229119548242E-04
(PID.TID 0000.0001) %MON dynstat_wvel_max             =   1.0654265986101E-04
(PID.TID 0000.0001) %MON dynstat_wvel_min             =  -4.0939009427543E-04
(PID.TID 0000.0001) %MON dynstat_wvel_mean            =  -3.0723241848001E-07
(PID.TID 0000.0001) %MON dynstat_wvel_sd              =   9.1998976037116E-06
(PID.TID 0000.0001) %MON dynstat_wvel_del2            =   8.2010846635392E-08
(PID.TID 0000.0001) %MON dynstat_theta_max            =   3.0922277807095E+01
(PID.TID 0000.0001) %MON dynstat_theta_min            =  -3.0066587221260E+00
(PID.TID 0000.0001) %MON dynstat_theta_mean           =   3.9090985702114E+00
(PID.TID 0000.0001) %MON dynstat_theta_sd             =   4.5712516204003E+00
(PID.TID 0000.0001) %MON dynstat_theta_del2           =   2.6468428403943E-03
(PID.TID 0000.0001) %MON dynstat_salt_max             =   4.1360984637779E+01
(PID.TID 0000.0001) %MON dynstat_salt_min             =   1.8518589175858E+01
(PID.TID 0000.0001) %MON dynstat_salt_mean            =   3.4772066268807E+01
(PID.TID 0000.0001) %MON dynstat_salt_sd              =   5.3128048561798E-01
(PID.TID 0000.0001) %MON dynstat_salt_del2            =   8.8236155179151E-04
(PID.TID 0000.0001) %MON dynstat_sst_max              =   3.0922277807095E+01
(PID.TID 0000.0001) %MON dynstat_sst_min              =  -1.8992342953089E+00
(PID.TID 0000.0001) %MON dynstat_sst_mean             =   1.8107723140029E+01
(PID.TID 0000.0001) %MON dynstat_sst_sd               =   9.8074323818041E+00
(PID.TID 0000.0001) %MON dynstat_sst_del2             =   1.5129597747922E-02
(PID.TID 0000.0001) %MON dynstat_sss_max              =   4.1360984637779E+01
(PID.TID 0000.0001) %MON dynstat_sss_min              =   1.8751393489338E+01
(PID.TID 0000.0001) %MON dynstat_sss_mean             =   3.4632527574948E+01
(PID.TID 0000.0001) %MON dynstat_sss_sd               =   1.4655074890580E+00
(PID.TID 0000.0001) %MON dynstat_sss_del2             =   9.2374750695279E-03
(PID.TID 0000.0001) %MON forcing_qnet_max             =   3.8427107526287E+03
(PID.TID 0000.0001) %MON forcing_qnet_min             =  -1.3052614257812E+04
(PID.TID 0000.0001) %MON forcing_qnet_mean            =  -4.0501026157742E+01
(PID.TID 0000.0001) %MON forcing_qnet_sd              =   3.5616687708427E+02
(PID.TID 0000.0001) %MON forcing_qnet_del2            =   1.1380937872716E+01
(PID.TID 0000.0001) %MON forcing_qsw_max              =   0.0000000000000E+00
(PID.TID 0000.0001) %MON forcing_qsw_min              =  -1.0994675882035E+02
(PID.TID 0000.0001) %MON forcing_qsw_mean             =  -1.8865284514490E+01
(PID.TID 0000.0001) %MON forcing_qsw_sd               =   2.7440444366946E+01
(PID.TID 0000.0001) %MON forcing_qsw_del2             =   2.6494844633851E-01
(PID.TID 0000.0001) %MON forcing_empmr_max            =   1.0724512860179E-02
(PID.TID 0000.0001) %MON forcing_empmr_min            =  -1.5148304402828E-01
(PID.TID 0000.0001) %MON forcing_empmr_mean           =  -4.3985221135094E-04
(PID.TID 0000.0001) %MON forcing_empmr_sd             =   6.4155280462722E-03
(PID.TID 0000.0001) %MON forcing_empmr_del2           =   2.6049987037676E-04
(PID.TID 0000.0001) %MON forcing_fu_max               =   5.7270231661761E-01
(PID.TID 0000.0001) %MON forcing_fu_min               =  -4.0442582532851E-01
(PID.TID 0000.0001) %MON forcing_fu_mean              =  -4.2233617709083E-03
(PID.TID 0000.0001) %MON forcing_fu_sd                =   7.2467946787453E-02
(PID.TID 0000.0001) %MON forcing_fu_del2              =   7.1678900998411E-04
(PID.TID 0000.0001) %MON forcing_fv_max               =   3.1380891554650E-01
(PID.TID 0000.0001) %MON forcing_fv_min               =  -3.4830697316457E-01
(PID.TID 0000.0001) %MON forcing_fv_mean              =  -1.1107292237453E-02
(PID.TID 0000.0001) %MON forcing_fv_sd                =   7.1037833671891E-02
(PID.TID 0000.0001) %MON forcing_fv_del2              =   6.2619975491029E-04
(PID.TID 0000.0001) %MON trAdv_CFL_u_max              =   3.9140749134407E-03
(PID.TID 0000.0001) %MON trAdv_CFL_v_max              =   3.0527268556971E-03
(PID.TID 0000.0001) %MON trAdv_CFL_w_max              =   3.7668499525935E-03
(PID.TID 0000.0001) %MON advcfl_uvel_max              =   3.9004971847013E-03
(PID.TID 0000.0001) %MON advcfl_vvel_max              =   3.2000231027042E-03
(PID.TID 0000.0001) %MON advcfl_wvel_max              =   5.2689754444620E-03
(PID.TID 0000.0001) %MON advcfl_W_hf_max              =   3.7668499525935E-03
(PID.TID 0000.0001) %MON pe_b_mean                    =   5.1326392977938E-04
(PID.TID 0000.0001) %MON ke_max                       =   5.7002544293343E-01
(PID.TID 0000.0001) %MON ke_mean                      =   1.6779015705480E-04
(PID.TID 0000.0001) %MON ke_vol                       =   1.3398089005897E+18
(PID.TID 0000.0001) %MON vort_r_min                   =  -7.7330790930500E-06
(PID.TID 0000.0001) %MON vort_r_max                   =   2.9498963308912E-06
(PID.TID 0000.0001) %MON vort_a_mean                  =  -2.0549865324846E-05
(PID.TID 0000.0001) %MON vort_a_sd                    =   7.5259513471611E-05
(PID.TID 0000.0001) %MON vort_p_mean                  =  -2.4783350693459E-05
(PID.TID 0000.0001) %MON vort_p_sd                    =   1.2811913255473E-04
(PID.TID 0000.0001) %MON surfExpan_theta_mean         =  -7.2988593487676E-06
(PID.TID 0000.0001) %MON surfExpan_salt_mean          =   1.4410616715629E-06
(PID.TID 0000.0001) // =======================================================
(PID.TID 0000.0001) // End MONITOR dynamic field statistics
(PID.TID 0000.0001) // =======================================================
 cg2d: Sum(rhs),rhsMax =  -1.85411010705626E+01  8.58676873464220E+01
(PID.TID 0000.0001)      cg2d_init_res =   1.84605658325226E-01
(PID.TID 0000.0001)      cg2d_iters(min,last) =      -1      10
(PID.TID 0000.0001)      cg2d_last_res =   3.84115601174832E-08
(PID.TID 0000.0001) // =======================================================
(PID.TID 0000.0001) // Begin MONITOR dynamic field statistics
(PID.TID 0000.0001) // =======================================================
(PID.TID 0000.0001) %MON time_tsnumber                =                 72023
(PID.TID 0000.0001) %MON time_secondsf                =   6.4820700000000E+07
(PID.TID 0000.0001) %MON dynstat_eta_max              =   3.9221215646027E+00
(PID.TID 0000.0001) %MON dynstat_eta_min              =  -4.3235810485561E+00
(PID.TID 0000.0001) %MON dynstat_eta_mean             =   1.8499775615587E-02
(PID.TID 0000.0001) %MON dynstat_eta_sd               =   6.2116490094074E-01
(PID.TID 0000.0001) %MON dynstat_eta_del2             =   3.8368223671608E-03
(PID.TID 0000.0001) %MON dynstat_uvel_max             =   9.9823209589560E-01
(PID.TID 0000.0001) %MON dynstat_uvel_min             =  -6.5756697799131E-01
(PID.TID 0000.0001) %MON dynstat_uvel_mean            =   2.5633131738322E-05
(PID.TID 0000.0001) %MON dynstat_uvel_sd              =   1.3114591622262E-02
(PID.TID 0000.0001) %MON dynstat_uvel_del2            =   9.5201520808927E-05
(PID.TID 0000.0001) %MON dynstat_vvel_max             =   3.1419161080624E-01
(PID.TID 0000.0001) %MON dynstat_vvel_min             =  -9.6157956139102E-01
(PID.TID 0000.0001) %MON dynstat_vvel_mean            =  -4.3289075192869E-04
(PID.TID 0000.0001) %MON dynstat_vvel_sd              =   1.3758569258606E-02
(PID.TID 0000.0001) %MON dynstat_vvel_del2            =   1.0305562210749E-04
(PID.TID 0000.0001) %MON dynstat_wvel_max             =   1.0821595356991E-04
(PID.TID 0000.0001) %MON dynstat_wvel_min             =  -4.3457920478996E-04
(PID.TID 0000.0001) %MON dynstat_wvel_mean            =  -2.8946108357346E-07
(PID.TID 0000.0001) %MON dynstat_wvel_sd              =   9.1375606847744E-06
(PID.TID 0000.0001) %MON dynstat_wvel_del2            =   8.1247441611216E-08
(PID.TID 0000.0001) %MON dynstat_theta_max            =   3.0922304522700E+01
(PID.TID 0000.0001) %MON dynstat_theta_min            =  -3.0064094004809E+00
(PID.TID 0000.0001) %MON dynstat_theta_mean           =   3.9091028641196E+00
(PID.TID 0000.0001) %MON dynstat_theta_sd             =   4.5712682459804E+00
(PID.TID 0000.0001) %MON dynstat_theta_del2           =   2.6466790579009E-03
(PID.TID 0000.0001) %MON dynstat_salt_max             =   4.1360428832151E+01
(PID.TID 0000.0001) %MON dynstat_salt_min             =   1.8518599069067E+01
(PID.TID 0000.0001) %MON dynstat_salt_mean            =   3.4772061614670E+01
(PID.TID 0000.0001) %MON dynstat_salt_sd              =   5.3130069392652E-01
(PID.TID 0000.0001) %MON dynstat_salt_del2            =   8.8786448270165E-04
(PID.TID 0000.0001) %MON dynstat_sst_max              =   3.0922304522700E+01
(PID.TID 0000.0001) %MON dynstat_sst_min              =  -1.8991870337493E+00
(PID.TID 0000.0001) %MON dynstat_sst_mean             =   1.8107897984389E+01
(PID.TID 0000.0001) %MON dynstat_sst_sd               =   9.8076277541896E+00
(PID.TID 0000.0001) %MON dynstat_sst_del2             =   1.5125847880845E-02
(PID.TID 0000.0001) %MON dynstat_sss_max              =   4.1360428832151E+01
(PID.TID 0000.0001) %MON dynstat_sss_min              =   1.8751394070808E+01
(PID.TID 0000.0001) %MON dynstat_sss_mean             =   3.4632191258625E+01
(PID.TID 0000.0001) %MON dynstat_sss_sd               =   1.4660165419521E+00
(PID.TID 0000.0001) %MON dynstat_sss_del2             =   9.3203472697779E-03
(PID.TID 0000.0001) %MON forcing_qnet_max             =   3.1290037849872E+03
(PID.TID 0000.0001) %MON forcing_qnet_min             =  -3.7462631835938E+03
(PID.TID 0000.0001) %MON forcing_qnet_mean            =  -3.5880594648694E+01
(PID.TID 0000.0001) %MON forcing_qnet_sd              =   2.8397252649632E+02
(PID.TID 0000.0001) %MON forcing_qnet_del2            =   8.1310732017731E+00
(PID.TID 0000.0001) %MON forcing_qsw_max              =   0.0000000000000E+00
(PID.TID 0000.0001) %MON forcing_qsw_min              =  -1.1087909426604E+02
(PID.TID 0000.0001) %MON forcing_qsw_mean             =  -1.8590525923904E+01
(PID.TID 0000.0001) %MON forcing_qsw_sd               =   2.7090444117152E+01
(PID.TID 0000.0001) %MON forcing_qsw_del2             =   2.6581135767359E-01
(PID.TID 0000.0001) %MON forcing_empmr_max            =   9.9036060273647E-03
(PID.TID 0000.0001) %MON forcing_empmr_min            =  -1.4781662821770E-01
(PID.TID 0000.0001) %MON forcing_empmr_mean           =  -4.3428088818905E-04
(PID.TID 0000.0001) %MON forcing_empmr_sd             =   6.3148281896951E-03
(PID.TID 0000.0001) %MON forcing_empmr_del2           =   2.5593549844129E-04
(PID.TID 0000.0001) %MON forcing_fu_max               =   5.5629221077727E-01
(PID.TID 0000.0001) %MON forcing_fu_min               =  -4.0114644380315E-01
(PID.TID 0000.0001) %MON forcing_fu_mean              =  -4.1745956222491E-03
(PID.TID 0000.0001) %MON forcing_fu_sd                =   7.2132199886970E-02
(PID.TID 0000.0001) %MON forcing_fu_del2              =   7.0969133391797E-04
(PID.TID 0000.0001) %MON forcing_fv_max               =   3.1703012529559E-01
(PID.TID 0000.0001) %MON forcing_fv_min               =  -3.4101375748571E-01
(PID.TID 0000.0001) %MON forcing_fv_mean              =  -1.1156239411999E-02
(PID.TID 0000.0001) %MON forcing_fv_sd                =   7.0571104755350E-02
(PID.TID 0000.0001) %MON forcing_fv_del2              =   6.2120455441344E-04
(PID.TID 0000.0001) %MON trAdv_CFL_u_max              =   3.3465377840930E-03
(PID.TID 0000.0001) %MON trAdv_CFL_v_max              =   3.1388607703687E-03
(PID.TID 0000.0001) %MON trAdv_CFL_w_max              =   3.4616750936041E-03
(PID.TID 0000.0001) %MON advcfl_uvel_max              =   3.3288710853535E-03
(PID.TID 0000.0001) %MON advcfl_vvel_max              =   3.2857224124491E-03
(PID.TID 0000.0001) %MON advcfl_wvel_max              =   5.1414479380069E-03
(PID.TID 0000.0001) %MON advcfl_W_hf_max              =   3.4616750936041E-03
(PID.TID 0000.0001) %MON pe_b_mean                    =   5.1447135090119E-04
(PID.TID 0000.0001) %MON ke_max                       =   5.1524451180169E-01
(PID.TID 0000.0001) %MON ke_mean                      =   1.6692437113721E-04
(PID.TID 0000.0001) %MON ke_vol                       =   1.3398090397692E+18
(PID.TID 0000.0001) %MON vort_r_min                   =  -7.1975003956792E-06
(PID.TID 0000.0001) %MON vort_r_max                   =   2.9383821582263E-06
(PID.TID 0000.0001) %MON vort_a_mean                  =  -2.0549865324846E-05
(PID.TID 0000.0001) %MON vort_a_sd                    =   7.5259512169373E-05
(PID.TID 0000.0001) %MON vort_p_mean                  =  -2.4783347955413E-05
(PID.TID 0000.0001) %MON vort_p_sd                    =   1.2811911846840E-04
(PID.TID 0000.0001) %MON surfExpan_theta_mean         =  -7.2577594510857E-06
(PID.TID 0000.0001) %MON surfExpan_salt_mean          =   1.4060674670184E-06
(PID.TID 0000.0001) // =======================================================
(PID.TID 0000.0001) // End MONITOR dynamic field statistics
(PID.TID 0000.0001) // =======================================================
 Computing Diagnostic #     81  oceTAUX      Counter:       1   Parms: UU      U1      
           Vector  Mate for  oceTAUX      Diagnostic #     82  oceTAUY  exists 
 Computing Diagnostic #     82  oceTAUY      Counter:       1   Parms: VV      U1      
           Vector  Mate for  oceTAUY      Diagnostic #     81  oceTAUX  exists 
 Computing Diagnostic #     85  oceFWflx     Counter:       1   Parms: SM      U1      
 Computing Diagnostic #     86  oceSflux     Counter:       1   Parms: SM      U1      
 Computing Diagnostic #     87  oceQnet      Counter:       1   Parms: SM      U1      
 Computing Diagnostic #     88  oceQsw       Counter:       1   Parms: SM      U1      
 Computing Diagnostic #     27  SALT         Counter:       1   Parms: SMR     MR      
 Computing Diagnostic #     26  THETA        Counter:       1   Parms: SMR     MR      
 Computing Diagnostic #     45  UVELMASS     Counter:       1   Parms: UUr     MR      
           Vector  Mate for  UVELMASS     Diagnostic #     46  VVELMASS exists 
 Computing Diagnostic #     46  VVELMASS     Counter:       1   Parms: VVr     MR      
           Vector  Mate for  VVELMASS     Diagnostic #     45  UVELMASS exists 
 Computing Diagnostic #     83  atmPload     Counter:       1   Parms: SM      U1      
 cg2d: Sum(rhs),rhsMax =  -1.96592749828451E+01  8.26141143201375E+01
(PID.TID 0000.0001)      cg2d_init_res =   1.86077724281858E-01
(PID.TID 0000.0001)      cg2d_iters(min,last) =      -1      10
(PID.TID 0000.0001)      cg2d_last_res =   5.72795029827493E-08
(PID.TID 0000.0001) // =======================================================
(PID.TID 0000.0001) // Begin MONITOR dynamic field statistics
(PID.TID 0000.0001) // =======================================================
(PID.TID 0000.0001) %MON time_tsnumber                =                 72024
(PID.TID 0000.0001) %MON time_secondsf                =   6.4821600000000E+07
(PID.TID 0000.0001) %MON dynstat_eta_max              =   3.7738497653104E+00
(PID.TID 0000.0001) %MON dynstat_eta_min              =  -4.3917541996365E+00
(PID.TID 0000.0001) %MON dynstat_eta_mean             =   1.8872217013579E-02
(PID.TID 0000.0001) %MON dynstat_eta_sd               =   6.2171221944406E-01
(PID.TID 0000.0001) %MON dynstat_eta_del2             =   3.7891114813247E-03
(PID.TID 0000.0001) %MON dynstat_uvel_max             =   8.1893292518389E-01
(PID.TID 0000.0001) %MON dynstat_uvel_min             =  -6.0401785314248E-01
(PID.TID 0000.0001) %MON dynstat_uvel_mean            =   2.2683580377797E-05
(PID.TID 0000.0001) %MON dynstat_uvel_sd              =   1.3019645540436E-02
(PID.TID 0000.0001) %MON dynstat_uvel_del2            =   9.1852871315376E-05
(PID.TID 0000.0001) %MON dynstat_vvel_max             =   3.2277325739025E-01
(PID.TID 0000.0001) %MON dynstat_vvel_min             =  -9.7146717956896E-01
(PID.TID 0000.0001) %MON dynstat_vvel_mean            =  -4.3580825582758E-04
(PID.TID 0000.0001) %MON dynstat_vvel_sd              =   1.3802555108142E-02
(PID.TID 0000.0001) %MON dynstat_vvel_del2            =   1.0510373145288E-04
(PID.TID 0000.0001) %MON dynstat_wvel_max             =   1.2448986562982E-04
(PID.TID 0000.0001) %MON dynstat_wvel_min             =  -4.4535238670091E-04
(PID.TID 0000.0001) %MON dynstat_wvel_mean            =  -2.7056912621729E-07
(PID.TID 0000.0001) %MON dynstat_wvel_sd              =   9.0270202924296E-06
(PID.TID 0000.0001) %MON dynstat_wvel_del2            =   8.0227580851076E-08
(PID.TID 0000.0001) %MON dynstat_theta_max            =   3.0922349868886E+01
(PID.TID 0000.0001) %MON dynstat_theta_min            =  -3.0062268749535E+00
(PID.TID 0000.0001) %MON dynstat_theta_mean           =   3.9091069413299E+00
(PID.TID 0000.0001) %MON dynstat_theta_sd             =   4.5712840434178E+00
(PID.TID 0000.0001) %MON dynstat_theta_del2           =   2.6465246802763E-03
(PID.TID 0000.0001) %MON dynstat_salt_max             =   4.1359917925342E+01
(PID.TID 0000.0001) %MON dynstat_salt_min             =   1.8518608988590E+01
(PID.TID 0000.0001) %MON dynstat_salt_mean            =   3.4772057079342E+01
(PID.TID 0000.0001) %MON dynstat_salt_sd              =   5.3132096486065E-01
(PID.TID 0000.0001) %MON dynstat_salt_del2            =   8.9337991657780E-04
(PID.TID 0000.0001) %MON dynstat_sst_max              =   3.0922349868886E+01
(PID.TID 0000.0001) %MON dynstat_sst_min              =  -1.8991343755880E+00
(PID.TID 0000.0001) %MON dynstat_sst_mean             =   1.8108059301922E+01
(PID.TID 0000.0001) %MON dynstat_sst_sd               =   9.8078114300805E+00
(PID.TID 0000.0001) %MON dynstat_sst_del2             =   1.5122366296341E-02
(PID.TID 0000.0001) %MON dynstat_sss_max              =   4.1359917925342E+01
(PID.TID 0000.0001) %MON dynstat_sss_min              =   1.8751394622559E+01
(PID.TID 0000.0001) %MON dynstat_sss_mean             =   3.4631862691546E+01
(PID.TID 0000.0001) %MON dynstat_sss_sd               =   1.4665265700731E+00
(PID.TID 0000.0001) %MON dynstat_sss_del2             =   9.4031999481033E-03
(PID.TID 0000.0001) %MON forcing_qnet_max             =   3.0859874572263E+03
(PID.TID 0000.0001) %MON forcing_qnet_min             =  -2.4685935058594E+03
(PID.TID 0000.0001) %MON forcing_qnet_mean            =  -3.2652254030002E+01
(PID.TID 0000.0001) %MON forcing_qnet_sd              =   2.6932810714614E+02
(PID.TID 0000.0001) %MON forcing_qnet_del2            =   7.1886820703102E+00
(PID.TID 0000.0001) %MON forcing_qsw_max              =   0.0000000000000E+00
(PID.TID 0000.0001) %MON forcing_qsw_min              =  -1.1135083161541E+02
(PID.TID 0000.0001) %MON forcing_qsw_mean             =  -1.8274705196450E+01
(PID.TID 0000.0001) %MON forcing_qsw_sd               =   2.6705474155556E+01
(PID.TID 0000.0001) %MON forcing_qsw_del2             =   2.6593396256114E-01
(PID.TID 0000.0001) %MON forcing_empmr_max            =   8.9122857898474E-03
(PID.TID 0000.0001) %MON forcing_empmr_min            =  -1.4427416026592E-01
(PID.TID 0000.0001) %MON forcing_empmr_mean           =  -4.2830760768961E-04
(PID.TID 0000.0001) %MON forcing_empmr_sd             =   6.2185860074850E-03
(PID.TID 0000.0001) %MON forcing_empmr_del2           =   2.5154929087910E-04
(PID.TID 0000.0001) %MON forcing_fu_max               =   5.3188234269372E-01
(PID.TID 0000.0001) %MON forcing_fu_min               =  -4.0404633987209E-01
(PID.TID 0000.0001) %MON forcing_fu_mean              =  -4.1984036526918E-03
(PID.TID 0000.0001) %MON forcing_fu_sd                =   7.1587804560556E-02
(PID.TID 0000.0001) %MON forcing_fu_del2              =   7.0195456011215E-04
(PID.TID 0000.0001) %MON forcing_fv_max               =   3.1870176144906E-01
(PID.TID 0000.0001) %MON forcing_fv_min               =  -3.3433000627774E-01
(PID.TID 0000.0001) %MON forcing_fv_mean              =  -1.1211433056574E-02
(PID.TID 0000.0001) %MON forcing_fv_sd                =   7.0077058792496E-02
(PID.TID 0000.0001) %MON forcing_fv_del2              =   6.1595546820071E-04
(PID.TID 0000.0001) %MON trAdv_CFL_u_max              =   2.7494907149923E-03
(PID.TID 0000.0001) %MON trAdv_CFL_v_max              =   3.1767276014637E-03
(PID.TID 0000.0001) %MON trAdv_CFL_w_max              =   3.1582286964947E-03
(PID.TID 0000.0001) %MON advcfl_uvel_max              =   2.7309501935447E-03
(PID.TID 0000.0001) %MON advcfl_vvel_max              =   3.3195084557028E-03
(PID.TID 0000.0001) %MON advcfl_wvel_max              =   5.0182316614234E-03
(PID.TID 0000.0001) %MON advcfl_W_hf_max              =   3.1582286964947E-03
(PID.TID 0000.0001) %MON pe_b_mean                    =   5.1539605424001E-04
(PID.TID 0000.0001) %MON ke_max                       =   4.6495421473349E-01
(PID.TID 0000.0001) %MON ke_mean                      =   1.6634808634652E-04
(PID.TID 0000.0001) %MON ke_vol                       =   1.3398091771858E+18
(PID.TID 0000.0001) %MON vort_r_min                   =  -6.5754208832062E-06
(PID.TID 0000.0001) %MON vort_r_max                   =   2.9075575326167E-06
(PID.TID 0000.0001) %MON vort_a_mean                  =  -2.0549865324846E-05
(PID.TID 0000.0001) %MON vort_a_sd                    =   7.5259510488992E-05
(PID.TID 0000.0001) %MON vort_p_mean                  =  -2.4783345296650E-05
(PID.TID 0000.0001) %MON vort_p_sd                    =   1.2811910073198E-04
(PID.TID 0000.0001) %MON surfExpan_theta_mean         =  -7.2096506245760E-06
(PID.TID 0000.0001) %MON surfExpan_salt_mean          =   1.3686387188792E-06
(PID.TID 0000.0001) // =======================================================
(PID.TID 0000.0001) // End MONITOR dynamic field statistics
(PID.TID 0000.0001) // =======================================================
 cg2d: Sum(rhs),rhsMax =  -2.10693721536069E+01  7.85862694196094E+01
(PID.TID 0000.0001)      cg2d_init_res =   1.90217135253322E-01
(PID.TID 0000.0001)      cg2d_iters(min,last) =      -1      10
(PID.TID 0000.0001)      cg2d_last_res =   6.60274099332334E-08
(PID.TID 0000.0001) // =======================================================
(PID.TID 0000.0001) // Begin MONITOR dynamic field statistics
(PID.TID 0000.0001) // =======================================================
(PID.TID 0000.0001) %MON time_tsnumber                =                 72025
(PID.TID 0000.0001) %MON time_secondsf                =   6.4822500000000E+07
(PID.TID 0000.0001) %MON dynstat_eta_max              =   3.5904214544507E+00
(PID.TID 0000.0001) %MON dynstat_eta_min              =  -4.3818039156933E+00
(PID.TID 0000.0001) %MON dynstat_eta_mean             =   1.9239750697619E-02
(PID.TID 0000.0001) %MON dynstat_eta_sd               =   6.2207767834979E-01
(PID.TID 0000.0001) %MON dynstat_eta_del2             =   3.7105843248829E-03
(PID.TID 0000.0001) %MON dynstat_uvel_max             =   6.3503454443951E-01
(PID.TID 0000.0001) %MON dynstat_uvel_min             =  -6.2508370722434E-01
(PID.TID 0000.0001) %MON dynstat_uvel_mean            =   1.4392807901138E-05
(PID.TID 0000.0001) %MON dynstat_uvel_sd              =   1.2940014153715E-02
(PID.TID 0000.0001) %MON dynstat_uvel_del2            =   8.9125845221388E-05
(PID.TID 0000.0001) %MON dynstat_vvel_max             =   3.2988480803077E-01
(PID.TID 0000.0001) %MON dynstat_vvel_min             =  -9.6631690927049E-01
(PID.TID 0000.0001) %MON dynstat_vvel_mean            =  -4.3939301484972E-04
(PID.TID 0000.0001) %MON dynstat_vvel_sd              =   1.3852443430472E-02
(PID.TID 0000.0001) %MON dynstat_vvel_del2            =   1.0800990535790E-04
(PID.TID 0000.0001) %MON dynstat_wvel_max             =   1.3875794968184E-04
(PID.TID 0000.0001) %MON dynstat_wvel_min             =  -4.4402063448805E-04
(PID.TID 0000.0001) %MON dynstat_wvel_mean            =  -2.5051310375596E-07
(PID.TID 0000.0001) %MON dynstat_wvel_sd              =   8.8932407817266E-06
(PID.TID 0000.0001) %MON dynstat_wvel_del2            =   7.9091346787234E-08
(PID.TID 0000.0001) %MON dynstat_theta_max            =   3.0922425875196E+01
(PID.TID 0000.0001) %MON dynstat_theta_min            =  -3.0061018944683E+00
(PID.TID 0000.0001) %MON dynstat_theta_mean           =   3.9091107364112E+00
(PID.TID 0000.0001) %MON dynstat_theta_sd             =   4.5712989009744E+00
(PID.TID 0000.0001) %MON dynstat_theta_del2           =   2.6463790569407E-03
(PID.TID 0000.0001) %MON dynstat_salt_max             =   4.1359448946397E+01
(PID.TID 0000.0001) %MON dynstat_salt_min             =   1.8518618941776E+01
(PID.TID 0000.0001) %MON dynstat_salt_mean            =   3.4772052662324E+01
(PID.TID 0000.0001) %MON dynstat_salt_sd              =   5.3134124417056E-01
(PID.TID 0000.0001) %MON dynstat_salt_del2            =   8.9890686610003E-04
(PID.TID 0000.0001) %MON dynstat_sst_max              =   3.0922425875196E+01
(PID.TID 0000.0001) %MON dynstat_sst_min              =  -1.8990746148439E+00
(PID.TID 0000.0001) %MON dynstat_sst_mean             =   1.8108201379373E+01
(PID.TID 0000.0001) %MON dynstat_sst_sd               =   9.8079934154863E+00
(PID.TID 0000.0001) %MON dynstat_sst_del2             =   1.5119138888535E-02
(PID.TID 0000.0001) %MON dynstat_sss_max              =   4.1359448946397E+01
(PID.TID 0000.0001) %MON dynstat_sss_min              =   1.8751395148567E+01
(PID.TID 0000.0001) %MON dynstat_sss_mean             =   3.4631542801214E+01
(PID.TID 0000.0001) %MON dynstat_sss_sd               =   1.4670372490107E+00
(PID.TID 0000.0001) %MON dynstat_sss_del2             =   9.4860178157034E-03
(PID.TID 0000.0001) %MON forcing_qnet_max             =   3.0420481405633E+03
(PID.TID 0000.0001) %MON forcing_qnet_min             =  -2.4632612304688E+03
(PID.TID 0000.0001) %MON forcing_qnet_mean            =  -2.8238864563962E+01
(PID.TID 0000.0001) %MON forcing_qnet_sd              =   2.6435569378312E+02
(PID.TID 0000.0001) %MON forcing_qnet_del2            =   7.0221973028030E+00
(PID.TID 0000.0001) %MON forcing_qsw_max              =   0.0000000000000E+00
(PID.TID 0000.0001) %MON forcing_qsw_min              =  -1.0993097882915E+02
(PID.TID 0000.0001) %MON forcing_qsw_mean             =  -1.7713908351461E+01
(PID.TID 0000.0001) %MON forcing_qsw_sd               =   2.6021464929765E+01
(PID.TID 0000.0001) %MON forcing_qsw_del2             =   2.6498462535902E-01
(PID.TID 0000.0001) %MON forcing_empmr_max            =   8.6518526077271E-03
(PID.TID 0000.0001) %MON forcing_empmr_min            =  -1.4028008282185E-01
(PID.TID 0000.0001) %MON forcing_empmr_mean           =  -4.2266373664635E-04
(PID.TID 0000.0001) %MON forcing_empmr_sd             =   6.1202937593357E-03
(PID.TID 0000.0001) %MON forcing_empmr_del2           =   2.4711760514462E-04
(PID.TID 0000.0001) %MON forcing_fu_max               =   5.0469644388250E-01
(PID.TID 0000.0001) %MON forcing_fu_min               =  -3.9360476747786E-01
(PID.TID 0000.0001) %MON forcing_fu_mean              =  -4.1656272978544E-03
(PID.TID 0000.0001) %MON forcing_fu_sd                =   7.0854402760794E-02
(PID.TID 0000.0001) %MON forcing_fu_del2              =   6.9111987063652E-04
(PID.TID 0000.0001) %MON forcing_fv_max               =   3.1996391134394E-01
(PID.TID 0000.0001) %MON forcing_fv_min               =  -3.2827886091333E-01
(PID.TID 0000.0001) %MON forcing_fv_mean              =  -1.1274707121576E-02
(PID.TID 0000.0001) %MON forcing_fv_sd                =   6.9549408801634E-02
(PID.TID 0000.0001) %MON forcing_fv_del2              =   6.1078567249071E-04
(PID.TID 0000.0001) %MON trAdv_CFL_u_max              =   2.1368483984862E-03
(PID.TID 0000.0001) %MON trAdv_CFL_v_max              =   3.2384519422377E-03
(PID.TID 0000.0001) %MON trAdv_CFL_w_max              =   2.8600307352844E-03
(PID.TID 0000.0001) %MON advcfl_uvel_max              =   2.1176920095809E-03
(PID.TID 0000.0001) %MON advcfl_vvel_max              =   3.3019099550385E-03
(PID.TID 0000.0001) %MON advcfl_wvel_max              =   4.8793072285859E-03
(PID.TID 0000.0001) %MON advcfl_W_hf_max              =   2.8600307352844E-03
(PID.TID 0000.0001) %MON pe_b_mean                    =   5.1602020944856E-04
(PID.TID 0000.0001) %MON ke_max                       =   4.2067685368406E-01
(PID.TID 0000.0001) %MON ke_mean                      =   1.6603992171723E-04
(PID.TID 0000.0001) %MON ke_vol                       =   1.3398093127122E+18
(PID.TID 0000.0001) %MON vort_r_min                   =  -5.8797096136081E-06
(PID.TID 0000.0001) %MON vort_r_max                   =   2.8581029708913E-06
(PID.TID 0000.0001) %MON vort_a_mean                  =  -2.0549865324846E-05
(PID.TID 0000.0001) %MON vort_a_sd                    =   7.5259508495318E-05
(PID.TID 0000.0001) %MON vort_p_mean                  =  -2.4783342716061E-05
(PID.TID 0000.0001) %MON vort_p_sd                    =   1.2811908098378E-04
(PID.TID 0000.0001) %MON surfExpan_theta_mean         =  -7.1723931522530E-06
(PID.TID 0000.0001) %MON surfExpan_salt_mean          =   1.3325430645662E-06
(PID.TID 0000.0001) // =======================================================
(PID.TID 0000.0001) // End MONITOR dynamic field statistics
(PID.TID 0000.0001) // =======================================================
 cg2d: Sum(rhs),rhsMax =  -2.21219648995684E+01  7.62586557918157E+01
(PID.TID 0000.0001)      cg2d_init_res =   1.92570217002905E-01
(PID.TID 0000.0001)      cg2d_iters(min,last) =      -1      10
(PID.TID 0000.0001)      cg2d_last_res =   6.79798411388576E-08
(PID.TID 0000.0001) // =======================================================
(PID.TID 0000.0001) // Begin MONITOR dynamic field statistics
(PID.TID 0000.0001) // =======================================================
(PID.TID 0000.0001) %MON time_tsnumber                =                 72026
(PID.TID 0000.0001) %MON time_secondsf                =   6.4823400000000E+07
(PID.TID 0000.0001) %MON dynstat_eta_max              =   3.3754875879368E+00
(PID.TID 0000.0001) %MON dynstat_eta_min              =  -4.2959781453039E+00
(PID.TID 0000.0001) %MON dynstat_eta_mean             =   1.9602615338445E-02
(PID.TID 0000.0001) %MON dynstat_eta_sd               =   6.2225294653476E-01
(PID.TID 0000.0001) %MON dynstat_eta_del2             =   3.6034303478611E-03
(PID.TID 0000.0001) %MON dynstat_uvel_max             =   4.5567730032274E-01
(PID.TID 0000.0001) %MON dynstat_uvel_min             =  -6.7419524496017E-01
(PID.TID 0000.0001) %MON dynstat_uvel_mean            =   7.4936956357565E-07
(PID.TID 0000.0001) %MON dynstat_uvel_sd              =   1.2878345259996E-02
(PID.TID 0000.0001) %MON dynstat_uvel_del2            =   8.7050254533254E-05
(PID.TID 0000.0001) %MON dynstat_vvel_max             =   3.3552119420928E-01
(PID.TID 0000.0001) %MON dynstat_vvel_min             =  -9.5267318995916E-01
(PID.TID 0000.0001) %MON dynstat_vvel_mean            =  -4.4321216128104E-04
(PID.TID 0000.0001) %MON dynstat_vvel_sd              =   1.3904454125035E-02
(PID.TID 0000.0001) %MON dynstat_vvel_del2            =   1.1137543954965E-04
(PID.TID 0000.0001) %MON dynstat_wvel_max             =   1.5097038824752E-04
(PID.TID 0000.0001) %MON dynstat_wvel_min             =  -4.3315487049810E-04
(PID.TID 0000.0001) %MON dynstat_wvel_mean            =  -2.2922517256983E-07
(PID.TID 0000.0001) %MON dynstat_wvel_sd              =   8.7625009180253E-06
(PID.TID 0000.0001) %MON dynstat_wvel_del2            =   7.7987689665552E-08
(PID.TID 0000.0001) %MON dynstat_theta_max            =   3.0922521072935E+01
(PID.TID 0000.0001) %MON dynstat_theta_min            =  -3.0060216465100E+00
(PID.TID 0000.0001) %MON dynstat_theta_mean           =   3.9091143060142E+00
(PID.TID 0000.0001) %MON dynstat_theta_sd             =   4.5713129860224E+00
(PID.TID 0000.0001) %MON dynstat_theta_del2           =   2.6462342819520E-03
(PID.TID 0000.0001) %MON dynstat_salt_max             =   4.1359017965457E+01
(PID.TID 0000.0001) %MON dynstat_salt_min             =   1.8518628934726E+01
(PID.TID 0000.0001) %MON dynstat_salt_mean            =   3.4772048344986E+01
(PID.TID 0000.0001) %MON dynstat_salt_sd              =   5.3136147931382E-01
(PID.TID 0000.0001) %MON dynstat_salt_del2            =   9.0443644558953E-04
(PID.TID 0000.0001) %MON dynstat_sst_max              =   3.0922521072935E+01
(PID.TID 0000.0001) %MON dynstat_sst_min              =  -1.8990084060564E+00
(PID.TID 0000.0001) %MON dynstat_sst_mean             =   1.8108330315844E+01
(PID.TID 0000.0001) %MON dynstat_sst_sd               =   9.8081708369984E+00
(PID.TID 0000.0001) %MON dynstat_sst_del2             =   1.5115967233834E-02
(PID.TID 0000.0001) %MON dynstat_sss_max              =   4.1359017965457E+01
(PID.TID 0000.0001) %MON dynstat_sss_min              =   1.8751395628014E+01
(PID.TID 0000.0001) %MON dynstat_sss_mean             =   3.4631230422530E+01
(PID.TID 0000.0001) %MON dynstat_sss_sd               =   1.4675471427688E+00
(PID.TID 0000.0001) %MON dynstat_sss_del2             =   9.5686701705600E-03
(PID.TID 0000.0001) %MON forcing_qnet_max             =   3.0001832088559E+03
(PID.TID 0000.0001) %MON forcing_qnet_min             =  -2.4823237304688E+03
(PID.TID 0000.0001) %MON forcing_qnet_mean            =  -2.4808321835125E+01
(PID.TID 0000.0001) %MON forcing_qnet_sd              =   2.6153703688549E+02
(PID.TID 0000.0001) %MON forcing_qnet_del2            =   6.7811154366703E+00
(PID.TID 0000.0001) %MON forcing_qsw_max              =   0.0000000000000E+00
(PID.TID 0000.0001) %MON forcing_qsw_min              =  -1.0948313701367E+02
(PID.TID 0000.0001) %MON forcing_qsw_mean             =  -1.7508883475340E+01
(PID.TID 0000.0001) %MON forcing_qsw_sd               =   2.5762803511692E+01
(PID.TID 0000.0001) %MON forcing_qsw_del2             =   2.6424794607169E-01
(PID.TID 0000.0001) %MON forcing_empmr_max            =   8.5626496002078E-03
(PID.TID 0000.0001) %MON forcing_empmr_min            =  -1.3586525619030E-01
(PID.TID 0000.0001) %MON forcing_empmr_mean           =  -4.1729433694984E-04
(PID.TID 0000.0001) %MON forcing_empmr_sd             =   6.0207558289180E-03
(PID.TID 0000.0001) %MON forcing_empmr_del2           =   2.4265557356048E-04
(PID.TID 0000.0001) %MON forcing_fu_max               =   4.8503698999890E-01
(PID.TID 0000.0001) %MON forcing_fu_min               =  -3.8744928665122E-01
(PID.TID 0000.0001) %MON forcing_fu_mean              =  -4.1680946268448E-03
(PID.TID 0000.0001) %MON forcing_fu_sd                =   7.0113641297888E-02
(PID.TID 0000.0001) %MON forcing_fu_del2              =   6.8237187175856E-04
(PID.TID 0000.0001) %MON forcing_fv_max               =   3.1819151279291E-01
(PID.TID 0000.0001) %MON forcing_fv_min               =  -3.2122168955389E-01
(PID.TID 0000.0001) %MON forcing_fv_mean              =  -1.1371605591291E-02
(PID.TID 0000.0001) %MON forcing_fv_sd                =   6.8998248976671E-02
(PID.TID 0000.0001) %MON forcing_fv_del2              =   6.0495946626824E-04
(PID.TID 0000.0001) %MON trAdv_CFL_u_max              =   1.9825230688520E-03
(PID.TID 0000.0001) %MON trAdv_CFL_v_max              =   3.7114942811568E-03
(PID.TID 0000.0001) %MON trAdv_CFL_w_max              =   2.5713545284817E-03
(PID.TID 0000.0001) %MON advcfl_uvel_max              =   1.9843164225308E-03
(PID.TID 0000.0001) %MON advcfl_vvel_max              =   3.2339690830261E-03
(PID.TID 0000.0001) %MON advcfl_wvel_max              =   4.7257480414017E-03
(PID.TID 0000.0001) %MON advcfl_W_hf_max              =   2.5713545284817E-03
(PID.TID 0000.0001) %MON pe_b_mean                    =   5.1632947110352E-04
(PID.TID 0000.0001) %MON ke_max                       =   3.8353785051514E-01
(PID.TID 0000.0001) %MON ke_mean                      =   1.6597982717021E-04
(PID.TID 0000.0001) %MON ke_vol                       =   1.3398094464529E+18
(PID.TID 0000.0001) %MON vort_r_min                   =  -5.3376417440048E-06
(PID.TID 0000.0001) %MON vort_r_max                   =   2.7909873241917E-06
(PID.TID 0000.0001) %MON vort_a_mean                  =  -2.0549865324846E-05
(PID.TID 0000.0001) %MON vort_a_sd                    =   7.5259506304990E-05
(PID.TID 0000.0001) %MON vort_p_mean                  =  -2.4783340209558E-05
(PID.TID 0000.0001) %MON vort_p_sd                    =   1.2811906109034E-04
(PID.TID 0000.0001) %MON surfExpan_theta_mean         =  -7.1361538704177E-06
(PID.TID 0000.0001) %MON surfExpan_salt_mean          =   1.2963978956867E-06
(PID.TID 0000.0001) // =======================================================
(PID.TID 0000.0001) // End MONITOR dynamic field statistics
(PID.TID 0000.0001) // =======================================================
 cg2d: Sum(rhs),rhsMax =  -2.33811443057451E+01  7.34681576935977E+01
(PID.TID 0000.0001)      cg2d_init_res =   1.99554807573963E-01
(PID.TID 0000.0001)      cg2d_iters(min,last) =      -1      10
(PID.TID 0000.0001)      cg2d_last_res =   6.91414601634486E-08
(PID.TID 0000.0001) // =======================================================
(PID.TID 0000.0001) // Begin MONITOR dynamic field statistics
(PID.TID 0000.0001) // =======================================================
(PID.TID 0000.0001) %MON time_tsnumber                =                 72027
(PID.TID 0000.0001) %MON time_secondsf                =   6.4824300000000E+07
(PID.TID 0000.0001) %MON dynstat_eta_max              =   3.1331263675298E+00
(PID.TID 0000.0001) %MON dynstat_eta_min              =  -4.1380613710429E+00
(PID.TID 0000.0001) %MON dynstat_eta_mean             =   1.9960254990229E-02
(PID.TID 0000.0001) %MON dynstat_eta_sd               =   6.2224132736362E-01
(PID.TID 0000.0001) %MON dynstat_eta_del2             =   3.4708468194654E-03
(PID.TID 0000.0001) %MON dynstat_uvel_max             =   4.1927013528339E-01
(PID.TID 0000.0001) %MON dynstat_uvel_min             =  -7.2176464924043E-01
(PID.TID 0000.0001) %MON dynstat_uvel_mean            =  -1.8023793844570E-05
(PID.TID 0000.0001) %MON dynstat_uvel_sd              =   1.2836347462045E-02
(PID.TID 0000.0001) %MON dynstat_uvel_del2            =   8.5612169142360E-05
(PID.TID 0000.0001) %MON dynstat_vvel_max             =   4.7389325005131E-01
(PID.TID 0000.0001) %MON dynstat_vvel_min             =  -9.5260565306504E-01
(PID.TID 0000.0001) %MON dynstat_vvel_mean            =  -4.4668613076716E-04
(PID.TID 0000.0001) %MON dynstat_vvel_sd              =   1.3954883074282E-02
(PID.TID 0000.0001) %MON dynstat_vvel_del2            =   1.1486457013987E-04
(PID.TID 0000.0001) %MON dynstat_wvel_max             =   1.6122037165066E-04
(PID.TID 0000.0001) %MON dynstat_wvel_min             =  -4.1491666377974E-04
(PID.TID 0000.0001) %MON dynstat_wvel_mean            =  -2.0671618735728E-07
(PID.TID 0000.0001) %MON dynstat_wvel_sd              =   8.6541796877671E-06
(PID.TID 0000.0001) %MON dynstat_wvel_del2            =   7.7017333680832E-08
(PID.TID 0000.0001) %MON dynstat_theta_max            =   3.0922633188589E+01
(PID.TID 0000.0001) %MON dynstat_theta_min            =  -3.0059718214769E+00
(PID.TID 0000.0001) %MON dynstat_theta_mean           =   3.9091175596077E+00
(PID.TID 0000.0001) %MON dynstat_theta_sd             =   4.5713258528727E+00
(PID.TID 0000.0001) %MON dynstat_theta_del2           =   2.6461068175727E-03
(PID.TID 0000.0001) %MON dynstat_salt_max             =   4.1358621661229E+01
(PID.TID 0000.0001) %MON dynstat_salt_min             =   1.8518638972441E+01
(PID.TID 0000.0001) %MON dynstat_salt_mean            =   3.4772044084989E+01
(PID.TID 0000.0001) %MON dynstat_salt_sd              =   5.3138125826164E-01
(PID.TID 0000.0001) %MON dynstat_salt_del2            =   9.0996226433311E-04
(PID.TID 0000.0001) %MON dynstat_sst_max              =   3.0922633188589E+01
(PID.TID 0000.0001) %MON dynstat_sst_min              =  -1.9000414915242E+00
(PID.TID 0000.0001) %MON dynstat_sst_mean             =   1.8108431252299E+01
(PID.TID 0000.0001) %MON dynstat_sst_sd               =   9.8083547508710E+00
(PID.TID 0000.0001) %MON dynstat_sst_del2             =   1.5113270859845E-02
(PID.TID 0000.0001) %MON dynstat_sss_max              =   4.1358621661229E+01
(PID.TID 0000.0001) %MON dynstat_sss_min              =   1.8751396050003E+01
(PID.TID 0000.0001) %MON dynstat_sss_mean             =   3.4630922088736E+01
(PID.TID 0000.0001) %MON dynstat_sss_sd               =   1.4680451744926E+00
(PID.TID 0000.0001) %MON dynstat_sss_del2             =   9.6510657203919E-03
(PID.TID 0000.0001) %MON forcing_qnet_max             =   1.4710481445312E+04
(PID.TID 0000.0001) %MON forcing_qnet_min             =  -1.0296112304688E+04
(PID.TID 0000.0001) %MON forcing_qnet_mean            =  -1.9862935609233E+01
(PID.TID 0000.0001) %MON forcing_qnet_sd              =   3.6189924904160E+02
(PID.TID 0000.0001) %MON forcing_qnet_del2            =   1.1326932551038E+01
(PID.TID 0000.0001) %MON forcing_qsw_max              =   0.0000000000000E+00
(PID.TID 0000.0001) %MON forcing_qsw_min              =  -1.0858052350748E+02
(PID.TID 0000.0001) %MON forcing_qsw_mean             =  -1.7259690466234E+01
(PID.TID 0000.0001) %MON forcing_qsw_sd               =   2.5488260212594E+01
(PID.TID 0000.0001) %MON forcing_qsw_del2             =   2.6271467011786E-01
(PID.TID 0000.0001) %MON forcing_empmr_max            =   8.4743816405535E-03
(PID.TID 0000.0001) %MON forcing_empmr_min            =  -1.3129575550556E-01
(PID.TID 0000.0001) %MON forcing_empmr_mean           =  -4.1128559955167E-04
(PID.TID 0000.0001) %MON forcing_empmr_sd             =   5.9184794375585E-03
(PID.TID 0000.0001) %MON forcing_empmr_del2           =   2.3801183590012E-04
(PID.TID 0000.0001) %MON forcing_fu_max               =   4.6794301364249E-01
(PID.TID 0000.0001) %MON forcing_fu_min               =  -3.8373771443822E-01
(PID.TID 0000.0001) %MON forcing_fu_mean              =  -4.1620322442729E-03
(PID.TID 0000.0001) %MON forcing_fu_sd                =   6.9486974334796E-02
(PID.TID 0000.0001) %MON forcing_fu_del2              =   6.7457290617031E-04
(PID.TID 0000.0001) %MON forcing_fv_max               =   3.2005882369348E-01
(PID.TID 0000.0001) %MON forcing_fv_min               =  -3.1522990900342E-01
(PID.TID 0000.0001) %MON forcing_fv_mean              =  -1.1427123028967E-02
(PID.TID 0000.0001) %MON forcing_fv_sd                =   6.8586748103011E-02
(PID.TID 0000.0001) %MON forcing_fv_del2              =   6.0063826692638E-04
(PID.TID 0000.0001) %MON trAdv_CFL_u_max              =   2.1228938814012E-03
(PID.TID 0000.0001) %MON trAdv_CFL_v_max              =   4.1316104469132E-03
(PID.TID 0000.0001) %MON trAdv_CFL_w_max              =   2.2967437767994E-03
(PID.TID 0000.0001) %MON advcfl_uvel_max              =   2.1243244555582E-03
(PID.TID 0000.0001) %MON advcfl_vvel_max              =   3.1174069840360E-03
(PID.TID 0000.0001) %MON advcfl_wvel_max              =   4.5668088871500E-03
(PID.TID 0000.0001) %MON advcfl_W_hf_max              =   2.2967437767994E-03
(PID.TID 0000.0001) %MON pe_b_mean                    =   5.1632900625600E-04
(PID.TID 0000.0001) %MON ke_max                       =   3.9119196562044E-01
(PID.TID 0000.0001) %MON ke_mean                      =   1.6613718762771E-04
(PID.TID 0000.0001) %MON ke_vol                       =   1.3398095784945E+18
(PID.TID 0000.0001) %MON vort_r_min                   =  -5.4942086020951E-06
(PID.TID 0000.0001) %MON vort_r_max                   =   2.7074630442032E-06
(PID.TID 0000.0001) %MON vort_a_mean                  =  -2.0549865324846E-05
(PID.TID 0000.0001) %MON vort_a_sd                    =   7.5259504080900E-05
(PID.TID 0000.0001) %MON vort_p_mean                  =  -2.4783337773974E-05
(PID.TID 0000.0001) %MON vort_p_sd                    =   1.2811904284212E-04
(PID.TID 0000.0001) %MON surfExpan_theta_mean         =  -7.0990692300744E-06
(PID.TID 0000.0001) %MON surfExpan_salt_mean          =   1.2595786072473E-06
(PID.TID 0000.0001) // =======================================================
(PID.TID 0000.0001) // End MONITOR dynamic field statistics
(PID.TID 0000.0001) // =======================================================
 Computing Diagnostic #     81  oceTAUX      Counter:       1   Parms: UU      U1      
           Vector  Mate for  oceTAUX      Diagnostic #     82  oceTAUY  exists 
 Computing Diagnostic #     82  oceTAUY      Counter:       1   Parms: VV      U1      
           Vector  Mate for  oceTAUY      Diagnostic #     81  oceTAUX  exists 
 Computing Diagnostic #     85  oceFWflx     Counter:       1   Parms: SM      U1      
 Computing Diagnostic #     86  oceSflux     Counter:       1   Parms: SM      U1      
 Computing Diagnostic #     87  oceQnet      Counter:       1   Parms: SM      U1      
 Computing Diagnostic #     88  oceQsw       Counter:       1   Parms: SM      U1      
 Computing Diagnostic #     27  SALT         Counter:       1   Parms: SMR     MR      
 Computing Diagnostic #     26  THETA        Counter:       1   Parms: SMR     MR      
 Computing Diagnostic #     45  UVELMASS     Counter:       1   Parms: UUr     MR      
           Vector  Mate for  UVELMASS     Diagnostic #     46  VVELMASS exists 
 Computing Diagnostic #     46  VVELMASS     Counter:       1   Parms: VVr     MR      
           Vector  Mate for  VVELMASS     Diagnostic #     45  UVELMASS exists 
 Computing Diagnostic #     83  atmPload     Counter:       1   Parms: SM      U1      
 cg2d: Sum(rhs),rhsMax =  -2.51584229735079E+01  6.94819781546384E+01
(PID.TID 0000.0001)      cg2d_init_res =   2.14123481959292E-01
(PID.TID 0000.0001)      cg2d_iters(min,last) =      -1      10
(PID.TID 0000.0001)      cg2d_last_res =   7.24684743470482E-08
(PID.TID 0000.0001) // =======================================================
(PID.TID 0000.0001) // Begin MONITOR dynamic field statistics
(PID.TID 0000.0001) // =======================================================
(PID.TID 0000.0001) %MON time_tsnumber                =                 72028
(PID.TID 0000.0001) %MON time_secondsf                =   6.4825200000000E+07
(PID.TID 0000.0001) %MON dynstat_eta_max              =   2.8677436263084E+00
(PID.TID 0000.0001) %MON dynstat_eta_min              =  -3.9129364383638E+00
(PID.TID 0000.0001) %MON dynstat_eta_mean             =   2.0312190546033E-02
(PID.TID 0000.0001) %MON dynstat_eta_sd               =   6.2205964862766E-01
(PID.TID 0000.0001) %MON dynstat_eta_del2             =   3.3173464997295E-03
(PID.TID 0000.0001) %MON dynstat_uvel_max             =   4.0146698522777E-01
(PID.TID 0000.0001) %MON dynstat_uvel_min             =  -7.6699778822512E-01
(PID.TID 0000.0001) %MON dynstat_uvel_mean            =  -4.1540214194400E-05
(PID.TID 0000.0001) %MON dynstat_uvel_sd              =   1.2814074412060E-02
(PID.TID 0000.0001) %MON dynstat_uvel_del2            =   8.4750955277089E-05
(PID.TID 0000.0001) %MON dynstat_vvel_max             =   6.0853358883570E-01
(PID.TID 0000.0001) %MON dynstat_vvel_min             =  -9.4338903646968E-01
(PID.TID 0000.0001) %MON dynstat_vvel_mean            =  -4.4918779720185E-04
(PID.TID 0000.0001) %MON dynstat_vvel_sd              =   1.4000070692517E-02
(PID.TID 0000.0001) %MON dynstat_vvel_del2            =   1.1821474009482E-04
(PID.TID 0000.0001) %MON dynstat_wvel_max             =   1.6968568526316E-04
(PID.TID 0000.0001) %MON dynstat_wvel_min             =  -3.9295335401537E-04
(PID.TID 0000.0001) %MON dynstat_wvel_mean            =  -1.8357220322918E-07
(PID.TID 0000.0001) %MON dynstat_wvel_sd              =   8.5776860582282E-06
(PID.TID 0000.0001) %MON dynstat_wvel_del2            =   7.6216932859437E-08
(PID.TID 0000.0001) %MON dynstat_theta_max            =   3.0922761139592E+01
(PID.TID 0000.0001) %MON dynstat_theta_min            =  -3.0059384378399E+00
(PID.TID 0000.0001) %MON dynstat_theta_mean           =   3.9091206310766E+00
(PID.TID 0000.0001) %MON dynstat_theta_sd             =   4.5713382698108E+00
(PID.TID 0000.0001) %MON dynstat_theta_del2           =   2.6459673326505E-03
(PID.TID 0000.0001) %MON dynstat_salt_max             =   4.1358255368281E+01
(PID.TID 0000.0001) %MON dynstat_salt_min             =   1.8518649058998E+01
(PID.TID 0000.0001) %MON dynstat_salt_mean            =   3.4772039942500E+01
(PID.TID 0000.0001) %MON dynstat_salt_sd              =   5.3140137301968E-01
(PID.TID 0000.0001) %MON dynstat_salt_del2            =   9.1547370938377E-04
(PID.TID 0000.0001) %MON dynstat_sst_max              =   3.0922761139592E+01
(PID.TID 0000.0001) %MON dynstat_sst_min              =  -1.9038937530793E+00
(PID.TID 0000.0001) %MON dynstat_sst_mean             =   1.8108529375083E+01
(PID.TID 0000.0001) %MON dynstat_sst_sd               =   9.8085265887313E+00
(PID.TID 0000.0001) %MON dynstat_sst_del2             =   1.5110317687526E-02
(PID.TID 0000.0001) %MON dynstat_sss_max              =   4.1358255368281E+01
(PID.TID 0000.0001) %MON dynstat_sss_min              =   1.8751396556229E+01
(PID.TID 0000.0001) %MON dynstat_sss_mean             =   3.4630622966394E+01
(PID.TID 0000.0001) %MON dynstat_sss_sd               =   1.4685524946756E+00
(PID.TID 0000.0001) %MON dynstat_sss_del2             =   9.7330513541685E-03
(PID.TID 0000.0001) %MON forcing_qnet_max             =   2.9181255407820E+03
(PID.TID 0000.0001) %MON forcing_qnet_min             =  -2.3834172363281E+03
(PID.TID 0000.0001) %MON forcing_qnet_mean            =  -1.7136018129576E+01
(PID.TID 0000.0001) %MON forcing_qnet_sd              =   2.4998779910269E+02
(PID.TID 0000.0001) %MON forcing_qnet_del2            =   6.2145006407599E+00
(PID.TID 0000.0001) %MON forcing_qsw_max              =   0.0000000000000E+00
(PID.TID 0000.0001) %MON forcing_qsw_min              =  -1.0722691185748E+02
(PID.TID 0000.0001) %MON forcing_qsw_mean             =  -1.6965039985786E+01
(PID.TID 0000.0001) %MON forcing_qsw_sd               =   2.5202505609043E+01
(PID.TID 0000.0001) %MON forcing_qsw_del2             =   2.6040892669527E-01
(PID.TID 0000.0001) %MON forcing_empmr_max            =   8.3870477974415E-03
(PID.TID 0000.0001) %MON forcing_empmr_min            =  -1.2645934522152E-01
(PID.TID 0000.0001) %MON forcing_empmr_mean           =  -4.0472588917509E-04
(PID.TID 0000.0001) %MON forcing_empmr_sd             =   5.8082010927657E-03
(PID.TID 0000.0001) %MON forcing_empmr_del2           =   2.3285952131706E-04
(PID.TID 0000.0001) %MON forcing_fu_max               =   4.5288613842734E-01
(PID.TID 0000.0001) %MON forcing_fu_min               =  -3.7971158249328E-01
(PID.TID 0000.0001) %MON forcing_fu_mean              =  -4.1595502129588E-03
(PID.TID 0000.0001) %MON forcing_fu_sd                =   6.8831068175426E-02
(PID.TID 0000.0001) %MON forcing_fu_del2              =   6.6750451866392E-04
(PID.TID 0000.0001) %MON forcing_fv_max               =   3.1840568458250E-01
(PID.TID 0000.0001) %MON forcing_fv_min               =  -3.1028161674474E-01
(PID.TID 0000.0001) %MON forcing_fv_mean              =  -1.1494110072165E-02
(PID.TID 0000.0001) %MON forcing_fv_sd                =   6.8222889529334E-02
(PID.TID 0000.0001) %MON forcing_fv_del2              =   5.9659559324265E-04
(PID.TID 0000.0001) %MON trAdv_CFL_u_max              =   2.2568862291599E-03
(PID.TID 0000.0001) %MON trAdv_CFL_v_max              =   4.4937148186918E-03
(PID.TID 0000.0001) %MON trAdv_CFL_w_max              =   2.0775588087359E-03
(PID.TID 0000.0001) %MON advcfl_uvel_max              =   2.2574563060138E-03
(PID.TID 0000.0001) %MON advcfl_vvel_max              =   2.9548125334021E-03
(PID.TID 0000.0001) %MON advcfl_wvel_max              =   4.3985859207485E-03
(PID.TID 0000.0001) %MON advcfl_W_hf_max              =   2.0405295634544E-03
(PID.TID 0000.0001) %MON pe_b_mean                    =   5.1604668136606E-04
(PID.TID 0000.0001) %MON ke_max                       =   4.0057475537510E-01
(PID.TID 0000.0001) %MON ke_mean                      =   1.6646256784298E-04
(PID.TID 0000.0001) %MON ke_vol                       =   1.3398097086348E+18
(PID.TID 0000.0001) %MON vort_r_min                   =  -5.6131551206020E-06
(PID.TID 0000.0001) %MON vort_r_max                   =   2.6090447847183E-06
(PID.TID 0000.0001) %MON vort_a_mean                  =  -2.0549865324846E-05
(PID.TID 0000.0001) %MON vort_a_sd                    =   7.5259502001065E-05
(PID.TID 0000.0001) %MON vort_p_mean                  =  -2.4783335411770E-05
(PID.TID 0000.0001) %MON vort_p_sd                    =   1.2811902779853E-04
(PID.TID 0000.0001) %MON surfExpan_theta_mean         =  -7.0682938991865E-06
(PID.TID 0000.0001) %MON surfExpan_salt_mean          =   1.2207236306204E-06
(PID.TID 0000.0001) // =======================================================
(PID.TID 0000.0001) // End MONITOR dynamic field statistics
(PID.TID 0000.0001) // =======================================================
 cg2d: Sum(rhs),rhsMax =  -2.76038849190903E+01  6.44002767195555E+01
(PID.TID 0000.0001)      cg2d_init_res =   2.37003010527475E-01
(PID.TID 0000.0001)      cg2d_iters(min,last) =      -1      10
(PID.TID 0000.0001)      cg2d_last_res =   7.85517779521576E-08
(PID.TID 0000.0001) // =======================================================
(PID.TID 0000.0001) // Begin MONITOR dynamic field statistics
(PID.TID 0000.0001) // =======================================================
(PID.TID 0000.0001) %MON time_tsnumber                =                 72029
(PID.TID 0000.0001) %MON time_secondsf                =   6.4826100000000E+07
(PID.TID 0000.0001) %MON dynstat_eta_max              =   2.5839716929186E+00
(PID.TID 0000.0001) %MON dynstat_eta_min              =  -3.6262877755862E+00
(PID.TID 0000.0001) %MON dynstat_eta_mean             =   2.0656613082901E-02
(PID.TID 0000.0001) %MON dynstat_eta_sd               =   6.2173841932898E-01
(PID.TID 0000.0001) %MON dynstat_eta_del2             =   3.1486747252173E-03
(PID.TID 0000.0001) %MON dynstat_uvel_max             =   3.9250121878920E-01
(PID.TID 0000.0001) %MON dynstat_uvel_min             =  -8.0909685499369E-01
(PID.TID 0000.0001) %MON dynstat_uvel_mean            =  -6.9249504746926E-05
(PID.TID 0000.0001) %MON dynstat_uvel_sd              =   1.2810061012477E-02
(PID.TID 0000.0001) %MON dynstat_uvel_del2            =   8.4369213897191E-05
(PID.TID 0000.0001) %MON dynstat_vvel_max             =   7.2943449649726E-01
(PID.TID 0000.0001) %MON dynstat_vvel_min             =  -9.6389032210602E-01
(PID.TID 0000.0001) %MON dynstat_vvel_mean            =  -4.5005775910821E-04
(PID.TID 0000.0001) %MON dynstat_vvel_sd              =   1.4036606171857E-02
(PID.TID 0000.0001) %MON dynstat_vvel_del2            =   1.2123369393101E-04
(PID.TID 0000.0001) %MON dynstat_wvel_max             =   1.7658010344105E-04
(PID.TID 0000.0001) %MON dynstat_wvel_min             =  -3.6760533534726E-04
(PID.TID 0000.0001) %MON dynstat_wvel_mean            =  -1.5904491693047E-07
(PID.TID 0000.0001) %MON dynstat_wvel_sd              =   8.5320428538309E-06
(PID.TID 0000.0001) %MON dynstat_wvel_del2            =   7.5583951669797E-08
(PID.TID 0000.0001) %MON dynstat_theta_max            =   3.0922907419835E+01
(PID.TID 0000.0001) %MON dynstat_theta_min            =  -3.0059092167487E+00
(PID.TID 0000.0001) %MON dynstat_theta_mean           =   3.9091233534671E+00
(PID.TID 0000.0001) %MON dynstat_theta_sd             =   4.5713493884236E+00
(PID.TID 0000.0001) %MON dynstat_theta_del2           =   2.6458298713666E-03
(PID.TID 0000.0001) %MON dynstat_salt_max             =   4.1357887664215E+01
(PID.TID 0000.0001) %MON dynstat_salt_min             =   1.8518659197747E+01
(PID.TID 0000.0001) %MON dynstat_salt_mean            =   3.4772035888548E+01
(PID.TID 0000.0001) %MON dynstat_salt_sd              =   5.3142139720094E-01
(PID.TID 0000.0001) %MON dynstat_salt_del2            =   9.2096610985838E-04
(PID.TID 0000.0001) %MON dynstat_sst_max              =   3.0922907419835E+01
(PID.TID 0000.0001) %MON dynstat_sst_min              =  -1.8987641772143E+00
(PID.TID 0000.0001) %MON dynstat_sst_mean             =   1.8108606766884E+01
(PID.TID 0000.0001) %MON dynstat_sst_sd               =   9.8086855430711E+00
(PID.TID 0000.0001) %MON dynstat_sst_del2             =   1.5107447380642E-02
(PID.TID 0000.0001) %MON dynstat_sss_max              =   4.1357887664215E+01
(PID.TID 0000.0001) %MON dynstat_sss_min              =   1.8751397102418E+01
(PID.TID 0000.0001) %MON dynstat_sss_mean             =   3.4630330614459E+01
(PID.TID 0000.0001) %MON dynstat_sss_sd               =   1.4690575884058E+00
(PID.TID 0000.0001) %MON dynstat_sss_del2             =   9.8145593913907E-03
(PID.TID 0000.0001) %MON forcing_qnet_max             =   2.8765986097219E+03
(PID.TID 0000.0001) %MON forcing_qnet_min             =  -2.2673701171875E+03
(PID.TID 0000.0001) %MON forcing_qnet_mean            =  -1.1491502947675E+01
(PID.TID 0000.0001) %MON forcing_qnet_sd              =   2.4772176907436E+02
(PID.TID 0000.0001) %MON forcing_qnet_del2            =   6.1843429154020E+00
(PID.TID 0000.0001) %MON forcing_qsw_max              =   0.0000000000000E+00
(PID.TID 0000.0001) %MON forcing_qsw_min              =  -1.0509148839898E+02
(PID.TID 0000.0001) %MON forcing_qsw_mean             =  -1.6441731511938E+01
(PID.TID 0000.0001) %MON forcing_qsw_sd               =   2.4855812353215E+01
(PID.TID 0000.0001) %MON forcing_qsw_del2             =   2.5703382880984E-01
(PID.TID 0000.0001) %MON forcing_empmr_max            =   8.3005512133241E-03
(PID.TID 0000.0001) %MON forcing_empmr_min            =  -1.2159878015518E-01
(PID.TID 0000.0001) %MON forcing_empmr_mean           =  -3.9608591739760E-04
(PID.TID 0000.0001) %MON forcing_empmr_sd             =   5.6893287738517E-03
(PID.TID 0000.0001) %MON forcing_empmr_del2           =   2.2710119910106E-04
(PID.TID 0000.0001) %MON forcing_fu_max               =   4.3815571638640E-01
(PID.TID 0000.0001) %MON forcing_fu_min               =  -3.7623376549196E-01
(PID.TID 0000.0001) %MON forcing_fu_mean              =  -4.1614436543057E-03
(PID.TID 0000.0001) %MON forcing_fu_sd                =   6.8218633963319E-02
(PID.TID 0000.0001) %MON forcing_fu_del2              =   6.6083717443871E-04
(PID.TID 0000.0001) %MON forcing_fv_max               =   3.1747098748155E-01
(PID.TID 0000.0001) %MON forcing_fv_min               =  -3.0654083860194E-01
(PID.TID 0000.0001) %MON forcing_fv_mean              =  -1.1589732842182E-02
(PID.TID 0000.0001) %MON forcing_fv_sd                =   6.7798522949904E-02
(PID.TID 0000.0001) %MON forcing_fv_del2              =   5.9193168074238E-04
(PID.TID 0000.0001) %MON trAdv_CFL_u_max              =   2.3822332026418E-03
(PID.TID 0000.0001) %MON trAdv_CFL_v_max              =   4.7937217576980E-03
(PID.TID 0000.0001) %MON trAdv_CFL_w_max              =   2.0260020484330E-03
(PID.TID 0000.0001) %MON advcfl_uvel_max              =   2.3813638390120E-03
(PID.TID 0000.0001) %MON advcfl_vvel_max              =   3.1455257195406E-03
(PID.TID 0000.0001) %MON advcfl_wvel_max              =   4.2295227880063E-03
(PID.TID 0000.0001) %MON advcfl_W_hf_max              =   1.9923699675838E-03
(PID.TID 0000.0001) %MON pe_b_mean                    =   5.1553316582215E-04
(PID.TID 0000.0001) %MON ke_max                       =   4.0557335551513E-01
(PID.TID 0000.0001) %MON ke_mean                      =   1.6689240875296E-04
(PID.TID 0000.0001) %MON ke_vol                       =   1.3398098366995E+18
(PID.TID 0000.0001) %MON vort_r_min                   =  -5.6918919504749E-06
(PID.TID 0000.0001) %MON vort_r_max                   =   2.4974832139329E-06
(PID.TID 0000.0001) %MON vort_a_mean                  =  -2.0549865324846E-05
(PID.TID 0000.0001) %MON vort_a_sd                    =   7.5259500258299E-05
(PID.TID 0000.0001) %MON vort_p_mean                  =  -2.4783333123823E-05
(PID.TID 0000.0001) %MON vort_p_sd                    =   1.2811901710887E-04
(PID.TID 0000.0001) %MON surfExpan_theta_mean         =  -7.0179570075464E-06
(PID.TID 0000.0001) %MON surfExpan_salt_mean          =   1.1819026757394E-06
(PID.TID 0000.0001) // =======================================================
(PID.TID 0000.0001) // End MONITOR dynamic field statistics
(PID.TID 0000.0001) // =======================================================
 cg2d: Sum(rhs),rhsMax =  -3.09680339803698E+01  5.83396582954592E+01
(PID.TID 0000.0001)      cg2d_init_res =   2.69223883965097E-01
(PID.TID 0000.0001)      cg2d_iters(min,last) =      -1      10
(PID.TID 0000.0001)      cg2d_last_res =   8.67945913707050E-08
(PID.TID 0000.0001) // =======================================================
(PID.TID 0000.0001) // Begin MONITOR dynamic field statistics
(PID.TID 0000.0001) // =======================================================
(PID.TID 0000.0001) %MON time_tsnumber                =                 72030
(PID.TID 0000.0001) %MON time_secondsf                =   6.4827000000000E+07
(PID.TID 0000.0001) %MON dynstat_eta_max              =   2.2865713727978E+00
(PID.TID 0000.0001) %MON dynstat_eta_min              =  -3.2847035121740E+00
(PID.TID 0000.0001) %MON dynstat_eta_mean             =   2.0993202217434E-02
(PID.TID 0000.0001) %MON dynstat_eta_sd               =   6.2131740090023E-01
(PID.TID 0000.0001) %MON dynstat_eta_del2             =   2.9715072314799E-03
(PID.TID 0000.0001) %MON dynstat_uvel_max             =   3.7968166810851E-01
(PID.TID 0000.0001) %MON dynstat_uvel_min             =  -8.4728137853618E-01
(PID.TID 0000.0001) %MON dynstat_uvel_mean            =  -1.0045252913591E-04
(PID.TID 0000.0001) %MON dynstat_uvel_sd              =   1.2821481591070E-02
(PID.TID 0000.0001) %MON dynstat_uvel_del2            =   8.4349790195373E-05
(PID.TID 0000.0001) %MON dynstat_vvel_max             =   8.3543681451645E-01
(PID.TID 0000.0001) %MON dynstat_vvel_min             =  -1.0414792036612E+00
(PID.TID 0000.0001) %MON dynstat_vvel_mean            =  -4.4863909037789E-04
(PID.TID 0000.0001) %MON dynstat_vvel_sd              =   1.4061744334755E-02
(PID.TID 0000.0001) %MON dynstat_vvel_del2            =   1.2379053148738E-04
(PID.TID 0000.0001) %MON dynstat_wvel_max             =   1.8211470072462E-04
(PID.TID 0000.0001) %MON dynstat_wvel_min             =  -3.4086514574823E-04
(PID.TID 0000.0001) %MON dynstat_wvel_mean            =  -1.3473979360444E-07
(PID.TID 0000.0001) %MON dynstat_wvel_sd              =   8.5080799639779E-06
(PID.TID 0000.0001) %MON dynstat_wvel_del2            =   7.5095509162787E-08
(PID.TID 0000.0001) %MON dynstat_theta_max            =   3.0923067418265E+01
(PID.TID 0000.0001) %MON dynstat_theta_min            =  -3.0058744122720E+00
(PID.TID 0000.0001) %MON dynstat_theta_mean           =   3.9091257875578E+00
(PID.TID 0000.0001) %MON dynstat_theta_sd             =   4.5713595233081E+00
(PID.TID 0000.0001) %MON dynstat_theta_del2           =   2.6456951198045E-03
(PID.TID 0000.0001) %MON dynstat_salt_max             =   4.1357537225501E+01
(PID.TID 0000.0001) %MON dynstat_salt_min             =   1.8518669387305E+01
(PID.TID 0000.0001) %MON dynstat_salt_mean            =   3.4772031901734E+01
(PID.TID 0000.0001) %MON dynstat_salt_sd              =   5.3144129604445E-01
(PID.TID 0000.0001) %MON dynstat_salt_del2            =   9.2643409490130E-04
(PID.TID 0000.0001) %MON dynstat_sst_max              =   3.0923067418265E+01
(PID.TID 0000.0001) %MON dynstat_sst_min              =  -1.9005643222810E+00
(PID.TID 0000.0001) %MON dynstat_sst_mean             =   1.8108664667198E+01
(PID.TID 0000.0001) %MON dynstat_sst_sd               =   9.8088425013284E+00
(PID.TID 0000.0001) %MON dynstat_sst_del2             =   1.5104667454461E-02
(PID.TID 0000.0001) %MON dynstat_sss_max              =   4.1357537225501E+01
(PID.TID 0000.0001) %MON dynstat_sss_min              =   1.8751398516561E+01
(PID.TID 0000.0001) %MON dynstat_sss_mean             =   3.4630043187278E+01
(PID.TID 0000.0001) %MON dynstat_sss_sd               =   1.4695595500517E+00
(PID.TID 0000.0001) %MON dynstat_sss_del2             =   9.8955162241082E-03
(PID.TID 0000.0001) %MON forcing_qnet_max             =   4.1305351562500E+03
(PID.TID 0000.0001) %MON forcing_qnet_min             =  -2.0400616455078E+03
(PID.TID 0000.0001) %MON forcing_qnet_mean            =  -7.2459941284395E+00
(PID.TID 0000.0001) %MON forcing_qnet_sd              =   2.5160539104281E+02
(PID.TID 0000.0001) %MON forcing_qnet_del2            =   6.6328217325247E+00
(PID.TID 0000.0001) %MON forcing_qsw_max              =   0.0000000000000E+00
(PID.TID 0000.0001) %MON forcing_qsw_min              =  -1.0286247528002E+02
(PID.TID 0000.0001) %MON forcing_qsw_mean             =  -1.6252393034133E+01
(PID.TID 0000.0001) %MON forcing_qsw_sd               =   2.4787037157959E+01
(PID.TID 0000.0001) %MON forcing_qsw_del2             =   2.5420086518403E-01
(PID.TID 0000.0001) %MON forcing_empmr_max            =   8.2149896770716E-03
(PID.TID 0000.0001) %MON forcing_empmr_min            =  -1.1807709187269E-01
(PID.TID 0000.0001) %MON forcing_empmr_mean           =  -3.8707750471365E-04
(PID.TID 0000.0001) %MON forcing_empmr_sd             =   5.5634592184519E-03
(PID.TID 0000.0001) %MON forcing_empmr_del2           =   2.2085087595986E-04
(PID.TID 0000.0001) %MON forcing_fu_max               =   4.2697935948866E-01
(PID.TID 0000.0001) %MON forcing_fu_min               =  -3.7586942188647E-01
(PID.TID 0000.0001) %MON forcing_fu_mean              =  -4.1280500534139E-03
(PID.TID 0000.0001) %MON forcing_fu_sd                =   6.7739336060425E-02
(PID.TID 0000.0001) %MON forcing_fu_del2              =   6.5564769799777E-04
(PID.TID 0000.0001) %MON forcing_fv_max               =   3.1583324376105E-01
(PID.TID 0000.0001) %MON forcing_fv_min               =  -3.0413713948262E-01
(PID.TID 0000.0001) %MON forcing_fv_mean              =  -1.1699224768192E-02
(PID.TID 0000.0001) %MON forcing_fv_sd                =   6.7396025003258E-02
(PID.TID 0000.0001) %MON forcing_fv_del2              =   5.8740504487049E-04
(PID.TID 0000.0001) %MON trAdv_CFL_u_max              =   2.4966976312836E-03
(PID.TID 0000.0001) %MON trAdv_CFL_v_max              =   5.0285603414545E-03
(PID.TID 0000.0001) %MON trAdv_CFL_w_max              =   1.9701103901934E-03
(PID.TID 0000.0001) %MON advcfl_uvel_max              =   2.4937499433613E-03
(PID.TID 0000.0001) %MON advcfl_vvel_max              =   3.3987265421705E-03
(PID.TID 0000.0001) %MON advcfl_wvel_max              =   4.1070292825284E-03
(PID.TID 0000.0001) %MON advcfl_W_hf_max              =   2.1429924045326E-03
(PID.TID 0000.0001) %MON pe_b_mean                    =   5.1485459901170E-04
(PID.TID 0000.0001) %MON ke_max                       =   4.0612674315196E-01
(PID.TID 0000.0001) %MON ke_mean                      =   1.6735649122565E-04
(PID.TID 0000.0001) %MON ke_vol                       =   1.3398099620303E+18
(PID.TID 0000.0001) %MON vort_r_min                   =  -5.7283847475943E-06
(PID.TID 0000.0001) %MON vort_r_max                   =   2.7575017920449E-06
(PID.TID 0000.0001) %MON vort_a_mean                  =  -2.0549865324846E-05
(PID.TID 0000.0001) %MON vort_a_sd                    =   7.5259499043022E-05
(PID.TID 0000.0001) %MON vort_p_mean                  =  -2.4783330920906E-05
(PID.TID 0000.0001) %MON vort_p_sd                    =   1.2811901150535E-04
(PID.TID 0000.0001) %MON surfExpan_theta_mean         =  -6.9735676045249E-06
(PID.TID 0000.0001) %MON surfExpan_salt_mean          =   1.1429242701310E-06
(PID.TID 0000.0001) // =======================================================
(PID.TID 0000.0001) // End MONITOR dynamic field statistics
(PID.TID 0000.0001) // =======================================================
 cg2d: Sum(rhs),rhsMax =  -3.56753475651420E+01  5.14321649411289E+01
(PID.TID 0000.0001)      cg2d_init_res =   3.13071819190008E-01
(PID.TID 0000.0001)      cg2d_iters(min,last) =      -1      10
(PID.TID 0000.0001)      cg2d_last_res =   9.87133614076323E-08
(PID.TID 0000.0001) // =======================================================
(PID.TID 0000.0001) // Begin MONITOR dynamic field statistics
(PID.TID 0000.0001) // =======================================================
(PID.TID 0000.0001) %MON time_tsnumber                =                 72031
(PID.TID 0000.0001) %MON time_secondsf                =   6.4827900000000E+07
(PID.TID 0000.0001) %MON dynstat_eta_max              =   1.9803390015943E+00
(PID.TID 0000.0001) %MON dynstat_eta_min              =  -2.8956206825319E+00
(PID.TID 0000.0001) %MON dynstat_eta_mean             =   2.1320834138033E-02
(PID.TID 0000.0001) %MON dynstat_eta_sd               =   6.2083946924632E-01
(PID.TID 0000.0001) %MON dynstat_eta_del2             =   2.7929777959612E-03
(PID.TID 0000.0001) %MON dynstat_uvel_max             =   3.6316951764760E-01
(PID.TID 0000.0001) %MON dynstat_uvel_min             =  -8.8080448250558E-01
(PID.TID 0000.0001) %MON dynstat_uvel_mean            =  -1.3438262210806E-04
(PID.TID 0000.0001) %MON dynstat_uvel_sd              =   1.2844512250627E-02
(PID.TID 0000.0001) %MON dynstat_uvel_del2            =   8.4573443152442E-05
(PID.TID 0000.0001) %MON dynstat_vvel_max             =   9.2568983716072E-01
(PID.TID 0000.0001) %MON dynstat_vvel_min             =  -1.1011553888970E+00
(PID.TID 0000.0001) %MON dynstat_vvel_mean            =  -4.4430853160848E-04
(PID.TID 0000.0001) %MON dynstat_vvel_sd              =   1.4073753570454E-02
(PID.TID 0000.0001) %MON dynstat_vvel_del2            =   1.2580416409400E-04
(PID.TID 0000.0001) %MON dynstat_wvel_max             =   1.8647301940286E-04
(PID.TID 0000.0001) %MON dynstat_wvel_min             =  -3.1438285648539E-04
(PID.TID 0000.0001) %MON dynstat_wvel_mean            =  -1.1053792276926E-07
(PID.TID 0000.0001) %MON dynstat_wvel_sd              =   8.4949108024986E-06
(PID.TID 0000.0001) %MON dynstat_wvel_del2            =   7.4765417453234E-08
(PID.TID 0000.0001) %MON dynstat_theta_max            =   3.0923241269079E+01
(PID.TID 0000.0001) %MON dynstat_theta_min            =  -3.0058270875221E+00
(PID.TID 0000.0001) %MON dynstat_theta_mean           =   3.9091280704737E+00
(PID.TID 0000.0001) %MON dynstat_theta_sd             =   4.5713692657691E+00
(PID.TID 0000.0001) %MON dynstat_theta_del2           =   2.6455648799034E-03
(PID.TID 0000.0001) %MON dynstat_salt_max             =   4.1357201515392E+01
(PID.TID 0000.0001) %MON dynstat_salt_min             =   1.8518679628390E+01
(PID.TID 0000.0001) %MON dynstat_salt_mean            =   3.4772028024633E+01
(PID.TID 0000.0001) %MON dynstat_salt_sd              =   5.3146108435067E-01
(PID.TID 0000.0001) %MON dynstat_salt_del2            =   9.3187172276485E-04
(PID.TID 0000.0001) %MON dynstat_sst_max              =   3.0923241269079E+01
(PID.TID 0000.0001) %MON dynstat_sst_min              =  -1.8999081550529E+00
(PID.TID 0000.0001) %MON dynstat_sst_mean             =   1.8108715482344E+01
(PID.TID 0000.0001) %MON dynstat_sst_sd               =   9.8089988702147E+00
(PID.TID 0000.0001) %MON dynstat_sst_del2             =   1.5102035058636E-02
(PID.TID 0000.0001) %MON dynstat_sss_max              =   4.1357201515392E+01
(PID.TID 0000.0001) %MON dynstat_sss_min              =   1.8751400677448E+01
(PID.TID 0000.0001) %MON dynstat_sss_mean             =   3.4629764225449E+01
(PID.TID 0000.0001) %MON dynstat_sss_sd               =   1.4700588769300E+00
(PID.TID 0000.0001) %MON dynstat_sss_del2             =   9.9758392098632E-03
(PID.TID 0000.0001) %MON forcing_qnet_max             =   2.7978237738706E+03
(PID.TID 0000.0001) %MON forcing_qnet_min             =  -1.7620751387678E+03
(PID.TID 0000.0001) %MON forcing_qnet_mean            =  -5.0747034106418E+00
(PID.TID 0000.0001) %MON forcing_qnet_sd              =   2.4034326553579E+02
(PID.TID 0000.0001) %MON forcing_qnet_del2            =   5.7162775385548E+00
(PID.TID 0000.0001) %MON forcing_qsw_max              =   0.0000000000000E+00
(PID.TID 0000.0001) %MON forcing_qsw_min              =  -1.0020698312766E+02
(PID.TID 0000.0001) %MON forcing_qsw_mean             =  -1.6019277334010E+01
(PID.TID 0000.0001) %MON forcing_qsw_sd               =   2.4711085206022E+01
(PID.TID 0000.0001) %MON forcing_qsw_del2             =   2.5073532371738E-01
(PID.TID 0000.0001) %MON forcing_empmr_max            =   8.1302635371685E-03
(PID.TID 0000.0001) %MON forcing_empmr_min            =  -1.1686041206121E-01
(PID.TID 0000.0001) %MON forcing_empmr_mean           =  -3.7677670868860E-04
(PID.TID 0000.0001) %MON forcing_empmr_sd             =   5.4480902912854E-03
(PID.TID 0000.0001) %MON forcing_empmr_del2           =   2.1519581300694E-04
(PID.TID 0000.0001) %MON forcing_fu_max               =   4.1691898066874E-01
(PID.TID 0000.0001) %MON forcing_fu_min               =  -3.7411917867023E-01
(PID.TID 0000.0001) %MON forcing_fu_mean              =  -4.0799372092704E-03
(PID.TID 0000.0001) %MON forcing_fu_sd                =   6.7195121547598E-02
(PID.TID 0000.0001) %MON forcing_fu_del2              =   6.4963644837408E-04
(PID.TID 0000.0001) %MON forcing_fv_max               =   3.1599841097741E-01
(PID.TID 0000.0001) %MON forcing_fv_min               =  -3.0001320448354E-01
(PID.TID 0000.0001) %MON forcing_fv_mean              =  -1.1789879253146E-02
(PID.TID 0000.0001) %MON forcing_fv_sd                =   6.7112236067045E-02
(PID.TID 0000.0001) %MON forcing_fv_del2              =   5.8364296404517E-04
(PID.TID 0000.0001) %MON trAdv_CFL_u_max              =   2.5981124922179E-03
(PID.TID 0000.0001) %MON trAdv_CFL_v_max              =   5.1961785968164E-03
(PID.TID 0000.0001) %MON trAdv_CFL_w_max              =   1.9101974546450E-03
(PID.TID 0000.0001) %MON advcfl_uvel_max              =   2.5924163849269E-03
(PID.TID 0000.0001) %MON advcfl_vvel_max              =   3.5934717026917E-03
(PID.TID 0000.0001) %MON advcfl_wvel_max              =   4.0647099847379E-03
(PID.TID 0000.0001) %MON advcfl_W_hf_max              =   2.2868296185052E-03
(PID.TID 0000.0001) %MON pe_b_mean                    =   5.1408215206344E-04
(PID.TID 0000.0001) %MON ke_max                       =   4.0229270515584E-01
(PID.TID 0000.0001) %MON ke_mean                      =   1.6778671165282E-04
(PID.TID 0000.0001) %MON ke_vol                       =   1.3398100845106E+18
(PID.TID 0000.0001) %MON vort_r_min                   =  -5.7211922066127E-06
(PID.TID 0000.0001) %MON vort_r_max                   =   3.0553972969528E-06
(PID.TID 0000.0001) %MON vort_a_mean                  =  -2.0549865324846E-05
(PID.TID 0000.0001) %MON vort_a_sd                    =   7.5259498537087E-05
(PID.TID 0000.0001) %MON vort_p_mean                  =  -2.4783328802798E-05
(PID.TID 0000.0001) %MON vort_p_sd                    =   1.2811901121865E-04
(PID.TID 0000.0001) %MON surfExpan_theta_mean         =  -6.9236456090541E-06
(PID.TID 0000.0001) %MON surfExpan_salt_mean          =   1.1041247410687E-06
(PID.TID 0000.0001) // =======================================================
(PID.TID 0000.0001) // End MONITOR dynamic field statistics
(PID.TID 0000.0001) // =======================================================
 Computing Diagnostic #     81  oceTAUX      Counter:       1   Parms: UU      U1      
           Vector  Mate for  oceTAUX      Diagnostic #     82  oceTAUY  exists 
 Computing Diagnostic #     82  oceTAUY      Counter:       1   Parms: VV      U1      
           Vector  Mate for  oceTAUY      Diagnostic #     81  oceTAUX  exists 
 Computing Diagnostic #     85  oceFWflx     Counter:       1   Parms: SM      U1      
 Computing Diagnostic #     86  oceSflux     Counter:       1   Parms: SM      U1      
 Computing Diagnostic #     87  oceQnet      Counter:       1   Parms: SM      U1      
 Computing Diagnostic #     88  oceQsw       Counter:       1   Parms: SM      U1      
 Computing Diagnostic #     27  SALT         Counter:       1   Parms: SMR     MR      
 Computing Diagnostic #     26  THETA        Counter:       1   Parms: SMR     MR      
 Computing Diagnostic #     45  UVELMASS     Counter:       1   Parms: UUr     MR      
           Vector  Mate for  UVELMASS     Diagnostic #     46  VVELMASS exists 
 Computing Diagnostic #     46  VVELMASS     Counter:       1   Parms: VVr     MR      
           Vector  Mate for  VVELMASS     Diagnostic #     45  UVELMASS exists 
 Computing Diagnostic #     83  atmPload     Counter:       1   Parms: SM      U1      
 cg2d: Sum(rhs),rhsMax =  -4.24979484333170E+01  4.38221209476384E+01
(PID.TID 0000.0001)      cg2d_init_res =   3.73593412181891E-01
(PID.TID 0000.0001)      cg2d_iters(min,last) =      -1      11
(PID.TID 0000.0001)      cg2d_last_res =   3.18979925269324E-08
(PID.TID 0000.0001) // =======================================================
(PID.TID 0000.0001) // Begin MONITOR dynamic field statistics
(PID.TID 0000.0001) // =======================================================
(PID.TID 0000.0001) %MON time_tsnumber                =                 72032
(PID.TID 0000.0001) %MON time_secondsf                =   6.4828800000000E+07
(PID.TID 0000.0001) %MON dynstat_eta_max              =   1.8833186769735E+00
(PID.TID 0000.0001) %MON dynstat_eta_min              =  -2.4671516250305E+00
(PID.TID 0000.0001) %MON dynstat_eta_mean             =   2.1640262852439E-02
(PID.TID 0000.0001) %MON dynstat_eta_sd               =   6.2034094843661E-01
(PID.TID 0000.0001) %MON dynstat_eta_del2             =   2.6201120285051E-03
(PID.TID 0000.0001) %MON dynstat_uvel_max             =   3.4318839388226E-01
(PID.TID 0000.0001) %MON dynstat_uvel_min             =  -9.0896930708574E-01
(PID.TID 0000.0001) %MON dynstat_uvel_mean            =  -1.7024652229451E-04
(PID.TID 0000.0001) %MON dynstat_uvel_sd              =   1.2875013665046E-02
(PID.TID 0000.0001) %MON dynstat_uvel_del2            =   8.4936297534573E-05
(PID.TID 0000.0001) %MON dynstat_vvel_max             =   9.9965722123320E-01
(PID.TID 0000.0001) %MON dynstat_vvel_min             =  -1.1423223258823E+00
(PID.TID 0000.0001) %MON dynstat_vvel_mean            =  -4.3652640694821E-04
(PID.TID 0000.0001) %MON dynstat_vvel_sd              =   1.4071991504403E-02
(PID.TID 0000.0001) %MON dynstat_vvel_del2            =   1.2723037614486E-04
(PID.TID 0000.0001) %MON dynstat_wvel_max             =   1.8979519606675E-04
(PID.TID 0000.0001) %MON dynstat_wvel_min             =  -2.8940764100176E-04
(PID.TID 0000.0001) %MON dynstat_wvel_mean            =  -8.7254074698873E-08
(PID.TID 0000.0001) %MON dynstat_wvel_sd              =   8.4823887654302E-06
(PID.TID 0000.0001) %MON dynstat_wvel_del2            =   7.4607519932725E-08
(PID.TID 0000.0001) %MON dynstat_theta_max            =   3.0923426738244E+01
(PID.TID 0000.0001) %MON dynstat_theta_min            =  -3.0057631007662E+00
(PID.TID 0000.0001) %MON dynstat_theta_mean           =   3.9091301894509E+00
(PID.TID 0000.0001) %MON dynstat_theta_sd             =   4.5713785499779E+00
(PID.TID 0000.0001) %MON dynstat_theta_del2           =   2.6454324386992E-03
(PID.TID 0000.0001) %MON dynstat_salt_max             =   4.1356877026742E+01
(PID.TID 0000.0001) %MON dynstat_salt_min             =   1.8518689919843E+01
(PID.TID 0000.0001) %MON dynstat_salt_mean            =   3.4772024252174E+01
(PID.TID 0000.0001) %MON dynstat_salt_sd              =   5.3148072056081E-01
(PID.TID 0000.0001) %MON dynstat_salt_del2            =   9.3728709004504E-04
(PID.TID 0000.0001) %MON dynstat_sst_max              =   3.0923426738244E+01
(PID.TID 0000.0001) %MON dynstat_sst_min              =  -1.8990898657224E+00
(PID.TID 0000.0001) %MON dynstat_sst_mean             =   1.8108757446055E+01
(PID.TID 0000.0001) %MON dynstat_sst_sd               =   9.8091552994099E+00
(PID.TID 0000.0001) %MON dynstat_sst_del2             =   1.5099382896962E-02
(PID.TID 0000.0001) %MON dynstat_sss_max              =   4.1356877026742E+01
(PID.TID 0000.0001) %MON dynstat_sss_min              =   1.8751403709588E+01
(PID.TID 0000.0001) %MON dynstat_sss_mean             =   3.4629493292418E+01
(PID.TID 0000.0001) %MON dynstat_sss_sd               =   1.4705543944283E+00
(PID.TID 0000.0001) %MON dynstat_sss_del2             =   1.0055653525113E-02
(PID.TID 0000.0001) %MON forcing_qnet_max             =   2.7592303756037E+03
(PID.TID 0000.0001) %MON forcing_qnet_min             =  -4.7440810546875E+03
(PID.TID 0000.0001) %MON forcing_qnet_mean            =  -2.7910588604740E+00
(PID.TID 0000.0001) %MON forcing_qnet_sd              =   2.4958745003022E+02
(PID.TID 0000.0001) %MON forcing_qnet_del2            =   6.4982235473125E+00
(PID.TID 0000.0001) %MON forcing_qsw_max              =   0.0000000000000E+00
(PID.TID 0000.0001) %MON forcing_qsw_min              =  -9.7708974625006E+01
(PID.TID 0000.0001) %MON forcing_qsw_mean             =  -1.5745614189937E+01
(PID.TID 0000.0001) %MON forcing_qsw_sd               =   2.4625775720851E+01
(PID.TID 0000.0001) %MON forcing_qsw_del2             =   2.4665327419223E-01
(PID.TID 0000.0001) %MON forcing_empmr_max            =   8.0465711653233E-03
(PID.TID 0000.0001) %MON forcing_empmr_min            =  -1.1565632373095E-01
(PID.TID 0000.0001) %MON forcing_empmr_mean           =  -3.6734302156752E-04
(PID.TID 0000.0001) %MON forcing_empmr_sd             =   5.3635429203627E-03
(PID.TID 0000.0001) %MON forcing_empmr_del2           =   2.1151469378274E-04
(PID.TID 0000.0001) %MON forcing_fu_max               =   4.0477075169801E-01
(PID.TID 0000.0001) %MON forcing_fu_min               =  -3.7222898167331E-01
(PID.TID 0000.0001) %MON forcing_fu_mean              =  -4.0811420631075E-03
(PID.TID 0000.0001) %MON forcing_fu_sd                =   6.6500401977479E-02
(PID.TID 0000.0001) %MON forcing_fu_del2              =   6.4300483020634E-04
(PID.TID 0000.0001) %MON forcing_fv_max               =   3.1749629584837E-01
(PID.TID 0000.0001) %MON forcing_fv_min               =  -2.9555342162853E-01
(PID.TID 0000.0001) %MON forcing_fv_mean              =  -1.1875318858434E-02
(PID.TID 0000.0001) %MON forcing_fv_sd                =   6.6884705749082E-02
(PID.TID 0000.0001) %MON forcing_fv_del2              =   5.8057633407095E-04
(PID.TID 0000.0001) %MON trAdv_CFL_u_max              =   2.6844233562719E-03
(PID.TID 0000.0001) %MON trAdv_CFL_v_max              =   5.2955810723894E-03
(PID.TID 0000.0001) %MON trAdv_CFL_w_max              =   1.8528180355295E-03
(PID.TID 0000.0001) %MON advcfl_uvel_max              =   2.6753121400807E-03
(PID.TID 0000.0001) %MON advcfl_vvel_max              =   3.7278144345483E-03
(PID.TID 0000.0001) %MON advcfl_wvel_max              =   4.0228286515112E-03
(PID.TID 0000.0001) %MON advcfl_W_hf_max              =   2.4132459477282E-03
(PID.TID 0000.0001) %MON pe_b_mean                    =   5.1327609754180E-04
(PID.TID 0000.0001) %MON ke_max                       =   4.3925051018181E-01
(PID.TID 0000.0001) %MON ke_mean                      =   1.6812595321789E-04
(PID.TID 0000.0001) %MON ke_vol                       =   1.3398102037315E+18
(PID.TID 0000.0001) %MON vort_r_min                   =  -5.6694826227170E-06
(PID.TID 0000.0001) %MON vort_r_max                   =   3.2995392722508E-06
(PID.TID 0000.0001) %MON vort_a_mean                  =  -2.0549865324846E-05
(PID.TID 0000.0001) %MON vort_a_sd                    =   7.5259498903812E-05
(PID.TID 0000.0001) %MON vort_p_mean                  =  -2.4783326774666E-05
(PID.TID 0000.0001) %MON vort_p_sd                    =   1.2811901611491E-04
(PID.TID 0000.0001) %MON surfExpan_theta_mean         =  -6.8624335405757E-06
(PID.TID 0000.0001) %MON surfExpan_salt_mean          =   1.0671031065991E-06
(PID.TID 0000.0001) // =======================================================
(PID.TID 0000.0001) // End MONITOR dynamic field statistics
(PID.TID 0000.0001) // =======================================================
 cg2d: Sum(rhs),rhsMax =  -4.58310282317107E+01  4.12256369842133E+01
(PID.TID 0000.0001)      cg2d_init_res =   3.99953501249694E-01
(PID.TID 0000.0001)      cg2d_iters(min,last) =      -1      11
(PID.TID 0000.0001)      cg2d_last_res =   3.58919042336593E-08
(PID.TID 0000.0001) // =======================================================
(PID.TID 0000.0001) // Begin MONITOR dynamic field statistics
(PID.TID 0000.0001) // =======================================================
(PID.TID 0000.0001) %MON time_tsnumber                =                 72033
(PID.TID 0000.0001) %MON time_secondsf                =   6.4829700000000E+07
(PID.TID 0000.0001) %MON dynstat_eta_max              =   1.8613382574807E+00
(PID.TID 0000.0001) %MON dynstat_eta_min              =  -2.0079076122246E+00
(PID.TID 0000.0001) %MON dynstat_eta_mean             =   2.1954732442771E-02
(PID.TID 0000.0001) %MON dynstat_eta_sd               =   6.1984787874993E-01
(PID.TID 0000.0001) %MON dynstat_eta_del2             =   2.4593423953060E-03
(PID.TID 0000.0001) %MON dynstat_uvel_max             =   3.2001800839182E-01
(PID.TID 0000.0001) %MON dynstat_uvel_min             =  -9.3114470868634E-01
(PID.TID 0000.0001) %MON dynstat_uvel_mean            =  -2.0721843760461E-04
(PID.TID 0000.0001) %MON dynstat_uvel_sd              =   1.2909076082654E-02
(PID.TID 0000.0001) %MON dynstat_uvel_del2            =   8.5355544493585E-05
(PID.TID 0000.0001) %MON dynstat_vvel_max             =   1.0570957992485E+00
(PID.TID 0000.0001) %MON dynstat_vvel_min             =  -1.1647477571555E+00
(PID.TID 0000.0001) %MON dynstat_vvel_mean            =  -4.2487653468046E-04
(PID.TID 0000.0001) %MON dynstat_vvel_sd              =   1.4056974819392E-02
(PID.TID 0000.0001) %MON dynstat_vvel_del2            =   1.2804955599367E-04
(PID.TID 0000.0001) %MON dynstat_wvel_max             =   1.9651463219442E-04
(PID.TID 0000.0001) %MON dynstat_wvel_min             =  -2.6677702860562E-04
(PID.TID 0000.0001) %MON dynstat_wvel_mean            =  -6.6267184339635E-08
(PID.TID 0000.0001) %MON dynstat_wvel_sd              =   8.4638625923946E-06
(PID.TID 0000.0001) %MON dynstat_wvel_del2            =   7.4525976462476E-08
(PID.TID 0000.0001) %MON dynstat_theta_max            =   3.0923614158162E+01
(PID.TID 0000.0001) %MON dynstat_theta_min            =  -3.0056807423771E+00
(PID.TID 0000.0001) %MON dynstat_theta_mean           =   3.9091319461358E+00
(PID.TID 0000.0001) %MON dynstat_theta_sd             =   4.5713862525038E+00
(PID.TID 0000.0001) %MON dynstat_theta_del2           =   2.6453010001919E-03
(PID.TID 0000.0001) %MON dynstat_salt_max             =   4.1356559708955E+01
(PID.TID 0000.0001) %MON dynstat_salt_min             =   1.8518700260503E+01
(PID.TID 0000.0001) %MON dynstat_salt_mean            =   3.4772020529130E+01
(PID.TID 0000.0001) %MON dynstat_salt_sd              =   5.3150024367045E-01
(PID.TID 0000.0001) %MON dynstat_salt_del2            =   9.4264818628968E-04
(PID.TID 0000.0001) %MON dynstat_sst_max              =   3.0923614158162E+01
(PID.TID 0000.0001) %MON dynstat_sst_min              =  -1.8983412090816E+00
(PID.TID 0000.0001) %MON dynstat_sst_mean             =   1.8108775306992E+01
(PID.TID 0000.0001) %MON dynstat_sst_sd               =   9.8092952619420E+00
(PID.TID 0000.0001) %MON dynstat_sst_del2             =   1.5096778021723E-02
(PID.TID 0000.0001) %MON dynstat_sss_max              =   4.1356559708955E+01
(PID.TID 0000.0001) %MON dynstat_sss_min              =   1.8751407551536E+01
(PID.TID 0000.0001) %MON dynstat_sss_mean             =   3.4629226389359E+01
(PID.TID 0000.0001) %MON dynstat_sss_sd               =   1.4710467244709E+00
(PID.TID 0000.0001) %MON dynstat_sss_del2             =   1.0134494097048E-02
(PID.TID 0000.0001) %MON forcing_qnet_max             =   2.7227777655298E+03
(PID.TID 0000.0001) %MON forcing_qnet_min             =  -1.7145395816407E+03
(PID.TID 0000.0001) %MON forcing_qnet_mean            =   3.0454355431087E+00
(PID.TID 0000.0001) %MON forcing_qnet_sd              =   2.3413585542944E+02
(PID.TID 0000.0001) %MON forcing_qnet_del2            =   5.3958372990761E+00
(PID.TID 0000.0001) %MON forcing_qsw_max              =   0.0000000000000E+00
(PID.TID 0000.0001) %MON forcing_qsw_min              =  -1.0133038407952E+02
(PID.TID 0000.0001) %MON forcing_qsw_mean             =  -1.5150724275045E+01
(PID.TID 0000.0001) %MON forcing_qsw_sd               =   2.4435246112613E+01
(PID.TID 0000.0001) %MON forcing_qsw_del2             =   2.3720598764589E-01
(PID.TID 0000.0001) %MON forcing_empmr_max            =   7.9636173322797E-03
(PID.TID 0000.0001) %MON forcing_empmr_min            =  -1.1446481943130E-01
(PID.TID 0000.0001) %MON forcing_empmr_mean           =  -3.6164002888104E-04
(PID.TID 0000.0001) %MON forcing_empmr_sd             =   5.2890468801142E-03
(PID.TID 0000.0001) %MON forcing_empmr_del2           =   2.0851469745979E-04
(PID.TID 0000.0001) %MON forcing_fu_max               =   3.9135449809541E-01
(PID.TID 0000.0001) %MON forcing_fu_min               =  -3.7188320214332E-01
(PID.TID 0000.0001) %MON forcing_fu_mean              =  -4.1146424730422E-03
(PID.TID 0000.0001) %MON forcing_fu_sd                =   6.5751450775836E-02
(PID.TID 0000.0001) %MON forcing_fu_del2              =   6.3644635337261E-04
(PID.TID 0000.0001) %MON forcing_fv_max               =   3.1878481193859E-01
(PID.TID 0000.0001) %MON forcing_fv_min               =  -2.9027108106279E-01
(PID.TID 0000.0001) %MON forcing_fv_mean              =  -1.1986520576093E-02
(PID.TID 0000.0001) %MON forcing_fv_sd                =   6.6623726317940E-02
(PID.TID 0000.0001) %MON forcing_fv_del2              =   5.7691714550488E-04
(PID.TID 0000.0001) %MON trAdv_CFL_u_max              =   2.7537305493607E-03
(PID.TID 0000.0001) %MON trAdv_CFL_v_max              =   5.3268104919215E-03
(PID.TID 0000.0001) %MON trAdv_CFL_w_max              =   1.8043710058751E-03
(PID.TID 0000.0001) %MON advcfl_uvel_max              =   2.7405796036252E-03
(PID.TID 0000.0001) %MON advcfl_vvel_max              =   3.8009967969228E-03
(PID.TID 0000.0001) %MON advcfl_wvel_max              =   3.9813850236976E-03
(PID.TID 0000.0001) %MON advcfl_W_hf_max              =   2.5210485237760E-03
(PID.TID 0000.0001) %MON pe_b_mean                    =   5.1247969065568E-04
(PID.TID 0000.0001) %MON ke_max                       =   4.8418718800777E-01
(PID.TID 0000.0001) %MON ke_mean                      =   1.6833521500670E-04
(PID.TID 0000.0001) %MON ke_vol                       =   1.3398103199674E+18
(PID.TID 0000.0001) %MON vort_r_min                   =  -5.5730583484706E-06
(PID.TID 0000.0001) %MON vort_r_max                   =   3.4891251021517E-06
(PID.TID 0000.0001) %MON vort_a_mean                  =  -2.0549865324846E-05
(PID.TID 0000.0001) %MON vort_a_sd                    =   7.5259500279674E-05
(PID.TID 0000.0001) %MON vort_p_mean                  =  -2.4783324827543E-05
(PID.TID 0000.0001) %MON vort_p_sd                    =   1.2811902556800E-04
(PID.TID 0000.0001) %MON surfExpan_theta_mean         =  -6.8190038963078E-06
(PID.TID 0000.0001) %MON surfExpan_salt_mean          =   1.0333080415250E-06
(PID.TID 0000.0001) // =======================================================
(PID.TID 0000.0001) // End MONITOR dynamic field statistics
(PID.TID 0000.0001) // =======================================================
 cg2d: Sum(rhs),rhsMax =  -4.49545774504470E+01  4.26235940596609E+01
(PID.TID 0000.0001)      cg2d_init_res =   3.86331404788365E-01
(PID.TID 0000.0001)      cg2d_iters(min,last) =      -1      11
(PID.TID 0000.0001)      cg2d_last_res =   3.55771129317707E-08
(PID.TID 0000.0001) // =======================================================
(PID.TID 0000.0001) // Begin MONITOR dynamic field statistics
(PID.TID 0000.0001) // =======================================================
(PID.TID 0000.0001) %MON time_tsnumber                =                 72034
(PID.TID 0000.0001) %MON time_secondsf                =   6.4830600000000E+07
(PID.TID 0000.0001) %MON dynstat_eta_max              =   1.9047006617120E+00
(PID.TID 0000.0001) %MON dynstat_eta_min              =  -1.6073384650986E+00
(PID.TID 0000.0001) %MON dynstat_eta_mean             =   2.2265126151438E-02
(PID.TID 0000.0001) %MON dynstat_eta_sd               =   6.1938118211285E-01
(PID.TID 0000.0001) %MON dynstat_eta_del2             =   2.3167503382371E-03
(PID.TID 0000.0001) %MON dynstat_uvel_max             =   2.9738830913843E-01
(PID.TID 0000.0001) %MON dynstat_uvel_min             =  -9.4677839256626E-01
(PID.TID 0000.0001) %MON dynstat_uvel_mean            =  -2.4447754755661E-04
(PID.TID 0000.0001) %MON dynstat_uvel_sd              =   1.2943304293881E-02
(PID.TID 0000.0001) %MON dynstat_uvel_del2            =   8.5769367952251E-05
(PID.TID 0000.0001) %MON dynstat_vvel_max             =   1.0980412819581E+00
(PID.TID 0000.0001) %MON dynstat_vvel_min             =  -1.1685589083512E+00
(PID.TID 0000.0001) %MON dynstat_vvel_mean            =  -4.0904265472792E-04
(PID.TID 0000.0001) %MON dynstat_vvel_sd              =   1.4030208654882E-02
(PID.TID 0000.0001) %MON dynstat_vvel_del2            =   1.2825614449360E-04
(PID.TID 0000.0001) %MON dynstat_wvel_max             =   2.0427675688913E-04
(PID.TID 0000.0001) %MON dynstat_wvel_min             =  -2.4694797484699E-04
(PID.TID 0000.0001) %MON dynstat_wvel_mean            =  -4.7771604001998E-08
(PID.TID 0000.0001) %MON dynstat_wvel_sd              =   8.4346574833253E-06
(PID.TID 0000.0001) %MON dynstat_wvel_del2            =   7.4471450817619E-08
(PID.TID 0000.0001) %MON dynstat_theta_max            =   3.0923810065057E+01
(PID.TID 0000.0001) %MON dynstat_theta_min            =  -3.0055802510612E+00
(PID.TID 0000.0001) %MON dynstat_theta_mean           =   3.9091335209953E+00
(PID.TID 0000.0001) %MON dynstat_theta_sd             =   4.5713932406400E+00
(PID.TID 0000.0001) %MON dynstat_theta_del2           =   2.6451719253269E-03
(PID.TID 0000.0001) %MON dynstat_salt_max             =   4.1356246666366E+01
(PID.TID 0000.0001) %MON dynstat_salt_min             =   1.8518710645735E+01
(PID.TID 0000.0001) %MON dynstat_salt_mean            =   3.4772016881431E+01
(PID.TID 0000.0001) %MON dynstat_salt_sd              =   5.3151962180360E-01
(PID.TID 0000.0001) %MON dynstat_salt_del2            =   9.4796468864027E-04
(PID.TID 0000.0001) %MON dynstat_sst_max              =   3.0923810065057E+01
(PID.TID 0000.0001) %MON dynstat_sst_min              =  -1.8982220147225E+00
(PID.TID 0000.0001) %MON dynstat_sst_mean             =   1.8108782679033E+01
(PID.TID 0000.0001) %MON dynstat_sst_sd               =   9.8094292498369E+00
(PID.TID 0000.0001) %MON dynstat_sst_del2             =   1.5094254802548E-02
(PID.TID 0000.0001) %MON dynstat_sss_max              =   4.1356246666366E+01
(PID.TID 0000.0001) %MON dynstat_sss_min              =   1.8751412205135E+01
(PID.TID 0000.0001) %MON dynstat_sss_mean             =   3.4628965487710E+01
(PID.TID 0000.0001) %MON dynstat_sss_sd               =   1.4715351856010E+00
(PID.TID 0000.0001) %MON dynstat_sss_del2             =   1.0212510379443E-02
(PID.TID 0000.0001) %MON forcing_qnet_max             =   2.6852003851119E+03
(PID.TID 0000.0001) %MON forcing_qnet_min             =  -1.6920983822518E+03
(PID.TID 0000.0001) %MON forcing_qnet_mean            =   5.6833899563877E+00
(PID.TID 0000.0001) %MON forcing_qnet_sd              =   2.3274549482360E+02
(PID.TID 0000.0001) %MON forcing_qnet_del2            =   5.4302367494815E+00
(PID.TID 0000.0001) %MON forcing_qsw_max              =   0.0000000000000E+00
(PID.TID 0000.0001) %MON forcing_qsw_min              =  -1.0233768922898E+02
(PID.TID 0000.0001) %MON forcing_qsw_mean             =  -1.4955911790931E+01
(PID.TID 0000.0001) %MON forcing_qsw_sd               =   2.4504819575338E+01
(PID.TID 0000.0001) %MON forcing_qsw_del2             =   2.3347069748978E-01
(PID.TID 0000.0001) %MON forcing_empmr_max            =   7.8814504668117E-03
(PID.TID 0000.0001) %MON forcing_empmr_min            =  -1.1328590661287E-01
(PID.TID 0000.0001) %MON forcing_empmr_mean           =  -3.5695276496759E-04
(PID.TID 0000.0001) %MON forcing_empmr_sd             =   5.2179671281614E-03
(PID.TID 0000.0001) %MON forcing_empmr_del2           =   2.0572848330230E-04
(PID.TID 0000.0001) %MON forcing_fu_max               =   3.8491864526910E-01
(PID.TID 0000.0001) %MON forcing_fu_min               =  -3.7227793666592E-01
(PID.TID 0000.0001) %MON forcing_fu_mean              =  -4.1209175483248E-03
(PID.TID 0000.0001) %MON forcing_fu_sd                =   6.5256462660143E-02
(PID.TID 0000.0001) %MON forcing_fu_del2              =   6.3305818485908E-04
(PID.TID 0000.0001) %MON forcing_fv_max               =   3.2244331827323E-01
(PID.TID 0000.0001) %MON forcing_fv_min               =  -2.8423342065533E-01
(PID.TID 0000.0001) %MON forcing_fv_mean              =  -1.2125839286164E-02
(PID.TID 0000.0001) %MON forcing_fv_sd                =   6.6344880044746E-02
(PID.TID 0000.0001) %MON forcing_fv_del2              =   5.7339152853923E-04
(PID.TID 0000.0001) %MON trAdv_CFL_u_max              =   2.8043255067157E-03
(PID.TID 0000.0001) %MON trAdv_CFL_v_max              =   5.2909403977325E-03
(PID.TID 0000.0001) %MON trAdv_CFL_w_max              =   1.8261677081081E-03
(PID.TID 0000.0001) %MON advcfl_uvel_max              =   2.7865932412168E-03
(PID.TID 0000.0001) %MON advcfl_vvel_max              =   3.8134339734689E-03
(PID.TID 0000.0001) %MON advcfl_wvel_max              =   3.9403793604478E-03
(PID.TID 0000.0001) %MON advcfl_W_hf_max              =   2.6088110115830E-03
(PID.TID 0000.0001) %MON pe_b_mean                    =   5.1172747523011E-04
(PID.TID 0000.0001) %MON ke_max                       =   5.1476506143566E-01
(PID.TID 0000.0001) %MON ke_mean                      =   1.6839453079360E-04
(PID.TID 0000.0001) %MON ke_vol                       =   1.3398104343987E+18
(PID.TID 0000.0001) %MON vort_r_min                   =  -5.4323559100188E-06
(PID.TID 0000.0001) %MON vort_r_max                   =   3.6242726560849E-06
(PID.TID 0000.0001) %MON vort_a_mean                  =  -2.0549865324846E-05
(PID.TID 0000.0001) %MON vort_a_sd                    =   7.5259502774316E-05
(PID.TID 0000.0001) %MON vort_p_mean                  =  -2.4783322934108E-05
(PID.TID 0000.0001) %MON vort_p_sd                    =   1.2811903861055E-04
(PID.TID 0000.0001) %MON surfExpan_theta_mean         =  -6.7597238298436E-06
(PID.TID 0000.0001) %MON surfExpan_salt_mean          =   1.0032242393901E-06
(PID.TID 0000.0001) // =======================================================
(PID.TID 0000.0001) // End MONITOR dynamic field statistics
(PID.TID 0000.0001) // =======================================================
 cg2d: Sum(rhs),rhsMax =  -4.24936609395369E+01  4.57104009368023E+01
(PID.TID 0000.0001)      cg2d_init_res =   3.57358871904438E-01
(PID.TID 0000.0001)      cg2d_iters(min,last) =      -1      11
(PID.TID 0000.0001)      cg2d_last_res =   3.26985656557111E-08
(PID.TID 0000.0001) // =======================================================
(PID.TID 0000.0001) // Begin MONITOR dynamic field statistics
(PID.TID 0000.0001) // =======================================================
(PID.TID 0000.0001) %MON time_tsnumber                =                 72035
(PID.TID 0000.0001) %MON time_secondsf                =   6.4831500000000E+07
(PID.TID 0000.0001) %MON dynstat_eta_max              =   2.0416681617359E+00
(PID.TID 0000.0001) %MON dynstat_eta_min              =  -1.6074244647982E+00
(PID.TID 0000.0001) %MON dynstat_eta_mean             =   2.2570456974287E-02
(PID.TID 0000.0001) %MON dynstat_eta_sd               =   6.1895702187237E-01
(PID.TID 0000.0001) %MON dynstat_eta_del2             =   2.1978599429104E-03
(PID.TID 0000.0001) %MON dynstat_uvel_max             =   3.1048182319305E-01
(PID.TID 0000.0001) %MON dynstat_uvel_min             =  -9.5540895296483E-01
(PID.TID 0000.0001) %MON dynstat_uvel_mean            =  -2.8126037249659E-04
(PID.TID 0000.0001) %MON dynstat_uvel_sd              =   1.2974606254051E-02
(PID.TID 0000.0001) %MON dynstat_uvel_del2            =   8.6132503000150E-05
(PID.TID 0000.0001) %MON dynstat_vvel_max             =   1.1227898188132E+00
(PID.TID 0000.0001) %MON dynstat_vvel_min             =  -1.1542290230008E+00
(PID.TID 0000.0001) %MON dynstat_vvel_mean            =  -3.8881981723141E-04
(PID.TID 0000.0001) %MON dynstat_vvel_sd              =   1.3993911805689E-02
(PID.TID 0000.0001) %MON dynstat_vvel_del2            =   1.2785186928580E-04
(PID.TID 0000.0001) %MON dynstat_wvel_max             =   2.0907762402859E-04
(PID.TID 0000.0001) %MON dynstat_wvel_min             =  -2.3005565571671E-04
(PID.TID 0000.0001) %MON dynstat_wvel_mean            =  -3.2230106529562E-08
(PID.TID 0000.0001) %MON dynstat_wvel_sd              =   8.3945068635725E-06
(PID.TID 0000.0001) %MON dynstat_wvel_del2            =   7.4428370811094E-08
(PID.TID 0000.0001) %MON dynstat_theta_max            =   3.0924012287235E+01
(PID.TID 0000.0001) %MON dynstat_theta_min            =  -3.0054633262805E+00
(PID.TID 0000.0001) %MON dynstat_theta_mean           =   3.9091349125547E+00
(PID.TID 0000.0001) %MON dynstat_theta_sd             =   4.5713994645296E+00
(PID.TID 0000.0001) %MON dynstat_theta_del2           =   2.6450429984499E-03
(PID.TID 0000.0001) %MON dynstat_salt_max             =   4.1355935582855E+01
(PID.TID 0000.0001) %MON dynstat_salt_min             =   1.8518721066038E+01
(PID.TID 0000.0001) %MON dynstat_salt_mean            =   3.4772013305549E+01
(PID.TID 0000.0001) %MON dynstat_salt_sd              =   5.3153884550567E-01
(PID.TID 0000.0001) %MON dynstat_salt_del2            =   9.5323282548442E-04
(PID.TID 0000.0001) %MON dynstat_sst_max              =   3.0924012287235E+01
(PID.TID 0000.0001) %MON dynstat_sst_min              =  -1.8981004239670E+00
(PID.TID 0000.0001) %MON dynstat_sst_mean             =   1.8108779030878E+01
(PID.TID 0000.0001) %MON dynstat_sst_sd               =   9.8095559254799E+00
(PID.TID 0000.0001) %MON dynstat_sst_del2             =   1.5091746838772E-02
(PID.TID 0000.0001) %MON dynstat_sss_max              =   4.1355935582855E+01
(PID.TID 0000.0001) %MON dynstat_sss_min              =   1.8751417488051E+01
(PID.TID 0000.0001) %MON dynstat_sss_mean             =   3.4628710229392E+01
(PID.TID 0000.0001) %MON dynstat_sss_sd               =   1.4720194243162E+00
(PID.TID 0000.0001) %MON dynstat_sss_del2             =   1.0289655701073E-02
(PID.TID 0000.0001) %MON forcing_qnet_max             =   2.6494555249068E+03
(PID.TID 0000.0001) %MON forcing_qnet_min             =  -1.7065482177734E+03
(PID.TID 0000.0001) %MON forcing_qnet_mean            =   8.3037366413790E+00
(PID.TID 0000.0001) %MON forcing_qnet_sd              =   2.3187580003645E+02
(PID.TID 0000.0001) %MON forcing_qnet_del2            =   5.3996311601682E+00
(PID.TID 0000.0001) %MON forcing_qsw_max              =   0.0000000000000E+00
(PID.TID 0000.0001) %MON forcing_qsw_min              =  -1.0349518578863E+02
(PID.TID 0000.0001) %MON forcing_qsw_mean             =  -1.4728522436939E+01
(PID.TID 0000.0001) %MON forcing_qsw_sd               =   2.4546206728976E+01
(PID.TID 0000.0001) %MON forcing_qsw_del2             =   2.2933144560464E-01
(PID.TID 0000.0001) %MON forcing_empmr_max            =   7.8002670779824E-03
(PID.TID 0000.0001) %MON forcing_empmr_min            =  -1.1211789399385E-01
(PID.TID 0000.0001) %MON forcing_empmr_mean           =  -3.5113044627591E-04
(PID.TID 0000.0001) %MON forcing_empmr_sd             =   5.1305763898260E-03
(PID.TID 0000.0001) %MON forcing_empmr_del2           =   2.0232837871707E-04
(PID.TID 0000.0001) %MON forcing_fu_max               =   3.8143009863551E-01
(PID.TID 0000.0001) %MON forcing_fu_min               =  -3.7221777388991E-01
(PID.TID 0000.0001) %MON forcing_fu_mean              =  -4.0882666777538E-03
(PID.TID 0000.0001) %MON forcing_fu_sd                =   6.4881169268496E-02
(PID.TID 0000.0001) %MON forcing_fu_del2              =   6.2967128169991E-04
(PID.TID 0000.0001) %MON forcing_fv_max               =   3.2926206316145E-01
(PID.TID 0000.0001) %MON forcing_fv_min               =  -2.7910425439319E-01
(PID.TID 0000.0001) %MON forcing_fv_mean              =  -1.2284471613060E-02
(PID.TID 0000.0001) %MON forcing_fv_sd                =   6.6133648231553E-02
(PID.TID 0000.0001) %MON forcing_fv_del2              =   5.6990661504579E-04
(PID.TID 0000.0001) %MON trAdv_CFL_u_max              =   2.9826253316618E-03
(PID.TID 0000.0001) %MON trAdv_CFL_v_max              =   5.1900493854299E-03
(PID.TID 0000.0001) %MON trAdv_CFL_w_max              =   1.8726616129165E-03
(PID.TID 0000.0001) %MON advcfl_uvel_max              =   2.9692374908699E-03
(PID.TID 0000.0001) %MON advcfl_vvel_max              =   3.7666703304547E-03
(PID.TID 0000.0001) %MON advcfl_wvel_max              =   3.8997528345689E-03
(PID.TID 0000.0001) %MON advcfl_W_hf_max              =   2.6752308755949E-03
(PID.TID 0000.0001) %MON pe_b_mean                    =   5.1104593823570E-04
(PID.TID 0000.0001) %MON ke_max                       =   5.2882872804024E-01
(PID.TID 0000.0001) %MON ke_mean                      =   1.6829667845838E-04
(PID.TID 0000.0001) %MON ke_vol                       =   1.3398105473469E+18
(PID.TID 0000.0001) %MON vort_r_min                   =  -5.2484340634721E-06
(PID.TID 0000.0001) %MON vort_r_max                   =   3.7059594258595E-06
(PID.TID 0000.0001) %MON vort_a_mean                  =  -2.0549865324846E-05
(PID.TID 0000.0001) %MON vort_a_sd                    =   7.5259506461649E-05
(PID.TID 0000.0001) %MON vort_p_mean                  =  -2.4783321084720E-05
(PID.TID 0000.0001) %MON vort_p_sd                    =   1.2811905399478E-04
(PID.TID 0000.0001) %MON surfExpan_theta_mean         =  -6.6854241641996E-06
(PID.TID 0000.0001) %MON surfExpan_salt_mean          =   9.7625785255270E-07
(PID.TID 0000.0001) // =======================================================
(PID.TID 0000.0001) // End MONITOR dynamic field statistics
(PID.TID 0000.0001) // =======================================================
 Computing Diagnostic #     81  oceTAUX      Counter:       1   Parms: UU      U1      
           Vector  Mate for  oceTAUX      Diagnostic #     82  oceTAUY  exists 
 Computing Diagnostic #     82  oceTAUY      Counter:       1   Parms: VV      U1      
           Vector  Mate for  oceTAUY      Diagnostic #     81  oceTAUX  exists 
 Computing Diagnostic #     85  oceFWflx     Counter:       1   Parms: SM      U1      
 Computing Diagnostic #     86  oceSflux     Counter:       1   Parms: SM      U1      
 Computing Diagnostic #     87  oceQnet      Counter:       1   Parms: SM      U1      
 Computing Diagnostic #     88  oceQsw       Counter:       1   Parms: SM      U1      
 Computing Diagnostic #     27  SALT         Counter:       1   Parms: SMR     MR      
 Computing Diagnostic #     26  THETA        Counter:       1   Parms: SMR     MR      
 Computing Diagnostic #     45  UVELMASS     Counter:       1   Parms: UUr     MR      
           Vector  Mate for  UVELMASS     Diagnostic #     46  VVELMASS exists 
 Computing Diagnostic #     46  VVELMASS     Counter:       1   Parms: VVr     MR      
           Vector  Mate for  VVELMASS     Diagnostic #     45  UVELMASS exists 
 Computing Diagnostic #     83  atmPload     Counter:       1   Parms: SM      U1      
 cg2d: Sum(rhs),rhsMax =  -4.03874868428783E+01  4.87353910122147E+01
(PID.TID 0000.0001)      cg2d_init_res =   3.30564340388083E-01
(PID.TID 0000.0001)      cg2d_iters(min,last) =      -1      11
(PID.TID 0000.0001)      cg2d_last_res =   2.91235904419726E-08
(PID.TID 0000.0001) // =======================================================
(PID.TID 0000.0001) // Begin MONITOR dynamic field statistics
(PID.TID 0000.0001) // =======================================================
(PID.TID 0000.0001) %MON time_tsnumber                =                 72036
(PID.TID 0000.0001) %MON time_secondsf                =   6.4832400000000E+07
(PID.TID 0000.0001) %MON dynstat_eta_max              =   2.1758606042516E+00
(PID.TID 0000.0001) %MON dynstat_eta_min              =  -1.6076343818177E+00
(PID.TID 0000.0001) %MON dynstat_eta_mean             =   2.2871384634550E-02
(PID.TID 0000.0001) %MON dynstat_eta_sd               =   6.1858630382503E-01
(PID.TID 0000.0001) %MON dynstat_eta_del2             =   2.1074569183570E-03
(PID.TID 0000.0001) %MON dynstat_uvel_max             =   3.2241740660099E-01
(PID.TID 0000.0001) %MON dynstat_uvel_min             =  -9.5667561418023E-01
(PID.TID 0000.0001) %MON dynstat_uvel_mean            =  -3.1689815958561E-04
(PID.TID 0000.0001) %MON dynstat_uvel_sd              =   1.3000294834408E-02
(PID.TID 0000.0001) %MON dynstat_uvel_del2            =   8.6416063488209E-05
(PID.TID 0000.0001) %MON dynstat_vvel_max             =   1.1318759330333E+00
(PID.TID 0000.0001) %MON dynstat_vvel_min             =  -1.1225526070118E+00
(PID.TID 0000.0001) %MON dynstat_vvel_mean            =  -3.6412104469697E-04
(PID.TID 0000.0001) %MON dynstat_vvel_sd              =   1.3950731323378E-02
(PID.TID 0000.0001) %MON dynstat_vvel_del2            =   1.2684392933279E-04
(PID.TID 0000.0001) %MON dynstat_wvel_max             =   2.1149101871129E-04
(PID.TID 0000.0001) %MON dynstat_wvel_min             =  -2.1598974326296E-04
(PID.TID 0000.0001) %MON dynstat_wvel_mean            =  -2.1121457690822E-08
(PID.TID 0000.0001) %MON dynstat_wvel_sd              =   8.3460232347351E-06
(PID.TID 0000.0001) %MON dynstat_wvel_del2            =   7.4406248636319E-08
(PID.TID 0000.0001) %MON dynstat_theta_max            =   3.0924219814382E+01
(PID.TID 0000.0001) %MON dynstat_theta_min            =  -3.0053326554974E+00
(PID.TID 0000.0001) %MON dynstat_theta_mean           =   3.9091361696812E+00
(PID.TID 0000.0001) %MON dynstat_theta_sd             =   4.5714051135739E+00
(PID.TID 0000.0001) %MON dynstat_theta_del2           =   2.6449096911699E-03
(PID.TID 0000.0001) %MON dynstat_salt_max             =   4.1355623885133E+01
(PID.TID 0000.0001) %MON dynstat_salt_min             =   1.8518731522862E+01
(PID.TID 0000.0001) %MON dynstat_salt_mean            =   3.4772009803794E+01
(PID.TID 0000.0001) %MON dynstat_salt_sd              =   5.3155792415142E-01
(PID.TID 0000.0001) %MON dynstat_salt_del2            =   9.5844818720857E-04
(PID.TID 0000.0001) %MON dynstat_sst_max              =   3.0924219814382E+01
(PID.TID 0000.0001) %MON dynstat_sst_min              =  -1.8979767106601E+00
(PID.TID 0000.0001) %MON dynstat_sst_mean             =   1.8108771624849E+01
(PID.TID 0000.0001) %MON dynstat_sst_sd               =   9.8096771654333E+00
(PID.TID 0000.0001) %MON dynstat_sst_del2             =   1.5089122184067E-02
(PID.TID 0000.0001) %MON dynstat_sss_max              =   4.1355623885133E+01
(PID.TID 0000.0001) %MON dynstat_sss_min              =   1.8751423494481E+01
(PID.TID 0000.0001) %MON dynstat_sss_mean             =   3.4628462149293E+01
(PID.TID 0000.0001) %MON dynstat_sss_sd               =   1.4725015798639E+00
(PID.TID 0000.0001) %MON dynstat_sss_del2             =   1.0365863462422E-02
(PID.TID 0000.0001) %MON forcing_qnet_max             =   2.6128733150107E+03
(PID.TID 0000.0001) %MON forcing_qnet_min             =  -1.6451956177617E+03
(PID.TID 0000.0001) %MON forcing_qnet_mean            =   1.0235054592983E+01
(PID.TID 0000.0001) %MON forcing_qnet_sd              =   2.2969207297403E+02
(PID.TID 0000.0001) %MON forcing_qnet_del2            =   5.3073414269301E+00
(PID.TID 0000.0001) %MON forcing_qsw_max              =   0.0000000000000E+00
(PID.TID 0000.0001) %MON forcing_qsw_min              =  -1.0463479850216E+02
(PID.TID 0000.0001) %MON forcing_qsw_mean             =  -1.4469954730755E+01
(PID.TID 0000.0001) %MON forcing_qsw_sd               =   2.4557845022654E+01
(PID.TID 0000.0001) %MON forcing_qsw_del2             =   2.2484476451247E-01
(PID.TID 0000.0001) %MON forcing_empmr_max            =   7.7198715880513E-03
(PID.TID 0000.0001) %MON forcing_empmr_min            =  -1.1096331477165E-01
(PID.TID 0000.0001) %MON forcing_empmr_mean           =  -3.4606680930245E-04
(PID.TID 0000.0001) %MON forcing_empmr_sd             =   5.0399153623345E-03
(PID.TID 0000.0001) %MON forcing_empmr_del2           =   1.9880912237860E-04
(PID.TID 0000.0001) %MON forcing_fu_max               =   3.7474119833303E-01
(PID.TID 0000.0001) %MON forcing_fu_min               =  -3.7172373664247E-01
(PID.TID 0000.0001) %MON forcing_fu_mean              =  -4.0606815962121E-03
(PID.TID 0000.0001) %MON forcing_fu_sd                =   6.4416911897666E-02
(PID.TID 0000.0001) %MON forcing_fu_del2              =   6.2585558918827E-04
(PID.TID 0000.0001) %MON forcing_fv_max               =   3.2695494369717E-01
(PID.TID 0000.0001) %MON forcing_fv_min               =  -2.8003046401962E-01
(PID.TID 0000.0001) %MON forcing_fv_mean              =  -1.2457942103024E-02
(PID.TID 0000.0001) %MON forcing_fv_sd                =   6.5899829834694E-02
(PID.TID 0000.0001) %MON forcing_fv_del2              =   5.6701566973002E-04
(PID.TID 0000.0001) %MON trAdv_CFL_u_max              =   3.1284451580647E-03
(PID.TID 0000.0001) %MON trAdv_CFL_v_max              =   5.0271887544290E-03
(PID.TID 0000.0001) %MON trAdv_CFL_w_max              =   1.9035968942969E-03
(PID.TID 0000.0001) %MON advcfl_uvel_max              =   3.1035274953956E-03
(PID.TID 0000.0001) %MON advcfl_vvel_max              =   3.6632986304686E-03
(PID.TID 0000.0001) %MON advcfl_wvel_max              =   3.8595935572749E-03
(PID.TID 0000.0001) %MON advcfl_W_hf_max              =   2.7194241347098E-03
(PID.TID 0000.0001) %MON pe_b_mean                    =   5.1045293746007E-04
(PID.TID 0000.0001) %MON ke_max                       =   5.2564507410448E-01
(PID.TID 0000.0001) %MON ke_mean                      =   1.6804450702939E-04
(PID.TID 0000.0001) %MON ke_vol                       =   1.3398106584527E+18
(PID.TID 0000.0001) %MON vort_r_min                   =  -5.0229604673440E-06
(PID.TID 0000.0001) %MON vort_r_max                   =   3.7359496965886E-06
(PID.TID 0000.0001) %MON vort_a_mean                  =  -2.0549865324846E-05
(PID.TID 0000.0001) %MON vort_a_sd                    =   7.5259511371135E-05
(PID.TID 0000.0001) %MON vort_p_mean                  =  -2.4783319281968E-05
(PID.TID 0000.0001) %MON vort_p_sd                    =   1.2811907046751E-04
(PID.TID 0000.0001) %MON surfExpan_theta_mean         =  -6.6221957414650E-06
(PID.TID 0000.0001) %MON surfExpan_salt_mean          =   9.5416347203874E-07
(PID.TID 0000.0001) // =======================================================
(PID.TID 0000.0001) // End MONITOR dynamic field statistics
(PID.TID 0000.0001) // =======================================================
 cg2d: Sum(rhs),rhsMax =  -3.85893400668629E+01  5.16640291876417E+01
(PID.TID 0000.0001)      cg2d_init_res =   3.06325880407090E-01
(PID.TID 0000.0001)      cg2d_iters(min,last) =      -1      11
(PID.TID 0000.0001)      cg2d_last_res =   2.54262580957807E-08
(PID.TID 0000.0001) // =======================================================
(PID.TID 0000.0001) // Begin MONITOR dynamic field statistics
(PID.TID 0000.0001) // =======================================================
(PID.TID 0000.0001) %MON time_tsnumber                =                 72037
(PID.TID 0000.0001) %MON time_secondsf                =   6.4833300000000E+07
(PID.TID 0000.0001) %MON dynstat_eta_max              =   2.3057491824922E+00
(PID.TID 0000.0001) %MON dynstat_eta_min              =  -1.6079187972049E+00
(PID.TID 0000.0001) %MON dynstat_eta_mean             =   2.3166306494153E-02
(PID.TID 0000.0001) %MON dynstat_eta_sd               =   6.1827627975690E-01
(PID.TID 0000.0001) %MON dynstat_eta_del2             =   2.0489134043434E-03
(PID.TID 0000.0001) %MON dynstat_uvel_max             =   3.3307414434404E-01
(PID.TID 0000.0001) %MON dynstat_uvel_min             =  -9.5132791234583E-01
(PID.TID 0000.0001) %MON dynstat_uvel_mean            =  -3.5079352709733E-04
(PID.TID 0000.0001) %MON dynstat_uvel_sd              =   1.3018436766997E-02
(PID.TID 0000.0001) %MON dynstat_uvel_del2            =   8.6606951332266E-05
(PID.TID 0000.0001) %MON dynstat_vvel_max             =   1.1260469700147E+00
(PID.TID 0000.0001) %MON dynstat_vvel_min             =  -1.0746078673885E+00
(PID.TID 0000.0001) %MON dynstat_vvel_mean            =  -3.3496796039802E-04
(PID.TID 0000.0001) %MON dynstat_vvel_sd              =   1.3903476510135E-02
(PID.TID 0000.0001) %MON dynstat_vvel_del2            =   1.2524482452383E-04
(PID.TID 0000.0001) %MON dynstat_wvel_max             =   2.1318524290002E-04
(PID.TID 0000.0001) %MON dynstat_wvel_min             =  -2.0447311110435E-04
(PID.TID 0000.0001) %MON dynstat_wvel_mean            =  -1.4187515144141E-08
(PID.TID 0000.0001) %MON dynstat_wvel_sd              =   8.2911283305378E-06
(PID.TID 0000.0001) %MON dynstat_wvel_del2            =   7.4386297306653E-08
(PID.TID 0000.0001) %MON dynstat_theta_max            =   3.0924417061300E+01
(PID.TID 0000.0001) %MON dynstat_theta_min            =  -3.0051916320738E+00
(PID.TID 0000.0001) %MON dynstat_theta_mean           =   3.9091372183232E+00
(PID.TID 0000.0001) %MON dynstat_theta_sd             =   4.5714099002115E+00
(PID.TID 0000.0001) %MON dynstat_theta_del2           =   2.6447759145953E-03
(PID.TID 0000.0001) %MON dynstat_salt_max             =   4.1355309079839E+01
(PID.TID 0000.0001) %MON dynstat_salt_min             =   1.8518742009076E+01
(PID.TID 0000.0001) %MON dynstat_salt_mean            =   3.4772006366874E+01
(PID.TID 0000.0001) %MON dynstat_salt_sd              =   5.3157685063518E-01
(PID.TID 0000.0001) %MON dynstat_salt_del2            =   9.6360899452159E-04
(PID.TID 0000.0001) %MON dynstat_sst_max              =   3.0924417061300E+01
(PID.TID 0000.0001) %MON dynstat_sst_min              =  -1.8978524259734E+00
(PID.TID 0000.0001) %MON dynstat_sst_mean             =   1.8108748410089E+01
(PID.TID 0000.0001) %MON dynstat_sst_sd               =   9.8097891267286E+00
(PID.TID 0000.0001) %MON dynstat_sst_del2             =   1.5086481729925E-02
(PID.TID 0000.0001) %MON dynstat_sss_max              =   4.1355309079839E+01
(PID.TID 0000.0001) %MON dynstat_sss_min              =   1.8751430496303E+01
(PID.TID 0000.0001) %MON dynstat_sss_mean             =   3.4628218220565E+01
(PID.TID 0000.0001) %MON dynstat_sss_sd               =   1.4729781011636E+00
(PID.TID 0000.0001) %MON dynstat_sss_del2             =   1.0441131073722E-02
(PID.TID 0000.0001) %MON forcing_qnet_max             =   2.5785979567357E+03
(PID.TID 0000.0001) %MON forcing_qnet_min             =  -1.6217979699443E+03
(PID.TID 0000.0001) %MON forcing_qnet_mean            =   1.3379566433629E+01
(PID.TID 0000.0001) %MON forcing_qnet_sd              =   2.2630032015195E+02
(PID.TID 0000.0001) %MON forcing_qnet_del2            =   5.0362819233910E+00
(PID.TID 0000.0001) %MON forcing_qsw_max              =   0.0000000000000E+00
(PID.TID 0000.0001) %MON forcing_qsw_min              =  -1.0619028009421E+02
(PID.TID 0000.0001) %MON forcing_qsw_mean             =  -1.3892790906019E+01
(PID.TID 0000.0001) %MON forcing_qsw_sd               =   2.4640620046260E+01
(PID.TID 0000.0001) %MON forcing_qsw_del2             =   2.1176570477369E-01
(PID.TID 0000.0001) %MON forcing_empmr_max            =   7.6402621343732E-03
(PID.TID 0000.0001) %MON forcing_empmr_min            =  -1.0981963574886E-01
(PID.TID 0000.0001) %MON forcing_empmr_mean           =  -3.3916013854379E-04
(PID.TID 0000.0001) %MON forcing_empmr_sd             =   4.9272698235178E-03
(PID.TID 0000.0001) %MON forcing_empmr_del2           =   1.9445950529256E-04
(PID.TID 0000.0001) %MON forcing_fu_max               =   3.7204454326292E-01
(PID.TID 0000.0001) %MON forcing_fu_min               =  -3.7059973633969E-01
(PID.TID 0000.0001) %MON forcing_fu_mean              =  -4.0060047513349E-03
(PID.TID 0000.0001) %MON forcing_fu_sd                =   6.4151467843281E-02
(PID.TID 0000.0001) %MON forcing_fu_del2              =   6.2510049832714E-04
(PID.TID 0000.0001) %MON forcing_fv_max               =   3.3648693612930E-01
(PID.TID 0000.0001) %MON forcing_fv_min               =  -2.8152103729658E-01
(PID.TID 0000.0001) %MON forcing_fv_mean              =  -1.2625892088713E-02
(PID.TID 0000.0001) %MON forcing_fv_sd                =   6.5767987824452E-02
(PID.TID 0000.0001) %MON forcing_fv_del2              =   5.6549520621033E-04
(PID.TID 0000.0001) %MON trAdv_CFL_u_max              =   3.2092279772679E-03
(PID.TID 0000.0001) %MON trAdv_CFL_v_max              =   4.8063207354685E-03
(PID.TID 0000.0001) %MON trAdv_CFL_w_max              =   1.9188257629562E-03
(PID.TID 0000.0001) %MON advcfl_uvel_max              =   3.1724565791050E-03
(PID.TID 0000.0001) %MON advcfl_vvel_max              =   3.5068374562634E-03
(PID.TID 0000.0001) %MON advcfl_wvel_max              =   3.8198134173518E-03
(PID.TID 0000.0001) %MON advcfl_W_hf_max              =   2.7411796613659E-03
(PID.TID 0000.0001) %MON pe_b_mean                    =   5.0996015075728E-04
(PID.TID 0000.0001) %MON ke_max                       =   5.0582779524724E-01
(PID.TID 0000.0001) %MON ke_mean                      =   1.6765157208898E-04
(PID.TID 0000.0001) %MON ke_vol                       =   1.3398107679563E+18
(PID.TID 0000.0001) %MON vort_r_min                   =  -4.7581781422285E-06
(PID.TID 0000.0001) %MON vort_r_max                   =   3.7167102093046E-06
(PID.TID 0000.0001) %MON vort_a_mean                  =  -2.0549865324846E-05
(PID.TID 0000.0001) %MON vort_a_sd                    =   7.5259517502078E-05
(PID.TID 0000.0001) %MON vort_p_mean                  =  -2.4783317517016E-05
(PID.TID 0000.0001) %MON vort_p_sd                    =   1.2811908655329E-04
(PID.TID 0000.0001) %MON surfExpan_theta_mean         =  -6.5525543418062E-06
(PID.TID 0000.0001) %MON surfExpan_salt_mean          =   9.3480403186155E-07
(PID.TID 0000.0001) // =======================================================
(PID.TID 0000.0001) // End MONITOR dynamic field statistics
(PID.TID 0000.0001) // =======================================================
 cg2d: Sum(rhs),rhsMax =  -3.70572527163957E+01  5.44617427673353E+01
(PID.TID 0000.0001)      cg2d_init_res =   2.84589318316585E-01
(PID.TID 0000.0001)      cg2d_iters(min,last) =      -1      10
(PID.TID 0000.0001)      cg2d_last_res =   9.81692637609171E-08
(PID.TID 0000.0001) // =======================================================
(PID.TID 0000.0001) // Begin MONITOR dynamic field statistics
(PID.TID 0000.0001) // =======================================================
(PID.TID 0000.0001) %MON time_tsnumber                =                 72038
(PID.TID 0000.0001) %MON time_secondsf                =   6.4834200000000E+07
(PID.TID 0000.0001) %MON dynstat_eta_max              =   2.4298033685873E+00
(PID.TID 0000.0001) %MON dynstat_eta_min              =  -1.6082238330067E+00
(PID.TID 0000.0001) %MON dynstat_eta_mean             =   2.3451246252032E-02
(PID.TID 0000.0001) %MON dynstat_eta_sd               =   6.1803085393127E-01
(PID.TID 0000.0001) %MON dynstat_eta_del2             =   2.0238291036046E-03
(PID.TID 0000.0001) %MON dynstat_uvel_max             =   3.4234139289020E-01
(PID.TID 0000.0001) %MON dynstat_uvel_min             =  -9.5301677148676E-01
(PID.TID 0000.0001) %MON dynstat_uvel_mean            =  -3.8245597845985E-04
(PID.TID 0000.0001) %MON dynstat_uvel_sd              =   1.3027361412922E-02
(PID.TID 0000.0001) %MON dynstat_uvel_del2            =   8.6700548982086E-05
(PID.TID 0000.0001) %MON dynstat_vvel_max             =   1.1062365448510E+00
(PID.TID 0000.0001) %MON dynstat_vvel_min             =  -1.0117211440831E+00
(PID.TID 0000.0001) %MON dynstat_vvel_mean            =  -3.0149909644317E-04
(PID.TID 0000.0001) %MON dynstat_vvel_sd              =   1.3854790814238E-02
(PID.TID 0000.0001) %MON dynstat_vvel_del2            =   1.2307400932144E-04
(PID.TID 0000.0001) %MON dynstat_wvel_max             =   2.1318065763815E-04
(PID.TID 0000.0001) %MON dynstat_wvel_min             =  -1.9718116506769E-04
(PID.TID 0000.0001) %MON dynstat_wvel_mean            =  -1.0875014512387E-08
(PID.TID 0000.0001) %MON dynstat_wvel_sd              =   8.2317616327514E-06
(PID.TID 0000.0001) %MON dynstat_wvel_del2            =   7.4375914448896E-08
(PID.TID 0000.0001) %MON dynstat_theta_max            =   3.0924615761193E+01
(PID.TID 0000.0001) %MON dynstat_theta_min            =  -3.0050441312612E+00
(PID.TID 0000.0001) %MON dynstat_theta_mean           =   3.9091381178497E+00
(PID.TID 0000.0001) %MON dynstat_theta_sd             =   4.5714141313811E+00
(PID.TID 0000.0001) %MON dynstat_theta_del2           =   2.6446398692577E-03
(PID.TID 0000.0001) %MON dynstat_salt_max             =   4.1354989476996E+01
(PID.TID 0000.0001) %MON dynstat_salt_min             =   1.8518752517335E+01
(PID.TID 0000.0001) %MON dynstat_salt_mean            =   3.4772002994976E+01
(PID.TID 0000.0001) %MON dynstat_salt_sd              =   5.3159559208899E-01
(PID.TID 0000.0001) %MON dynstat_salt_del2            =   9.6871326006697E-04
(PID.TID 0000.0001) %MON dynstat_sst_max              =   3.0924615761193E+01
(PID.TID 0000.0001) %MON dynstat_sst_min              =  -1.8977303190184E+00
(PID.TID 0000.0001) %MON dynstat_sst_mean             =   1.8108717256915E+01
(PID.TID 0000.0001) %MON dynstat_sst_sd               =   9.8098953943842E+00
(PID.TID 0000.0001) %MON dynstat_sst_del2             =   1.5083725793351E-02
(PID.TID 0000.0001) %MON dynstat_sss_max              =   4.1354989476996E+01
(PID.TID 0000.0001) %MON dynstat_sss_min              =   1.8751438893277E+01
(PID.TID 0000.0001) %MON dynstat_sss_mean             =   3.4627979214402E+01
(PID.TID 0000.0001) %MON dynstat_sss_sd               =   1.4734494279425E+00
(PID.TID 0000.0001) %MON dynstat_sss_del2             =   1.0515428540030E-02
(PID.TID 0000.0001) %MON forcing_qnet_max             =   2.5455412947190E+03
(PID.TID 0000.0001) %MON forcing_qnet_min             =  -1.5990728236664E+03
(PID.TID 0000.0001) %MON forcing_qnet_mean            =   1.5279654990732E+01
(PID.TID 0000.0001) %MON forcing_qnet_sd              =   2.2666133473100E+02
(PID.TID 0000.0001) %MON forcing_qnet_del2            =   5.0574352264279E+00
(PID.TID 0000.0001) %MON forcing_qsw_max              =   0.0000000000000E+00
(PID.TID 0000.0001) %MON forcing_qsw_min              =  -1.0643763619054E+02
(PID.TID 0000.0001) %MON forcing_qsw_mean             =  -1.3743794394228E+01
(PID.TID 0000.0001) %MON forcing_qsw_sd               =   2.4729174009965E+01
(PID.TID 0000.0001) %MON forcing_qsw_del2             =   2.0890062917528E-01
(PID.TID 0000.0001) %MON forcing_empmr_max            =   7.5614410452545E-03
(PID.TID 0000.0001) %MON forcing_empmr_min            =  -1.0868855565786E-01
(PID.TID 0000.0001) %MON forcing_empmr_mean           =  -3.2768072156017E-04
(PID.TID 0000.0001) %MON forcing_empmr_sd             =   4.8050403657989E-03
(PID.TID 0000.0001) %MON forcing_empmr_del2           =   1.8974171562908E-04
(PID.TID 0000.0001) %MON forcing_fu_max               =   3.6830391948170E-01
(PID.TID 0000.0001) %MON forcing_fu_min               =  -3.6825691393222E-01
(PID.TID 0000.0001) %MON forcing_fu_mean              =  -3.9480917917453E-03
(PID.TID 0000.0001) %MON forcing_fu_sd                =   6.3859084147716E-02
(PID.TID 0000.0001) %MON forcing_fu_del2              =   6.2218813754735E-04
(PID.TID 0000.0001) %MON forcing_fv_max               =   3.3685553027989E-01
(PID.TID 0000.0001) %MON forcing_fv_min               =  -2.8313894498073E-01
(PID.TID 0000.0001) %MON forcing_fv_mean              =  -1.2837077809049E-02
(PID.TID 0000.0001) %MON forcing_fv_sd                =   6.5653201185087E-02
(PID.TID 0000.0001) %MON forcing_fv_del2              =   5.6366660477856E-04
(PID.TID 0000.0001) %MON trAdv_CFL_u_max              =   3.2261979342236E-03
(PID.TID 0000.0001) %MON trAdv_CFL_v_max              =   4.5322586594290E-03
(PID.TID 0000.0001) %MON trAdv_CFL_w_max              =   1.9187650575460E-03
(PID.TID 0000.0001) %MON advcfl_uvel_max              =   3.1780885302160E-03
(PID.TID 0000.0001) %MON advcfl_vvel_max              =   3.3151358376367E-03
(PID.TID 0000.0001) %MON advcfl_wvel_max              =   3.7804715011431E-03
(PID.TID 0000.0001) %MON advcfl_W_hf_max              =   2.7410929393514E-03
(PID.TID 0000.0001) %MON pe_b_mean                    =   5.0957359423678E-04
(PID.TID 0000.0001) %MON ke_max                       =   4.7115722169696E-01
(PID.TID 0000.0001) %MON ke_mean                      =   1.6713208397805E-04
(PID.TID 0000.0001) %MON ke_vol                       =   1.3398108752744E+18
(PID.TID 0000.0001) %MON vort_r_min                   =  -4.4568805677613E-06
(PID.TID 0000.0001) %MON vort_r_max                   =   3.6513225199657E-06
(PID.TID 0000.0001) %MON vort_a_mean                  =  -2.0549865324846E-05
(PID.TID 0000.0001) %MON vort_a_sd                    =   7.5259524810364E-05
(PID.TID 0000.0001) %MON vort_p_mean                  =  -2.4783315795115E-05
(PID.TID 0000.0001) %MON vort_p_sd                    =   1.2811910109111E-04
(PID.TID 0000.0001) %MON surfExpan_theta_mean         =  -6.4444205656600E-06
(PID.TID 0000.0001) %MON surfExpan_salt_mean          =   9.1768173722716E-07
(PID.TID 0000.0001) // =======================================================
(PID.TID 0000.0001) // End MONITOR dynamic field statistics
(PID.TID 0000.0001) // =======================================================
 cg2d: Sum(rhs),rhsMax =  -3.57661877086801E+01  5.70944998782582E+01
(PID.TID 0000.0001)      cg2d_init_res =   2.64023013620561E-01
(PID.TID 0000.0001)      cg2d_iters(min,last) =      -1      10
(PID.TID 0000.0001)      cg2d_last_res =   8.54380042734017E-08
(PID.TID 0000.0001) // =======================================================
(PID.TID 0000.0001) // Begin MONITOR dynamic field statistics
(PID.TID 0000.0001) // =======================================================
(PID.TID 0000.0001) %MON time_tsnumber                =                 72039
(PID.TID 0000.0001) %MON time_secondsf                =   6.4835100000000E+07
(PID.TID 0000.0001) %MON dynstat_eta_max              =   2.5465167149528E+00
(PID.TID 0000.0001) %MON dynstat_eta_min              =  -1.6084945816822E+00
(PID.TID 0000.0001) %MON dynstat_eta_mean             =   2.3728380493134E-02
(PID.TID 0000.0001) %MON dynstat_eta_sd               =   6.1784932790200E-01
(PID.TID 0000.0001) %MON dynstat_eta_del2             =   2.0310808909480E-03
(PID.TID 0000.0001) %MON dynstat_uvel_max             =   3.5012057394610E-01
(PID.TID 0000.0001) %MON dynstat_uvel_min             =  -9.3663918286065E-01
(PID.TID 0000.0001) %MON dynstat_uvel_mean            =  -4.1152737640767E-04
(PID.TID 0000.0001) %MON dynstat_uvel_sd              =   1.3026128750669E-02
(PID.TID 0000.0001) %MON dynstat_uvel_del2            =   8.6711745053499E-05
(PID.TID 0000.0001) %MON dynstat_vvel_max             =   1.0735377543289E+00
(PID.TID 0000.0001) %MON dynstat_vvel_min             =  -9.3542254867285E-01
(PID.TID 0000.0001) %MON dynstat_vvel_mean            =  -2.6397014013326E-04
(PID.TID 0000.0001) %MON dynstat_vvel_sd              =   1.3807261312737E-02
(PID.TID 0000.0001) %MON dynstat_vvel_del2            =   1.2036589191345E-04
(PID.TID 0000.0001) %MON dynstat_wvel_max             =   2.1159066574137E-04
(PID.TID 0000.0001) %MON dynstat_wvel_min             =  -1.9667013804325E-04
(PID.TID 0000.0001) %MON dynstat_wvel_mean            =  -1.2241670679595E-08
(PID.TID 0000.0001) %MON dynstat_wvel_sd              =   8.1715040398131E-06
(PID.TID 0000.0001) %MON dynstat_wvel_del2            =   7.4400370997200E-08
(PID.TID 0000.0001) %MON dynstat_theta_max            =   3.0924814983493E+01
(PID.TID 0000.0001) %MON dynstat_theta_min            =  -3.0048944173330E+00
(PID.TID 0000.0001) %MON dynstat_theta_mean           =   3.9091388974784E+00
(PID.TID 0000.0001) %MON dynstat_theta_sd             =   4.5714179324603E+00
(PID.TID 0000.0001) %MON dynstat_theta_del2           =   2.6443780035279E-03
(PID.TID 0000.0001) %MON dynstat_salt_max             =   4.1354664225915E+01
(PID.TID 0000.0001) %MON dynstat_salt_min             =   1.8518763038744E+01
(PID.TID 0000.0001) %MON dynstat_salt_mean            =   3.4771999696307E+01
(PID.TID 0000.0001) %MON dynstat_salt_sd              =   5.3161421860089E-01
(PID.TID 0000.0001) %MON dynstat_salt_del2            =   9.7375698509870E-04
(PID.TID 0000.0001) %MON dynstat_sst_max              =   3.0924814983493E+01
(PID.TID 0000.0001) %MON dynstat_sst_min              =  -1.8976109818294E+00
(PID.TID 0000.0001) %MON dynstat_sst_mean             =   1.8108701647483E+01
(PID.TID 0000.0001) %MON dynstat_sst_sd               =   9.8099529416571E+00
(PID.TID 0000.0001) %MON dynstat_sst_del2             =   1.5077088825921E-02
(PID.TID 0000.0001) %MON dynstat_sss_max              =   4.1354664225915E+01
(PID.TID 0000.0001) %MON dynstat_sss_min              =   1.8751448776428E+01
(PID.TID 0000.0001) %MON dynstat_sss_mean             =   3.4627746530887E+01
(PID.TID 0000.0001) %MON dynstat_sss_sd               =   1.4739172740344E+00
(PID.TID 0000.0001) %MON dynstat_sss_del2             =   1.0588703703466E-02
(PID.TID 0000.0001) %MON forcing_qnet_max             =   2.5116373350606E+03
(PID.TID 0000.0001) %MON forcing_qnet_min             =  -1.5780054219493E+03
(PID.TID 0000.0001) %MON forcing_qnet_mean            =   1.6839909690559E+01
(PID.TID 0000.0001) %MON forcing_qnet_sd              =   2.2164335441679E+02
(PID.TID 0000.0001) %MON forcing_qnet_del2            =   4.9709485681651E+00
(PID.TID 0000.0001) %MON forcing_qsw_max              =   0.0000000000000E+00
(PID.TID 0000.0001) %MON forcing_qsw_min              =  -1.0624565444653E+02
(PID.TID 0000.0001) %MON forcing_qsw_mean             =  -1.3570247172796E+01
(PID.TID 0000.0001) %MON forcing_qsw_sd               =   2.4766077822002E+01
(PID.TID 0000.0001) %MON forcing_qsw_del2             =   2.0584706470273E-01
(PID.TID 0000.0001) %MON forcing_empmr_max            =   7.4835051782429E-03
(PID.TID 0000.0001) %MON forcing_empmr_min            =  -1.0756836831570E-01
(PID.TID 0000.0001) %MON forcing_empmr_mean           =  -3.1870437726814E-04
(PID.TID 0000.0001) %MON forcing_empmr_sd             =   4.7375543106704E-03
(PID.TID 0000.0001) %MON forcing_empmr_del2           =   1.8708931628460E-04
(PID.TID 0000.0001) %MON forcing_fu_max               =   3.6592823802508E-01
(PID.TID 0000.0001) %MON forcing_fu_min               =  -3.6558439543922E-01
(PID.TID 0000.0001) %MON forcing_fu_mean              =  -3.9496197862622E-03
(PID.TID 0000.0001) %MON forcing_fu_sd                =   6.3484350369496E-02
(PID.TID 0000.0001) %MON forcing_fu_del2              =   6.1960347464431E-04
(PID.TID 0000.0001) %MON forcing_fv_max               =   3.2596863840249E-01
(PID.TID 0000.0001) %MON forcing_fv_min               =  -2.8463588281418E-01
(PID.TID 0000.0001) %MON forcing_fv_mean              =  -1.3082643902978E-02
(PID.TID 0000.0001) %MON forcing_fv_sd                =   6.5462734478242E-02
(PID.TID 0000.0001) %MON forcing_fv_del2              =   5.6207770230781E-04
(PID.TID 0000.0001) %MON trAdv_CFL_u_max              =   3.1816023411545E-03
(PID.TID 0000.0001) %MON trAdv_CFL_v_max              =   4.2105563081192E-03
(PID.TID 0000.0001) %MON trAdv_CFL_w_max              =   1.9322199161831E-03
(PID.TID 0000.0001) %MON advcfl_uvel_max              =   3.1234730941371E-03
(PID.TID 0000.0001) %MON advcfl_vvel_max              =   3.2171451024618E-03
(PID.TID 0000.0001) %MON advcfl_wvel_max              =   3.7415084631547E-03
(PID.TID 0000.0001) %MON advcfl_W_hf_max              =   2.7206230047422E-03
(PID.TID 0000.0001) %MON pe_b_mean                    =   5.0929210680235E-04
(PID.TID 0000.0001) %MON ke_max                       =   4.2434272046017E-01
(PID.TID 0000.0001) %MON ke_mean                      =   1.6650804059225E-04
(PID.TID 0000.0001) %MON ke_vol                       =   1.3398109789602E+18
(PID.TID 0000.0001) %MON vort_r_min                   =  -4.1223476382289E-06
(PID.TID 0000.0001) %MON vort_r_max                   =   3.8712395333282E-06
(PID.TID 0000.0001) %MON vort_a_mean                  =  -2.0549865324846E-05
(PID.TID 0000.0001) %MON vort_a_sd                    =   7.5259533213579E-05
(PID.TID 0000.0001) %MON vort_p_mean                  =  -2.4783314135746E-05
(PID.TID 0000.0001) %MON vort_p_sd                    =   1.2811911344437E-04
(PID.TID 0000.0001) %MON surfExpan_theta_mean         =  -6.3500588957065E-06
(PID.TID 0000.0001) %MON surfExpan_salt_mean          =   9.0844919449671E-07
(PID.TID 0000.0001) // =======================================================
(PID.TID 0000.0001) // End MONITOR dynamic field statistics
(PID.TID 0000.0001) // =======================================================
 Computing Diagnostic #     81  oceTAUX      Counter:       1   Parms: UU      U1      
           Vector  Mate for  oceTAUX      Diagnostic #     82  oceTAUY  exists 
 Computing Diagnostic #     82  oceTAUY      Counter:       1   Parms: VV      U1      
           Vector  Mate for  oceTAUY      Diagnostic #     81  oceTAUX  exists 
 Computing Diagnostic #     85  oceFWflx     Counter:       1   Parms: SM      U1      
 Computing Diagnostic #     86  oceSflux     Counter:       1   Parms: SM      U1      
 Computing Diagnostic #     87  oceQnet      Counter:       1   Parms: SM      U1      
 Computing Diagnostic #     88  oceQsw       Counter:       1   Parms: SM      U1      
 Computing Diagnostic #     27  SALT         Counter:       1   Parms: SMR     MR      
 Computing Diagnostic #     26  THETA        Counter:       1   Parms: SMR     MR      
 Computing Diagnostic #     45  UVELMASS     Counter:       1   Parms: UUr     MR      
           Vector  Mate for  UVELMASS     Diagnostic #     46  VVELMASS exists 
 Computing Diagnostic #     46  VVELMASS     Counter:       1   Parms: VVr     MR      
           Vector  Mate for  VVELMASS     Diagnostic #     45  UVELMASS exists 
 Computing Diagnostic #     83  atmPload     Counter:       1   Parms: SM      U1      
 cg2d: Sum(rhs),rhsMax =  -3.47006726051941E+01  5.95293692799839E+01
(PID.TID 0000.0001)      cg2d_init_res =   2.44087520514647E-01
(PID.TID 0000.0001)      cg2d_iters(min,last) =      -1      10
(PID.TID 0000.0001)      cg2d_last_res =   6.76320133801867E-08
(PID.TID 0000.0001) // =======================================================
(PID.TID 0000.0001) // Begin MONITOR dynamic field statistics
(PID.TID 0000.0001) // =======================================================
(PID.TID 0000.0001) %MON time_tsnumber                =                 72040
(PID.TID 0000.0001) %MON time_secondsf                =   6.4836000000000E+07
(PID.TID 0000.0001) %MON dynstat_eta_max              =   2.6544314765561E+00
(PID.TID 0000.0001) %MON dynstat_eta_min              =  -1.6086820427846E+00
(PID.TID 0000.0001) %MON dynstat_eta_mean             =   2.4003266514442E-02
(PID.TID 0000.0001) %MON dynstat_eta_sd               =   6.1772410774524E-01
(PID.TID 0000.0001) %MON dynstat_eta_del2             =   2.0656206631250E-03
(PID.TID 0000.0001) %MON dynstat_uvel_max             =   3.5632661071817E-01
(PID.TID 0000.0001) %MON dynstat_uvel_min             =  -9.0335142258737E-01
(PID.TID 0000.0001) %MON dynstat_uvel_mean            =  -4.3773763484689E-04
(PID.TID 0000.0001) %MON dynstat_uvel_sd              =   1.3014542572128E-02
(PID.TID 0000.0001) %MON dynstat_uvel_del2            =   8.6672029051393E-05
(PID.TID 0000.0001) %MON dynstat_vvel_max             =   1.0291739179268E+00
(PID.TID 0000.0001) %MON dynstat_vvel_min             =  -8.4740472085200E-01
(PID.TID 0000.0001) %MON dynstat_vvel_mean            =  -2.2275423721521E-04
(PID.TID 0000.0001) %MON dynstat_vvel_sd              =   1.3763325332119E-02
(PID.TID 0000.0001) %MON dynstat_vvel_del2            =   1.1717551278167E-04
(PID.TID 0000.0001) %MON dynstat_wvel_max             =   2.0859030857045E-04
(PID.TID 0000.0001) %MON dynstat_wvel_min             =  -1.9855590838608E-04
(PID.TID 0000.0001) %MON dynstat_wvel_mean            =  -1.8877336321221E-08
(PID.TID 0000.0001) %MON dynstat_wvel_sd              =   8.1123022066734E-06
(PID.TID 0000.0001) %MON dynstat_wvel_del2            =   7.4408364527497E-08
(PID.TID 0000.0001) %MON dynstat_theta_max            =   3.0925011448941E+01
(PID.TID 0000.0001) %MON dynstat_theta_min            =  -3.0047471257194E+00
(PID.TID 0000.0001) %MON dynstat_theta_mean           =   3.9091395185466E+00
(PID.TID 0000.0001) %MON dynstat_theta_sd             =   4.5714211684284E+00
(PID.TID 0000.0001) %MON dynstat_theta_del2           =   2.6442240217690E-03
(PID.TID 0000.0001) %MON dynstat_salt_max             =   4.1354332591407E+01
(PID.TID 0000.0001) %MON dynstat_salt_min             =   1.8518773567560E+01
(PID.TID 0000.0001) %MON dynstat_salt_mean            =   3.4771996446549E+01
(PID.TID 0000.0001) %MON dynstat_salt_sd              =   5.3163268831273E-01
(PID.TID 0000.0001) %MON dynstat_salt_del2            =   9.7873847370620E-04
(PID.TID 0000.0001) %MON dynstat_sst_max              =   3.0925011448941E+01
(PID.TID 0000.0001) %MON dynstat_sst_min              =  -1.8974972891019E+00
(PID.TID 0000.0001) %MON dynstat_sst_mean             =   1.8108655590888E+01
(PID.TID 0000.0001) %MON dynstat_sst_sd               =   9.8100477866877E+00
(PID.TID 0000.0001) %MON dynstat_sst_del2             =   1.5073768365158E-02
(PID.TID 0000.0001) %MON dynstat_sss_max              =   4.1354332591407E+01
(PID.TID 0000.0001) %MON dynstat_sss_min              =   1.8751460347130E+01
(PID.TID 0000.0001) %MON dynstat_sss_mean             =   3.4627517104273E+01
(PID.TID 0000.0001) %MON dynstat_sss_sd               =   1.4743810704210E+00
(PID.TID 0000.0001) %MON dynstat_sss_del2             =   1.0660946847220E-02
(PID.TID 0000.0001) %MON forcing_qnet_max             =   2.4781827113312E+03
(PID.TID 0000.0001) %MON forcing_qnet_min             =  -1.5558281378242E+03
(PID.TID 0000.0001) %MON forcing_qnet_mean            =   1.9275767210374E+01
(PID.TID 0000.0001) %MON forcing_qnet_sd              =   2.2043264764109E+02
(PID.TID 0000.0001) %MON forcing_qnet_del2            =   5.0178360166025E+00
(PID.TID 0000.0001) %MON forcing_qsw_max              =   0.0000000000000E+00
(PID.TID 0000.0001) %MON forcing_qsw_min              =  -1.0561519371354E+02
(PID.TID 0000.0001) %MON forcing_qsw_mean             =  -1.3372630223097E+01
(PID.TID 0000.0001) %MON forcing_qsw_sd               =   2.4750398355886E+01
(PID.TID 0000.0001) %MON forcing_qsw_del2             =   2.0264257471930E-01
(PID.TID 0000.0001) %MON forcing_empmr_max            =   7.4063567444682E-03
(PID.TID 0000.0001) %MON forcing_empmr_min            =  -1.0645993798971E-01
(PID.TID 0000.0001) %MON forcing_empmr_mean           =  -3.1611892450408E-04
(PID.TID 0000.0001) %MON forcing_empmr_sd             =   4.6885964313111E-03
(PID.TID 0000.0001) %MON forcing_empmr_del2           =   1.8514684994930E-04
(PID.TID 0000.0001) %MON forcing_fu_max               =   3.6484177486689E-01
(PID.TID 0000.0001) %MON forcing_fu_min               =  -3.6411767826054E-01
(PID.TID 0000.0001) %MON forcing_fu_mean              =  -3.9534845869424E-03
(PID.TID 0000.0001) %MON forcing_fu_sd                =   6.3189765957730E-02
(PID.TID 0000.0001) %MON forcing_fu_del2              =   6.1778925759535E-04
(PID.TID 0000.0001) %MON forcing_fv_max               =   3.3133827453928E-01
(PID.TID 0000.0001) %MON forcing_fv_min               =  -2.8533586749787E-01
(PID.TID 0000.0001) %MON forcing_fv_mean              =  -1.3293780440260E-02
(PID.TID 0000.0001) %MON forcing_fv_sd                =   6.5364127853153E-02
(PID.TID 0000.0001) %MON forcing_fv_del2              =   5.6137092906204E-04
(PID.TID 0000.0001) %MON trAdv_CFL_u_max              =   3.0785900682255E-03
(PID.TID 0000.0001) %MON trAdv_CFL_v_max              =   3.8474006207857E-03
(PID.TID 0000.0001) %MON trAdv_CFL_w_max              =   2.0025773491912E-03
(PID.TID 0000.0001) %MON advcfl_uvel_max              =   3.0124661818914E-03
(PID.TID 0000.0001) %MON advcfl_vvel_max              =   3.0841969146295E-03
(PID.TID 0000.0001) %MON advcfl_wvel_max              =   3.7029543648595E-03
(PID.TID 0000.0001) %MON advcfl_W_hf_max              =   2.6820211686976E-03
(PID.TID 0000.0001) %MON pe_b_mean                    =   5.0910343506587E-04
(PID.TID 0000.0001) %MON ke_max                       =   3.6873777122628E-01
(PID.TID 0000.0001) %MON ke_mean                      =   1.6580829188779E-04
(PID.TID 0000.0001) %MON ke_vol                       =   1.3398110798057E+18
(PID.TID 0000.0001) %MON vort_r_min                   =  -3.7582894525641E-06
(PID.TID 0000.0001) %MON vort_r_max                   =   4.0105066192859E-06
(PID.TID 0000.0001) %MON vort_a_mean                  =  -2.0549865324846E-05
(PID.TID 0000.0001) %MON vort_a_sd                    =   7.5259542599454E-05
(PID.TID 0000.0001) %MON vort_p_mean                  =  -2.4783312522757E-05
(PID.TID 0000.0001) %MON vort_p_sd                    =   1.2811912235208E-04
(PID.TID 0000.0001) %MON surfExpan_theta_mean         =  -6.2874179408866E-06
(PID.TID 0000.0001) %MON surfExpan_salt_mean          =   9.1181109774807E-07
(PID.TID 0000.0001) // =======================================================
(PID.TID 0000.0001) // End MONITOR dynamic field statistics
(PID.TID 0000.0001) // =======================================================
 cg2d: Sum(rhs),rhsMax =  -3.38404689407477E+01  6.17350460834105E+01
(PID.TID 0000.0001)      cg2d_init_res =   2.25679154922827E-01
(PID.TID 0000.0001)      cg2d_iters(min,last) =      -1      10
(PID.TID 0000.0001)      cg2d_last_res =   4.81289746599653E-08
(PID.TID 0000.0001) // =======================================================
(PID.TID 0000.0001) // Begin MONITOR dynamic field statistics
(PID.TID 0000.0001) // =======================================================
(PID.TID 0000.0001) %MON time_tsnumber                =                 72041
(PID.TID 0000.0001) %MON time_secondsf                =   6.4836900000000E+07
(PID.TID 0000.0001) %MON dynstat_eta_max              =   2.7521617417150E+00
(PID.TID 0000.0001) %MON dynstat_eta_min              =  -1.6087383628565E+00
(PID.TID 0000.0001) %MON dynstat_eta_mean             =   2.4275563649778E-02
(PID.TID 0000.0001) %MON dynstat_eta_sd               =   6.1764413685463E-01
(PID.TID 0000.0001) %MON dynstat_eta_del2             =   2.1203431929626E-03
(PID.TID 0000.0001) %MON dynstat_uvel_max             =   3.6088896997976E-01
(PID.TID 0000.0001) %MON dynstat_uvel_min             =  -8.5451973769923E-01
(PID.TID 0000.0001) %MON dynstat_uvel_mean            =  -4.6088285564533E-04
(PID.TID 0000.0001) %MON dynstat_uvel_sd              =   1.2993165736355E-02
(PID.TID 0000.0001) %MON dynstat_uvel_del2            =   8.6622308379161E-05
(PID.TID 0000.0001) %MON dynstat_vvel_max             =   9.7448618788746E-01
(PID.TID 0000.0001) %MON dynstat_vvel_min             =  -7.4948886041936E-01
(PID.TID 0000.0001) %MON dynstat_vvel_mean            =  -1.7834106421836E-04
(PID.TID 0000.0001) %MON dynstat_vvel_sd              =   1.3724975496110E-02
(PID.TID 0000.0001) %MON dynstat_vvel_del2            =   1.1357947544805E-04
(PID.TID 0000.0001) %MON dynstat_wvel_max             =   2.0440732004137E-04
(PID.TID 0000.0001) %MON dynstat_wvel_min             =  -2.0421676300614E-04
(PID.TID 0000.0001) %MON dynstat_wvel_mean            =  -2.9255697958462E-08
(PID.TID 0000.0001) %MON dynstat_wvel_sd              =   8.0566126824513E-06
(PID.TID 0000.0001) %MON dynstat_wvel_del2            =   7.4441990921825E-08
(PID.TID 0000.0001) %MON dynstat_theta_max            =   3.0925186544326E+01
(PID.TID 0000.0001) %MON dynstat_theta_min            =  -3.0046072320019E+00
(PID.TID 0000.0001) %MON dynstat_theta_mean           =   3.9091400572532E+00
(PID.TID 0000.0001) %MON dynstat_theta_sd             =   4.5714238126668E+00
(PID.TID 0000.0001) %MON dynstat_theta_del2           =   2.6441235739324E-03
(PID.TID 0000.0001) %MON dynstat_salt_max             =   4.1353994645100E+01
(PID.TID 0000.0001) %MON dynstat_salt_min             =   1.8518784096853E+01
(PID.TID 0000.0001) %MON dynstat_salt_mean            =   3.4771993265449E+01
(PID.TID 0000.0001) %MON dynstat_salt_sd              =   5.3165100397439E-01
(PID.TID 0000.0001) %MON dynstat_salt_del2            =   9.8366484115994E-04
(PID.TID 0000.0001) %MON dynstat_sst_max              =   3.0925186544326E+01
(PID.TID 0000.0001) %MON dynstat_sst_min              =  -1.8973909985338E+00
(PID.TID 0000.0001) %MON dynstat_sst_mean             =   1.8108602568024E+01
(PID.TID 0000.0001) %MON dynstat_sst_sd               =   9.8101378166342E+00
(PID.TID 0000.0001) %MON dynstat_sst_del2             =   1.5071617153962E-02
(PID.TID 0000.0001) %MON dynstat_sss_max              =   4.1353994645100E+01
(PID.TID 0000.0001) %MON dynstat_sss_min              =   1.8751473752604E+01
(PID.TID 0000.0001) %MON dynstat_sss_mean             =   3.4627293397267E+01
(PID.TID 0000.0001) %MON dynstat_sss_sd               =   1.4748415673874E+00
(PID.TID 0000.0001) %MON dynstat_sss_del2             =   1.0732221322455E-02
(PID.TID 0000.0001) %MON forcing_qnet_max             =   2.4481283452683E+03
(PID.TID 0000.0001) %MON forcing_qnet_min             =  -1.5348956027463E+03
(PID.TID 0000.0001) %MON forcing_qnet_mean            =   2.0370033498553E+01
(PID.TID 0000.0001) %MON forcing_qnet_sd              =   2.1548516433870E+02
(PID.TID 0000.0001) %MON forcing_qnet_del2            =   4.7477119420273E+00
(PID.TID 0000.0001) %MON forcing_qsw_max              =   0.0000000000000E+00
(PID.TID 0000.0001) %MON forcing_qsw_min              =  -1.0626714878330E+02
(PID.TID 0000.0001) %MON forcing_qsw_mean             =  -1.3075818737547E+01
(PID.TID 0000.0001) %MON forcing_qsw_sd               =   2.4730610476789E+01
(PID.TID 0000.0001) %MON forcing_qsw_del2             =   1.9772857318714E-01
(PID.TID 0000.0001) %MON forcing_empmr_max            =   7.3299957439303E-03
(PID.TID 0000.0001) %MON forcing_empmr_min            =  -1.0536324977875E-01
(PID.TID 0000.0001) %MON forcing_empmr_mean           =  -3.1314170563634E-04
(PID.TID 0000.0001) %MON forcing_empmr_sd             =   4.6402518721344E-03
(PID.TID 0000.0001) %MON forcing_empmr_del2           =   1.8322542991757E-04
(PID.TID 0000.0001) %MON forcing_fu_max               =   3.6272332350794E-01
(PID.TID 0000.0001) %MON forcing_fu_min               =  -3.6321631010139E-01
(PID.TID 0000.0001) %MON forcing_fu_mean              =  -3.9141882355295E-03
(PID.TID 0000.0001) %MON forcing_fu_sd                =   6.3003337413257E-02
(PID.TID 0000.0001) %MON forcing_fu_del2              =   6.1736893885458E-04
(PID.TID 0000.0001) %MON forcing_fv_max               =   3.3344892419500E-01
(PID.TID 0000.0001) %MON forcing_fv_min               =  -2.8563122781146E-01
(PID.TID 0000.0001) %MON forcing_fv_mean              =  -1.3470629248976E-02
(PID.TID 0000.0001) %MON forcing_fv_sd                =   6.5254210165776E-02
(PID.TID 0000.0001) %MON forcing_fv_del2              =   5.5987686972419E-04
(PID.TID 0000.0001) %MON trAdv_CFL_u_max              =   2.9211508289917E-03
(PID.TID 0000.0001) %MON trAdv_CFL_v_max              =   3.4495572868952E-03
(PID.TID 0000.0001) %MON trAdv_CFL_w_max              =   2.0568093590211E-03
(PID.TID 0000.0001) %MON advcfl_uvel_max              =   2.8496239084947E-03
(PID.TID 0000.0001) %MON advcfl_vvel_max              =   2.9203103981551E-03
(PID.TID 0000.0001) %MON advcfl_wvel_max              =   3.6648086879564E-03
(PID.TID 0000.0001) %MON advcfl_W_hf_max              =   2.6282159993334E-03
(PID.TID 0000.0001) %MON pe_b_mean                    =   5.0898929975480E-04
(PID.TID 0000.0001) %MON ke_max                       =   3.1395536605896E-01
(PID.TID 0000.0001) %MON ke_mean                      =   1.6506503881257E-04
(PID.TID 0000.0001) %MON ke_vol                       =   1.3398111798331E+18
(PID.TID 0000.0001) %MON vort_r_min                   =  -3.3688040396264E-06
(PID.TID 0000.0001) %MON vort_r_max                   =   4.0540259193317E-06
(PID.TID 0000.0001) %MON vort_a_mean                  =  -2.0549865324846E-05
(PID.TID 0000.0001) %MON vort_a_sd                    =   7.5259552831821E-05
(PID.TID 0000.0001) %MON vort_p_mean                  =  -2.4783310919396E-05
(PID.TID 0000.0001) %MON vort_p_sd                    =   1.2811912635054E-04
(PID.TID 0000.0001) %MON surfExpan_theta_mean         =  -6.2193504843712E-06
(PID.TID 0000.0001) %MON surfExpan_salt_mean          =   9.2055730468201E-07
(PID.TID 0000.0001) // =======================================================
(PID.TID 0000.0001) // End MONITOR dynamic field statistics
(PID.TID 0000.0001) // =======================================================
 cg2d: Sum(rhs),rhsMax =  -3.31708954583395E+01  6.36823621515622E+01
(PID.TID 0000.0001)      cg2d_init_res =   2.08639425105916E-01
(PID.TID 0000.0001)      cg2d_iters(min,last) =      -1      10
(PID.TID 0000.0001)      cg2d_last_res =   4.52536593264603E-08
(PID.TID 0000.0001) // =======================================================
(PID.TID 0000.0001) // Begin MONITOR dynamic field statistics
(PID.TID 0000.0001) // =======================================================
(PID.TID 0000.0001) %MON time_tsnumber                =                 72042
(PID.TID 0000.0001) %MON time_secondsf                =   6.4837800000000E+07
(PID.TID 0000.0001) %MON dynstat_eta_max              =   2.8384161981054E+00
(PID.TID 0000.0001) %MON dynstat_eta_min              =  -1.6086136383448E+00
(PID.TID 0000.0001) %MON dynstat_eta_mean             =   2.4545819315767E-02
(PID.TID 0000.0001) %MON dynstat_eta_sd               =   6.1759638032647E-01
(PID.TID 0000.0001) %MON dynstat_eta_del2             =   2.1874192049220E-03
(PID.TID 0000.0001) %MON dynstat_uvel_max             =   3.6375232982773E-01
(PID.TID 0000.0001) %MON dynstat_uvel_min             =  -8.0358324223575E-01
(PID.TID 0000.0001) %MON dynstat_uvel_mean            =  -4.8084423036465E-04
(PID.TID 0000.0001) %MON dynstat_uvel_sd              =   1.2963156045415E-02
(PID.TID 0000.0001) %MON dynstat_uvel_del2            =   8.6604074617627E-05
(PID.TID 0000.0001) %MON dynstat_vvel_max             =   9.1086849213272E-01
(PID.TID 0000.0001) %MON dynstat_vvel_min             =  -6.4359036348552E-01
(PID.TID 0000.0001) %MON dynstat_vvel_mean            =  -1.3133687341787E-04
(PID.TID 0000.0001) %MON dynstat_vvel_sd              =   1.3693781393443E-02
(PID.TID 0000.0001) %MON dynstat_vvel_del2            =   1.0967980464358E-04
(PID.TID 0000.0001) %MON dynstat_wvel_max             =   1.9930699055844E-04
(PID.TID 0000.0001) %MON dynstat_wvel_min             =  -2.0873703325028E-04
(PID.TID 0000.0001) %MON dynstat_wvel_mean            =  -4.3792104352657E-08
(PID.TID 0000.0001) %MON dynstat_wvel_sd              =   8.0064295358984E-06
(PID.TID 0000.0001) %MON dynstat_wvel_del2            =   7.4515128519251E-08
(PID.TID 0000.0001) %MON dynstat_theta_max            =   3.0925355950936E+01
(PID.TID 0000.0001) %MON dynstat_theta_min            =  -3.0044799650410E+00
(PID.TID 0000.0001) %MON dynstat_theta_mean           =   3.9091405909263E+00
(PID.TID 0000.0001) %MON dynstat_theta_sd             =   4.5714261033894E+00
(PID.TID 0000.0001) %MON dynstat_theta_del2           =   2.6439678436516E-03
(PID.TID 0000.0001) %MON dynstat_salt_max             =   4.1353650831919E+01
(PID.TID 0000.0001) %MON dynstat_salt_min             =   1.8518794619968E+01
(PID.TID 0000.0001) %MON dynstat_salt_mean            =   3.4771990160938E+01
(PID.TID 0000.0001) %MON dynstat_salt_sd              =   5.3166910765661E-01
(PID.TID 0000.0001) %MON dynstat_salt_del2            =   9.8852014558432E-04
(PID.TID 0000.0001) %MON dynstat_sst_max              =   3.0925355950936E+01
(PID.TID 0000.0001) %MON dynstat_sst_min              =  -1.8972926960621E+00
(PID.TID 0000.0001) %MON dynstat_sst_mean             =   1.8108547938706E+01
(PID.TID 0000.0001) %MON dynstat_sst_sd               =   9.8102188881577E+00
(PID.TID 0000.0001) %MON dynstat_sst_del2             =   1.5068293142016E-02
(PID.TID 0000.0001) %MON dynstat_sss_max              =   4.1353650831919E+01
(PID.TID 0000.0001) %MON dynstat_sss_min              =   1.8751489285921E+01
(PID.TID 0000.0001) %MON dynstat_sss_mean             =   3.4627075302875E+01
(PID.TID 0000.0001) %MON dynstat_sss_sd               =   1.4752961954337E+00
(PID.TID 0000.0001) %MON dynstat_sss_del2             =   1.0802388709302E-02
(PID.TID 0000.0001) %MON forcing_qnet_max             =   2.4167386832271E+03
(PID.TID 0000.0001) %MON forcing_qnet_min             =  -1.0642572265625E+04
(PID.TID 0000.0001) %MON forcing_qnet_mean            =   2.0294103200834E+01
(PID.TID 0000.0001) %MON forcing_qnet_sd              =   2.5620683953734E+02
(PID.TID 0000.0001) %MON forcing_qnet_del2            =   8.8119804055753E+00
(PID.TID 0000.0001) %MON forcing_qsw_max              =   0.0000000000000E+00
(PID.TID 0000.0001) %MON forcing_qsw_min              =  -1.0597576156315E+02
(PID.TID 0000.0001) %MON forcing_qsw_mean             =  -1.3011220124424E+01
(PID.TID 0000.0001) %MON forcing_qsw_sd               =   2.4698765725129E+01
(PID.TID 0000.0001) %MON forcing_qsw_del2             =   1.9651612685365E-01
(PID.TID 0000.0001) %MON forcing_empmr_max            =   7.2544217109680E-03
(PID.TID 0000.0001) %MON forcing_empmr_min            =  -1.0427747666836E-01
(PID.TID 0000.0001) %MON forcing_empmr_mean           =  -3.1079401588735E-04
(PID.TID 0000.0001) %MON forcing_empmr_sd             =   4.5924720097387E-03
(PID.TID 0000.0001) %MON forcing_empmr_del2           =   1.8133058028376E-04
(PID.TID 0000.0001) %MON forcing_fu_max               =   3.6013715329999E-01
(PID.TID 0000.0001) %MON forcing_fu_min               =  -3.6245089533555E-01
(PID.TID 0000.0001) %MON forcing_fu_mean              =  -3.8751485688292E-03
(PID.TID 0000.0001) %MON forcing_fu_sd                =   6.2842580381288E-02
(PID.TID 0000.0001) %MON forcing_fu_del2              =   6.1618438418877E-04
(PID.TID 0000.0001) %MON forcing_fv_max               =   3.3234045249436E-01
(PID.TID 0000.0001) %MON forcing_fv_min               =  -2.8748845932577E-01
(PID.TID 0000.0001) %MON forcing_fv_mean              =  -1.3678862468154E-02
(PID.TID 0000.0001) %MON forcing_fv_sd                =   6.5087790574718E-02
(PID.TID 0000.0001) %MON forcing_fv_del2              =   5.5873476158394E-04
(PID.TID 0000.0001) %MON trAdv_CFL_u_max              =   2.7140188377640E-03
(PID.TID 0000.0001) %MON trAdv_CFL_v_max              =   3.0241175879367E-03
(PID.TID 0000.0001) %MON trAdv_CFL_w_max              =   2.0944320496317E-03
(PID.TID 0000.0001) %MON advcfl_uvel_max              =   2.6400744442975E-03
(PID.TID 0000.0001) %MON advcfl_vvel_max              =   2.7296628335939E-03
(PID.TID 0000.0001) %MON advcfl_wvel_max              =   3.6270426667255E-03
(PID.TID 0000.0001) %MON advcfl_W_hf_max              =   2.5626187305294E-03
(PID.TID 0000.0001) %MON pe_b_mean                    =   5.0892825305637E-04
(PID.TID 0000.0001) %MON ke_max                       =   2.7052009578517E-01
(PID.TID 0000.0001) %MON ke_mean                      =   1.6431221812201E-04
(PID.TID 0000.0001) %MON ke_vol                       =   1.3398112789184E+18
(PID.TID 0000.0001) %MON vort_r_min                   =  -2.9583030426132E-06
(PID.TID 0000.0001) %MON vort_r_max                   =   4.0046331626243E-06
(PID.TID 0000.0001) %MON vort_a_mean                  =  -2.0549865324846E-05
(PID.TID 0000.0001) %MON vort_a_sd                    =   7.5259563751276E-05
(PID.TID 0000.0001) %MON vort_p_mean                  =  -2.4783309322494E-05
(PID.TID 0000.0001) %MON vort_p_sd                    =   1.2811912529702E-04
(PID.TID 0000.0001) %MON surfExpan_theta_mean         =  -6.1730441160121E-06
(PID.TID 0000.0001) %MON surfExpan_salt_mean          =   9.3508656632347E-07
(PID.TID 0000.0001) // =======================================================
(PID.TID 0000.0001) // End MONITOR dynamic field statistics
(PID.TID 0000.0001) // =======================================================
 cg2d: Sum(rhs),rhsMax =  -3.26793478116427E+01  6.53447334555810E+01
(PID.TID 0000.0001)      cg2d_init_res =   1.92818386196972E-01
(PID.TID 0000.0001)      cg2d_iters(min,last) =      -1      10
(PID.TID 0000.0001)      cg2d_last_res =   3.38621861386867E-08
(PID.TID 0000.0001) // =======================================================
(PID.TID 0000.0001) // Begin MONITOR dynamic field statistics
(PID.TID 0000.0001) // =======================================================
(PID.TID 0000.0001) %MON time_tsnumber                =                 72043
(PID.TID 0000.0001) %MON time_secondsf                =   6.4838700000000E+07
(PID.TID 0000.0001) %MON dynstat_eta_max              =   2.9120176651836E+00
(PID.TID 0000.0001) %MON dynstat_eta_min              =  -1.6082592585464E+00
(PID.TID 0000.0001) %MON dynstat_eta_mean             =   2.4813335329081E-02
(PID.TID 0000.0001) %MON dynstat_eta_sd               =   6.1756417379735E-01
(PID.TID 0000.0001) %MON dynstat_eta_del2             =   2.2591464357180E-03
(PID.TID 0000.0001) %MON dynstat_uvel_max             =   3.6487688074008E-01
(PID.TID 0000.0001) %MON dynstat_uvel_min             =  -7.5271290996119E-01
(PID.TID 0000.0001) %MON dynstat_uvel_mean            =  -4.9755115042488E-04
(PID.TID 0000.0001) %MON dynstat_uvel_sd              =   1.2926311340267E-02
(PID.TID 0000.0001) %MON dynstat_uvel_del2            =   8.6658629972472E-05
(PID.TID 0000.0001) %MON dynstat_vvel_max             =   8.3976968604888E-01
(PID.TID 0000.0001) %MON dynstat_vvel_min             =  -5.3169077665712E-01
(PID.TID 0000.0001) %MON dynstat_vvel_mean            =  -8.2392923286659E-05
(PID.TID 0000.0001) %MON dynstat_vvel_sd              =   1.3670906852404E-02
(PID.TID 0000.0001) %MON dynstat_vvel_del2            =   1.0560413954896E-04
(PID.TID 0000.0001) %MON dynstat_wvel_max             =   1.9357239581931E-04
(PID.TID 0000.0001) %MON dynstat_wvel_min             =  -2.1203722528488E-04
(PID.TID 0000.0001) %MON dynstat_wvel_mean            =  -6.1611816646383E-08
(PID.TID 0000.0001) %MON dynstat_wvel_sd              =   7.9626628389234E-06
(PID.TID 0000.0001) %MON dynstat_wvel_del2            =   7.4635190154545E-08
(PID.TID 0000.0001) %MON dynstat_theta_max            =   3.0925518945873E+01
(PID.TID 0000.0001) %MON dynstat_theta_min            =  -3.0043707454608E+00
(PID.TID 0000.0001) %MON dynstat_theta_mean           =   3.9091409223185E+00
(PID.TID 0000.0001) %MON dynstat_theta_sd             =   4.5714277710778E+00
(PID.TID 0000.0001) %MON dynstat_theta_del2           =   2.6438567809095E-03
(PID.TID 0000.0001) %MON dynstat_salt_max             =   4.1353302083658E+01
(PID.TID 0000.0001) %MON dynstat_salt_min             =   1.8518805131492E+01
(PID.TID 0000.0001) %MON dynstat_salt_mean            =   3.4771987081080E+01
(PID.TID 0000.0001) %MON dynstat_salt_sd              =   5.3168707746090E-01
(PID.TID 0000.0001) %MON dynstat_salt_del2            =   9.9331036422066E-04
(PID.TID 0000.0001) %MON dynstat_sst_max              =   3.0925518945873E+01
(PID.TID 0000.0001) %MON dynstat_sst_min              =  -1.8972051431919E+00
(PID.TID 0000.0001) %MON dynstat_sst_mean             =   1.8108481667258E+01
(PID.TID 0000.0001) %MON dynstat_sst_sd               =   9.8103014334030E+00
(PID.TID 0000.0001) %MON dynstat_sst_del2             =   1.5066146518381E-02
(PID.TID 0000.0001) %MON dynstat_sss_max              =   4.1353302083658E+01
(PID.TID 0000.0001) %MON dynstat_sss_min              =   1.8751507225476E+01
(PID.TID 0000.0001) %MON dynstat_sss_mean             =   3.4626860149558E+01
(PID.TID 0000.0001) %MON dynstat_sss_sd               =   1.4757470427566E+00
(PID.TID 0000.0001) %MON dynstat_sss_del2             =   1.0871492243292E-02
(PID.TID 0000.0001) %MON forcing_qnet_max             =   2.3857567842756E+03
(PID.TID 0000.0001) %MON forcing_qnet_min             =  -1.4919286397523E+03
(PID.TID 0000.0001) %MON forcing_qnet_mean            =   2.3500658502243E+01
(PID.TID 0000.0001) %MON forcing_qnet_sd              =   2.0818092361689E+02
(PID.TID 0000.0001) %MON forcing_qnet_del2            =   4.4609452910949E+00
(PID.TID 0000.0001) %MON forcing_qsw_max              =   0.0000000000000E+00
(PID.TID 0000.0001) %MON forcing_qsw_min              =  -1.0689934538735E+02
(PID.TID 0000.0001) %MON forcing_qsw_mean             =  -1.2932111501864E+01
(PID.TID 0000.0001) %MON forcing_qsw_sd               =   2.4604688255985E+01
(PID.TID 0000.0001) %MON forcing_qsw_del2             =   1.9520100595544E-01
(PID.TID 0000.0001) %MON forcing_empmr_max            =   7.1797329001129E-03
(PID.TID 0000.0001) %MON forcing_empmr_min            =  -1.0320343822241E-01
(PID.TID 0000.0001) %MON forcing_empmr_mean           =  -3.0764341531063E-04
(PID.TID 0000.0001) %MON forcing_empmr_sd             =   4.5451756885808E-03
(PID.TID 0000.0001) %MON forcing_empmr_del2           =   1.7946134291875E-04
(PID.TID 0000.0001) %MON forcing_fu_max               =   3.5595806983588E-01
(PID.TID 0000.0001) %MON forcing_fu_min               =  -3.6184673977957E-01
(PID.TID 0000.0001) %MON forcing_fu_mean              =  -3.8652745449281E-03
(PID.TID 0000.0001) %MON forcing_fu_sd                =   6.2567268824116E-02
(PID.TID 0000.0001) %MON forcing_fu_del2              =   6.1396098091467E-04
(PID.TID 0000.0001) %MON forcing_fv_max               =   3.3217906722038E-01
(PID.TID 0000.0001) %MON forcing_fv_min               =  -2.8878577790499E-01
(PID.TID 0000.0001) %MON forcing_fv_mean              =  -1.3890330116338E-02
(PID.TID 0000.0001) %MON forcing_fv_sd                =   6.4938615884206E-02
(PID.TID 0000.0001) %MON forcing_fv_del2              =   5.5735345309357E-04
(PID.TID 0000.0001) %MON trAdv_CFL_u_max              =   2.4626061801696E-03
(PID.TID 0000.0001) %MON trAdv_CFL_v_max              =   2.5784313926402E-03
(PID.TID 0000.0001) %MON trAdv_CFL_w_max              =   2.1147831400995E-03
(PID.TID 0000.0001) %MON advcfl_uvel_max              =   2.3894272122321E-03
(PID.TID 0000.0001) %MON advcfl_vvel_max              =   2.5165961064470E-03
(PID.TID 0000.0001) %MON advcfl_wvel_max              =   3.5896848077359E-03
(PID.TID 0000.0001) %MON advcfl_W_hf_max              =   2.4888690883565E-03
(PID.TID 0000.0001) %MON pe_b_mean                    =   5.0889281196688E-04
(PID.TID 0000.0001) %MON ke_max                       =   2.2601489654733E-01
(PID.TID 0000.0001) %MON ke_mean                      =   1.6358621897824E-04
(PID.TID 0000.0001) %MON ke_vol                       =   1.3398113772609E+18
(PID.TID 0000.0001) %MON vort_r_min                   =  -2.5314283618049E-06
(PID.TID 0000.0001) %MON vort_r_max                   =   3.8669135557727E-06
(PID.TID 0000.0001) %MON vort_a_mean                  =  -2.0549865324846E-05
(PID.TID 0000.0001) %MON vort_a_sd                    =   7.5259575188449E-05
(PID.TID 0000.0001) %MON vort_p_mean                  =  -2.4783307720344E-05
(PID.TID 0000.0001) %MON vort_p_sd                    =   1.2811911944003E-04
(PID.TID 0000.0001) %MON surfExpan_theta_mean         =  -6.1365835455200E-06
(PID.TID 0000.0001) %MON surfExpan_salt_mean          =   9.5455533088906E-07
(PID.TID 0000.0001) // =======================================================
(PID.TID 0000.0001) // End MONITOR dynamic field statistics
(PID.TID 0000.0001) // =======================================================
 Computing Diagnostic #     81  oceTAUX      Counter:       1   Parms: UU      U1      
           Vector  Mate for  oceTAUX      Diagnostic #     82  oceTAUY  exists 
 Computing Diagnostic #     82  oceTAUY      Counter:       1   Parms: VV      U1      
           Vector  Mate for  oceTAUY      Diagnostic #     81  oceTAUX  exists 
 Computing Diagnostic #     85  oceFWflx     Counter:       1   Parms: SM      U1      
 Computing Diagnostic #     86  oceSflux     Counter:       1   Parms: SM      U1      
 Computing Diagnostic #     87  oceQnet      Counter:       1   Parms: SM      U1      
 Computing Diagnostic #     88  oceQsw       Counter:       1   Parms: SM      U1      
 Computing Diagnostic #     27  SALT         Counter:       1   Parms: SMR     MR      
 Computing Diagnostic #     26  THETA        Counter:       1   Parms: SMR     MR      
 Computing Diagnostic #     45  UVELMASS     Counter:       1   Parms: UUr     MR      
           Vector  Mate for  UVELMASS     Diagnostic #     46  VVELMASS exists 
 Computing Diagnostic #     46  VVELMASS     Counter:       1   Parms: VVr     MR      
           Vector  Mate for  VVELMASS     Diagnostic #     45  UVELMASS exists 
 Computing Diagnostic #     83  atmPload     Counter:       1   Parms: SM      U1      
 cg2d: Sum(rhs),rhsMax =  -3.23579038315214E+01  6.66986043802483E+01
(PID.TID 0000.0001)      cg2d_init_res =   1.78257557416581E-01
(PID.TID 0000.0001)      cg2d_iters(min,last) =      -1      10
(PID.TID 0000.0001)      cg2d_last_res =   5.75333706556175E-08
(PID.TID 0000.0001) // =======================================================
(PID.TID 0000.0001) // Begin MONITOR dynamic field statistics
(PID.TID 0000.0001) // =======================================================
(PID.TID 0000.0001) %MON time_tsnumber                =                 72044
(PID.TID 0000.0001) %MON time_secondsf                =   6.4839600000000E+07
(PID.TID 0000.0001) %MON dynstat_eta_max              =   2.9719227639107E+00
(PID.TID 0000.0001) %MON dynstat_eta_min              =  -1.6076362051735E+00
(PID.TID 0000.0001) %MON dynstat_eta_mean             =   2.5078311927205E-02
(PID.TID 0000.0001) %MON dynstat_eta_sd               =   6.1752878258664E-01
(PID.TID 0000.0001) %MON dynstat_eta_del2             =   2.3285369583933E-03
(PID.TID 0000.0001) %MON dynstat_uvel_max             =   3.6423832574646E-01
(PID.TID 0000.0001) %MON dynstat_uvel_min             =  -6.9566914818882E-01
(PID.TID 0000.0001) %MON dynstat_uvel_mean            =  -5.1095269465886E-04
(PID.TID 0000.0001) %MON dynstat_uvel_sd              =   1.2885027922526E-02
(PID.TID 0000.0001) %MON dynstat_uvel_del2            =   8.6824400683839E-05
(PID.TID 0000.0001) %MON dynstat_vvel_max             =   7.6266810767817E-01
(PID.TID 0000.0001) %MON dynstat_vvel_min             =  -4.1580671708113E-01
(PID.TID 0000.0001) %MON dynstat_vvel_mean            =  -3.2195641338893E-05
(PID.TID 0000.0001) %MON dynstat_vvel_sd              =   1.3656995641779E-02
(PID.TID 0000.0001) %MON dynstat_vvel_del2            =   1.0150513729846E-04
(PID.TID 0000.0001) %MON dynstat_wvel_max             =   1.8748428241661E-04
(PID.TID 0000.0001) %MON dynstat_wvel_min             =  -2.1401484520088E-04
(PID.TID 0000.0001) %MON dynstat_wvel_mean            =  -8.2442900796534E-08
(PID.TID 0000.0001) %MON dynstat_wvel_sd              =   7.9261380899900E-06
(PID.TID 0000.0001) %MON dynstat_wvel_del2            =   7.4808297388741E-08
(PID.TID 0000.0001) %MON dynstat_theta_max            =   3.0925673693817E+01
(PID.TID 0000.0001) %MON dynstat_theta_min            =  -3.0042849083691E+00
(PID.TID 0000.0001) %MON dynstat_theta_mean           =   3.9091411823548E+00
(PID.TID 0000.0001) %MON dynstat_theta_sd             =   4.5714291271479E+00
(PID.TID 0000.0001) %MON dynstat_theta_del2           =   2.6437383910418E-03
(PID.TID 0000.0001) %MON dynstat_salt_max             =   4.1352949410500E+01
(PID.TID 0000.0001) %MON dynstat_salt_min             =   1.8518815627905E+01
(PID.TID 0000.0001) %MON dynstat_salt_mean            =   3.4771984054072E+01
(PID.TID 0000.0001) %MON dynstat_salt_sd              =   5.3170486869635E-01
(PID.TID 0000.0001) %MON dynstat_salt_del2            =   9.9803174133146E-04
(PID.TID 0000.0001) %MON dynstat_sst_max              =   3.0925673693817E+01
(PID.TID 0000.0001) %MON dynstat_sst_min              =  -1.8971287402413E+00
(PID.TID 0000.0001) %MON dynstat_sst_mean             =   1.8108407002352E+01
(PID.TID 0000.0001) %MON dynstat_sst_sd               =   9.8103814759587E+00
(PID.TID 0000.0001) %MON dynstat_sst_del2             =   1.5063910199243E-02
(PID.TID 0000.0001) %MON dynstat_sss_max              =   4.1352949410500E+01
(PID.TID 0000.0001) %MON dynstat_sss_min              =   1.8751527681755E+01
(PID.TID 0000.0001) %MON dynstat_sss_mean             =   3.4626647904900E+01
(PID.TID 0000.0001) %MON dynstat_sss_sd               =   1.4761930116802E+00
(PID.TID 0000.0001) %MON dynstat_sss_del2             =   1.0939510544673E-02
(PID.TID 0000.0001) %MON forcing_qnet_max             =   2.3576234202133E+03
(PID.TID 0000.0001) %MON forcing_qnet_min             =  -1.4708473091587E+03
(PID.TID 0000.0001) %MON forcing_qnet_mean            =   2.4543911639144E+01
(PID.TID 0000.0001) %MON forcing_qnet_sd              =   2.0625461059138E+02
(PID.TID 0000.0001) %MON forcing_qnet_del2            =   4.3935563821316E+00
(PID.TID 0000.0001) %MON forcing_qsw_max              =   0.0000000000000E+00
(PID.TID 0000.0001) %MON forcing_qsw_min              =  -1.0793144040293E+02
(PID.TID 0000.0001) %MON forcing_qsw_mean             =  -1.2837907589963E+01
(PID.TID 0000.0001) %MON forcing_qsw_sd               =   2.4450337388346E+01
(PID.TID 0000.0001) %MON forcing_qsw_del2             =   1.9379274166081E-01
(PID.TID 0000.0001) %MON forcing_empmr_max            =   7.1056350134313E-03
(PID.TID 0000.0001) %MON forcing_empmr_min            =  -1.0214032232761E-01
(PID.TID 0000.0001) %MON forcing_empmr_mean           =  -3.0472308784238E-04
(PID.TID 0000.0001) %MON forcing_empmr_sd             =   4.4983783536672E-03
(PID.TID 0000.0001) %MON forcing_empmr_del2           =   1.7760142614287E-04
(PID.TID 0000.0001) %MON forcing_fu_max               =   3.5845995060767E-01
(PID.TID 0000.0001) %MON forcing_fu_min               =  -3.6134901041493E-01
(PID.TID 0000.0001) %MON forcing_fu_mean              =  -3.8536557710624E-03
(PID.TID 0000.0001) %MON forcing_fu_sd                =   6.2461521371464E-02
(PID.TID 0000.0001) %MON forcing_fu_del2              =   6.1404860293606E-04
(PID.TID 0000.0001) %MON forcing_fv_max               =   3.3368417447024E-01
(PID.TID 0000.0001) %MON forcing_fv_min               =  -2.8957383519488E-01
(PID.TID 0000.0001) %MON forcing_fv_mean              =  -1.4076510252143E-02
(PID.TID 0000.0001) %MON forcing_fv_sd                =   6.4786046174141E-02
(PID.TID 0000.0001) %MON forcing_fv_del2              =   5.5627559789833E-04
(PID.TID 0000.0001) %MON trAdv_CFL_u_max              =   2.1729137601126E-03
(PID.TID 0000.0001) %MON trAdv_CFL_v_max              =   2.3065649771958E-03
(PID.TID 0000.0001) %MON trAdv_CFL_w_max              =   2.1171086074879E-03
(PID.TID 0000.0001) %MON advcfl_uvel_max              =   2.1036782075044E-03
(PID.TID 0000.0001) %MON advcfl_vvel_max              =   2.2855404549367E-03
(PID.TID 0000.0001) %MON advcfl_wvel_max              =   3.5527068635692E-03
(PID.TID 0000.0001) %MON advcfl_W_hf_max              =   2.4105767113166E-03
(PID.TID 0000.0001) %MON pe_b_mean                    =   5.0885215519873E-04
(PID.TID 0000.0001) %MON ke_max                       =   1.8244745212760E-01
(PID.TID 0000.0001) %MON ke_mean                      =   1.6292384150472E-04
(PID.TID 0000.0001) %MON ke_vol                       =   1.3398114746064E+18
(PID.TID 0000.0001) %MON vort_r_min                   =  -2.6097041565597E-06
(PID.TID 0000.0001) %MON vort_r_max                   =   3.6470420190921E-06
(PID.TID 0000.0001) %MON vort_a_mean                  =  -2.0549865324846E-05
(PID.TID 0000.0001) %MON vort_a_sd                    =   7.5259586977838E-05
(PID.TID 0000.0001) %MON vort_p_mean                  =  -2.4783306109566E-05
(PID.TID 0000.0001) %MON vort_p_sd                    =   1.2811910941418E-04
(PID.TID 0000.0001) %MON surfExpan_theta_mean         =  -6.1238272498564E-06
(PID.TID 0000.0001) %MON surfExpan_salt_mean          =   9.7844881107922E-07
(PID.TID 0000.0001) // =======================================================
(PID.TID 0000.0001) // End MONITOR dynamic field statistics
(PID.TID 0000.0001) // =======================================================
 cg2d: Sum(rhs),rhsMax =  -3.22020296494024E+01  6.77237926916704E+01
(PID.TID 0000.0001)      cg2d_init_res =   1.65162774232460E-01
(PID.TID 0000.0001)      cg2d_iters(min,last) =      -1      10
(PID.TID 0000.0001)      cg2d_last_res =   6.89857495638185E-08
(PID.TID 0000.0001) // =======================================================
(PID.TID 0000.0001) // Begin MONITOR dynamic field statistics
(PID.TID 0000.0001) // =======================================================
(PID.TID 0000.0001) %MON time_tsnumber                =                 72045
(PID.TID 0000.0001) %MON time_secondsf                =   6.4840500000000E+07
(PID.TID 0000.0001) %MON dynstat_eta_max              =   3.0172373232533E+00
(PID.TID 0000.0001) %MON dynstat_eta_min              =  -1.6067210406336E+00
(PID.TID 0000.0001) %MON dynstat_eta_mean             =   2.5341113286328E-02
(PID.TID 0000.0001) %MON dynstat_eta_sd               =   6.1747186483282E-01
(PID.TID 0000.0001) %MON dynstat_eta_del2             =   2.3896170070904E-03
(PID.TID 0000.0001) %MON dynstat_uvel_max             =   3.6182770270944E-01
(PID.TID 0000.0001) %MON dynstat_uvel_min             =  -6.3307141539633E-01
(PID.TID 0000.0001) %MON dynstat_uvel_mean            =  -5.2102671422151E-04
(PID.TID 0000.0001) %MON dynstat_uvel_sd              =   1.2841878351560E-02
(PID.TID 0000.0001) %MON dynstat_uvel_del2            =   8.7128827863636E-05
(PID.TID 0000.0001) %MON dynstat_vvel_max             =   6.8104228181057E-01
(PID.TID 0000.0001) %MON dynstat_vvel_min             =  -4.0298678224280E-01
(PID.TID 0000.0001) %MON dynstat_vvel_mean            =   1.8549521060027E-05
(PID.TID 0000.0001) %MON dynstat_vvel_sd              =   1.3652298022057E-02
(PID.TID 0000.0001) %MON dynstat_vvel_del2            =   9.7555924551417E-05
(PID.TID 0000.0001) %MON dynstat_wvel_max             =   1.8130323011466E-04
(PID.TID 0000.0001) %MON dynstat_wvel_min             =  -2.1455646086091E-04
(PID.TID 0000.0001) %MON dynstat_wvel_mean            =  -1.0587543843699E-07
(PID.TID 0000.0001) %MON dynstat_wvel_sd              =   7.8986063923522E-06
(PID.TID 0000.0001) %MON dynstat_wvel_del2            =   7.5037911331191E-08
(PID.TID 0000.0001) %MON dynstat_theta_max            =   3.0925796459266E+01
(PID.TID 0000.0001) %MON dynstat_theta_min            =  -3.0042274463177E+00
(PID.TID 0000.0001) %MON dynstat_theta_mean           =   3.9091414609936E+00
(PID.TID 0000.0001) %MON dynstat_theta_sd             =   4.5714304429278E+00
(PID.TID 0000.0001) %MON dynstat_theta_del2           =   2.6436091173274E-03
(PID.TID 0000.0001) %MON dynstat_salt_max             =   4.1352594519578E+01
(PID.TID 0000.0001) %MON dynstat_salt_min             =   1.8518826105273E+01
(PID.TID 0000.0001) %MON dynstat_salt_mean            =   3.4771981077134E+01
(PID.TID 0000.0001) %MON dynstat_salt_sd              =   5.3172246451536E-01
(PID.TID 0000.0001) %MON dynstat_salt_del2            =   1.0026835983940E-03
(PID.TID 0000.0001) %MON dynstat_sst_max              =   3.0925796459266E+01
(PID.TID 0000.0001) %MON dynstat_sst_min              =  -1.8970648702958E+00
(PID.TID 0000.0001) %MON dynstat_sst_mean             =   1.8108332164282E+01
(PID.TID 0000.0001) %MON dynstat_sst_sd               =   9.8104595327690E+00
(PID.TID 0000.0001) %MON dynstat_sst_del2             =   1.5061497552780E-02
(PID.TID 0000.0001) %MON dynstat_sss_max              =   4.1352594519578E+01
(PID.TID 0000.0001) %MON dynstat_sss_min              =   1.8751550847286E+01
(PID.TID 0000.0001) %MON dynstat_sss_mean             =   3.4626439017777E+01
(PID.TID 0000.0001) %MON dynstat_sss_sd               =   1.4766338795188E+00
(PID.TID 0000.0001) %MON dynstat_sss_del2             =   1.1006437566544E-02
(PID.TID 0000.0001) %MON forcing_qnet_max             =   2.3277095363301E+03
(PID.TID 0000.0001) %MON forcing_qnet_min             =  -1.4497317463307E+03
(PID.TID 0000.0001) %MON forcing_qnet_mean            =   2.4133282505253E+01
(PID.TID 0000.0001) %MON forcing_qnet_sd              =   2.0496722766948E+02
(PID.TID 0000.0001) %MON forcing_qnet_del2            =   4.3536725117041E+00
(PID.TID 0000.0001) %MON forcing_qsw_max              =   0.0000000000000E+00
(PID.TID 0000.0001) %MON forcing_qsw_min              =  -1.0995657193779E+02
(PID.TID 0000.0001) %MON forcing_qsw_mean             =  -1.2846368213650E+01
(PID.TID 0000.0001) %MON forcing_qsw_sd               =   2.4301844612050E+01
(PID.TID 0000.0001) %MON forcing_qsw_del2             =   1.9332523410600E-01
(PID.TID 0000.0001) %MON forcing_empmr_max            =   7.0324228145182E-03
(PID.TID 0000.0001) %MON forcing_empmr_min            =  -1.0108810663223E-01
(PID.TID 0000.0001) %MON forcing_empmr_mean           =  -3.0222156299153E-04
(PID.TID 0000.0001) %MON forcing_empmr_sd             =   4.4519837599481E-03
(PID.TID 0000.0001) %MON forcing_empmr_del2           =   1.7575272110864E-04
(PID.TID 0000.0001) %MON forcing_fu_max               =   3.6205496254364E-01
(PID.TID 0000.0001) %MON forcing_fu_min               =  -3.6229650310399E-01
(PID.TID 0000.0001) %MON forcing_fu_mean              =  -3.8199430085408E-03
(PID.TID 0000.0001) %MON forcing_fu_sd                =   6.2406725034109E-02
(PID.TID 0000.0001) %MON forcing_fu_del2              =   6.1387725532750E-04
(PID.TID 0000.0001) %MON forcing_fv_max               =   3.3200816747315E-01
(PID.TID 0000.0001) %MON forcing_fv_min               =  -2.9135449031669E-01
(PID.TID 0000.0001) %MON forcing_fv_mean              =  -1.4250773860323E-02
(PID.TID 0000.0001) %MON forcing_fv_sd                =   6.4615086083224E-02
(PID.TID 0000.0001) %MON forcing_fv_del2              =   5.5492812174794E-04
(PID.TID 0000.0001) %MON trAdv_CFL_u_max              =   1.9163558339228E-03
(PID.TID 0000.0001) %MON trAdv_CFL_v_max              =   2.0655309287279E-03
(PID.TID 0000.0001) %MON trAdv_CFL_w_max              =   2.1006781763308E-03
(PID.TID 0000.0001) %MON advcfl_uvel_max              =   1.8632792438042E-03
(PID.TID 0000.0001) %MON advcfl_vvel_max              =   2.0409266769252E-03
(PID.TID 0000.0001) %MON advcfl_wvel_max              =   3.5161080567733E-03
(PID.TID 0000.0001) %MON advcfl_W_hf_max              =   2.3310918450838E-03
(PID.TID 0000.0001) %MON pe_b_mean                    =   5.0877612705311E-04
(PID.TID 0000.0001) %MON ke_max                       =   1.4158486008159E-01
(PID.TID 0000.0001) %MON ke_mean                      =   1.6235879456174E-04
(PID.TID 0000.0001) %MON ke_vol                       =   1.3398115710279E+18
(PID.TID 0000.0001) %MON vort_r_min                   =  -2.6849099093607E-06
(PID.TID 0000.0001) %MON vort_r_max                   =   3.3526075760652E-06
(PID.TID 0000.0001) %MON vort_a_mean                  =  -2.0549865324846E-05
(PID.TID 0000.0001) %MON vort_a_sd                    =   7.5259598955722E-05
(PID.TID 0000.0001) %MON vort_p_mean                  =  -2.4783304479722E-05
(PID.TID 0000.0001) %MON vort_p_sd                    =   1.2811909598051E-04
(PID.TID 0000.0001) %MON surfExpan_theta_mean         =  -6.1434774946141E-06
(PID.TID 0000.0001) %MON surfExpan_salt_mean          =   1.0049404067576E-06
(PID.TID 0000.0001) // =======================================================
(PID.TID 0000.0001) // End MONITOR dynamic field statistics
(PID.TID 0000.0001) // =======================================================
 cg2d: Sum(rhs),rhsMax =  -3.22092217044160E+01  6.84038130468455E+01
(PID.TID 0000.0001)      cg2d_init_res =   1.53906937332956E-01
(PID.TID 0000.0001)      cg2d_iters(min,last) =      -1      10
(PID.TID 0000.0001)      cg2d_last_res =   7.35191643467100E-08
(PID.TID 0000.0001) // =======================================================
(PID.TID 0000.0001) // Begin MONITOR dynamic field statistics
(PID.TID 0000.0001) // =======================================================
(PID.TID 0000.0001) %MON time_tsnumber                =                 72046
(PID.TID 0000.0001) %MON time_secondsf                =   6.4841400000000E+07
(PID.TID 0000.0001) %MON dynstat_eta_max              =   3.0472305457325E+00
(PID.TID 0000.0001) %MON dynstat_eta_min              =  -1.6055116858791E+00
(PID.TID 0000.0001) %MON dynstat_eta_mean             =   2.5601282113726E-02
(PID.TID 0000.0001) %MON dynstat_eta_sd               =   6.1737663658873E-01
(PID.TID 0000.0001) %MON dynstat_eta_del2             =   2.4376077470367E-03
(PID.TID 0000.0001) %MON dynstat_uvel_max             =   3.5765108075964E-01
(PID.TID 0000.0001) %MON dynstat_uvel_min             =  -5.6562190681174E-01
(PID.TID 0000.0001) %MON dynstat_uvel_mean            =  -5.2778611636208E-04
(PID.TID 0000.0001) %MON dynstat_uvel_sd              =   1.2799621440044E-02
(PID.TID 0000.0001) %MON dynstat_uvel_del2            =   8.7589141064141E-05
(PID.TID 0000.0001) %MON dynstat_vvel_max             =   5.9634223278608E-01
(PID.TID 0000.0001) %MON dynstat_vvel_min             =  -3.9808064264782E-01
(PID.TID 0000.0001) %MON dynstat_vvel_mean            =   6.9156864301482E-05
(PID.TID 0000.0001) %MON dynstat_vvel_sd              =   1.3656621849925E-02
(PID.TID 0000.0001) %MON dynstat_vvel_del2            =   9.3941099535529E-05
(PID.TID 0000.0001) %MON dynstat_wvel_max             =   1.7525249717669E-04
(PID.TID 0000.0001) %MON dynstat_wvel_min             =  -2.1355293403807E-04
(PID.TID 0000.0001) %MON dynstat_wvel_mean            =  -1.3071515161593E-07
(PID.TID 0000.0001) %MON dynstat_wvel_sd              =   7.8807319028524E-06
(PID.TID 0000.0001) %MON dynstat_wvel_del2            =   7.5322654980758E-08
(PID.TID 0000.0001) %MON dynstat_theta_max            =   3.0925908570897E+01
(PID.TID 0000.0001) %MON dynstat_theta_min            =  -3.0042025841983E+00
(PID.TID 0000.0001) %MON dynstat_theta_mean           =   3.9091417780096E+00
(PID.TID 0000.0001) %MON dynstat_theta_sd             =   4.5714318093025E+00
(PID.TID 0000.0001) %MON dynstat_theta_del2           =   2.6434653728253E-03
(PID.TID 0000.0001) %MON dynstat_salt_max             =   4.1352239196766E+01
(PID.TID 0000.0001) %MON dynstat_salt_min             =   1.8518836561388E+01
(PID.TID 0000.0001) %MON dynstat_salt_mean            =   3.4771978170023E+01
(PID.TID 0000.0001) %MON dynstat_salt_sd              =   5.3173988999556E-01
(PID.TID 0000.0001) %MON dynstat_salt_del2            =   1.0072661278380E-03
(PID.TID 0000.0001) %MON dynstat_sst_max              =   3.0925908570897E+01
(PID.TID 0000.0001) %MON dynstat_sst_min              =  -1.8970158663330E+00
(PID.TID 0000.0001) %MON dynstat_sst_mean             =   1.8108259684666E+01
(PID.TID 0000.0001) %MON dynstat_sst_sd               =   9.8105365520841E+00
(PID.TID 0000.0001) %MON dynstat_sst_del2             =   1.5058778995478E-02
(PID.TID 0000.0001) %MON dynstat_sss_max              =   4.1352239196766E+01
(PID.TID 0000.0001) %MON dynstat_sss_min              =   1.8751576992929E+01
(PID.TID 0000.0001) %MON dynstat_sss_mean             =   3.4626235082970E+01
(PID.TID 0000.0001) %MON dynstat_sss_sd               =   1.4770711195213E+00
(PID.TID 0000.0001) %MON dynstat_sss_del2             =   1.1072273438709E-02
(PID.TID 0000.0001) %MON forcing_qnet_max             =   2.8952278123551E+03
(PID.TID 0000.0001) %MON forcing_qnet_min             =  -3.9828078613281E+03
(PID.TID 0000.0001) %MON forcing_qnet_mean            =   2.3358948965319E+01
(PID.TID 0000.0001) %MON forcing_qnet_sd              =   2.1532535831176E+02
(PID.TID 0000.0001) %MON forcing_qnet_del2            =   5.2247355159736E+00
(PID.TID 0000.0001) %MON forcing_qsw_max              =   0.0000000000000E+00
(PID.TID 0000.0001) %MON forcing_qsw_min              =  -1.1046383725214E+02
(PID.TID 0000.0001) %MON forcing_qsw_mean             =  -1.2886958408546E+01
(PID.TID 0000.0001) %MON forcing_qsw_sd               =   2.4158400896122E+01
(PID.TID 0000.0001) %MON forcing_qsw_del2             =   1.9351006326520E-01
(PID.TID 0000.0001) %MON forcing_empmr_max            =   6.9598988629878E-03
(PID.TID 0000.0001) %MON forcing_empmr_min            =  -1.0004679858685E-01
(PID.TID 0000.0001) %MON forcing_empmr_mean           =  -2.9919415150795E-04
(PID.TID 0000.0001) %MON forcing_empmr_sd             =   4.4059883912649E-03
(PID.TID 0000.0001) %MON forcing_empmr_del2           =   1.7390295722945E-04
(PID.TID 0000.0001) %MON forcing_fu_max               =   3.6225133380407E-01
(PID.TID 0000.0001) %MON forcing_fu_min               =  -3.6275383921682E-01
(PID.TID 0000.0001) %MON forcing_fu_mean              =  -3.7933596119186E-03
(PID.TID 0000.0001) %MON forcing_fu_sd                =   6.2318101605884E-02
(PID.TID 0000.0001) %MON forcing_fu_del2              =   6.1355070099211E-04
(PID.TID 0000.0001) %MON forcing_fv_max               =   3.3046517241545E-01
(PID.TID 0000.0001) %MON forcing_fv_min               =  -2.9218286007450E-01
(PID.TID 0000.0001) %MON forcing_fv_mean              =  -1.4399051970886E-02
(PID.TID 0000.0001) %MON forcing_fv_sd                =   6.4394199046050E-02
(PID.TID 0000.0001) %MON forcing_fv_del2              =   5.5294394621116E-04
(PID.TID 0000.0001) %MON trAdv_CFL_u_max              =   1.7150557129186E-03
(PID.TID 0000.0001) %MON trAdv_CFL_v_max              =   1.8716626712706E-03
(PID.TID 0000.0001) %MON trAdv_CFL_w_max              =   2.0649336070280E-03
(PID.TID 0000.0001) %MON advcfl_uvel_max              =   1.6647593512707E-03
(PID.TID 0000.0001) %MON advcfl_vvel_max              =   1.7871001609982E-03
(PID.TID 0000.0001) %MON advcfl_wvel_max              =   3.4798886464990E-03
(PID.TID 0000.0001) %MON advcfl_W_hf_max              =   2.2532848170651E-03
(PID.TID 0000.0001) %MON pe_b_mean                    =   5.0863709309094E-04
(PID.TID 0000.0001) %MON ke_max                       =   1.2582470438389E-01
(PID.TID 0000.0001) %MON ke_mean                      =   1.6192113215535E-04
(PID.TID 0000.0001) %MON ke_vol                       =   1.3398116666578E+18
(PID.TID 0000.0001) %MON vort_r_min                   =  -2.7518902560107E-06
(PID.TID 0000.0001) %MON vort_r_max                   =   2.9923939596271E-06
(PID.TID 0000.0001) %MON vort_a_mean                  =  -2.0549865324846E-05
(PID.TID 0000.0001) %MON vort_a_sd                    =   7.5259610964774E-05
(PID.TID 0000.0001) %MON vort_p_mean                  =  -2.4783302819350E-05
(PID.TID 0000.0001) %MON vort_p_sd                    =   1.2811907992421E-04
(PID.TID 0000.0001) %MON surfExpan_theta_mean         =  -6.1853618907412E-06
(PID.TID 0000.0001) %MON surfExpan_salt_mean          =   1.0352323020422E-06
(PID.TID 0000.0001) // =======================================================
(PID.TID 0000.0001) // End MONITOR dynamic field statistics
(PID.TID 0000.0001) // =======================================================
 cg2d: Sum(rhs),rhsMax =  -3.23805524788689E+01  6.87261165035197E+01
(PID.TID 0000.0001)      cg2d_init_res =   1.44945057843352E-01
(PID.TID 0000.0001)      cg2d_iters(min,last) =      -1      10
(PID.TID 0000.0001)      cg2d_last_res =   7.53812791681605E-08
(PID.TID 0000.0001) // =======================================================
(PID.TID 0000.0001) // Begin MONITOR dynamic field statistics
(PID.TID 0000.0001) // =======================================================
(PID.TID 0000.0001) %MON time_tsnumber                =                 72047
(PID.TID 0000.0001) %MON time_secondsf                =   6.4842300000000E+07
(PID.TID 0000.0001) %MON dynstat_eta_max              =   3.0687238870811E+00
(PID.TID 0000.0001) %MON dynstat_eta_min              =  -1.6040356335055E+00
(PID.TID 0000.0001) %MON dynstat_eta_mean             =   2.5858732387520E-02
(PID.TID 0000.0001) %MON dynstat_eta_sd               =   6.1722849367593E-01
(PID.TID 0000.0001) %MON dynstat_eta_del2             =   2.4689397409239E-03
(PID.TID 0000.0001) %MON dynstat_uvel_max             =   3.5172928070324E-01
(PID.TID 0000.0001) %MON dynstat_uvel_min             =  -5.6511619738124E-01
(PID.TID 0000.0001) %MON dynstat_uvel_mean            =  -5.3127148010045E-04
(PID.TID 0000.0001) %MON dynstat_uvel_sd              =   1.2760840881709E-02
(PID.TID 0000.0001) %MON dynstat_uvel_del2            =   8.8209634544583E-05
(PID.TID 0000.0001) %MON dynstat_vvel_max             =   5.0998175681627E-01
(PID.TID 0000.0001) %MON dynstat_vvel_min             =  -4.0018770376176E-01
(PID.TID 0000.0001) %MON dynstat_vvel_mean            =   1.1898070302503E-04
(PID.TID 0000.0001) %MON dynstat_vvel_sd              =   1.3669240179821E-02
(PID.TID 0000.0001) %MON dynstat_vvel_del2            =   9.0842522568728E-05
(PID.TID 0000.0001) %MON dynstat_wvel_max             =   1.6956821204201E-04
(PID.TID 0000.0001) %MON dynstat_wvel_min             =  -2.1090968021332E-04
(PID.TID 0000.0001) %MON dynstat_wvel_mean            =  -1.5645358156594E-07
(PID.TID 0000.0001) %MON dynstat_wvel_sd              =   7.8741603438653E-06
(PID.TID 0000.0001) %MON dynstat_wvel_del2            =   7.5668082636111E-08
(PID.TID 0000.0001) %MON dynstat_theta_max            =   3.0926009666639E+01
(PID.TID 0000.0001) %MON dynstat_theta_min            =  -3.0042135440423E+00
(PID.TID 0000.0001) %MON dynstat_theta_mean           =   3.9091422880596E+00
(PID.TID 0000.0001) %MON dynstat_theta_sd             =   4.5714337036237E+00
(PID.TID 0000.0001) %MON dynstat_theta_del2           =   2.6433125239027E-03
(PID.TID 0000.0001) %MON dynstat_salt_max             =   4.1351885402813E+01
(PID.TID 0000.0001) %MON dynstat_salt_min             =   1.8518846995238E+01
(PID.TID 0000.0001) %MON dynstat_salt_mean            =   3.4771975377155E+01
(PID.TID 0000.0001) %MON dynstat_salt_sd              =   5.3175714671560E-01
(PID.TID 0000.0001) %MON dynstat_salt_del2            =   1.0117817297017E-03
(PID.TID 0000.0001) %MON dynstat_sst_max              =   3.0926009666639E+01
(PID.TID 0000.0001) %MON dynstat_sst_min              =  -1.8969816107855E+00
(PID.TID 0000.0001) %MON dynstat_sst_mean             =   1.8108203870426E+01
(PID.TID 0000.0001) %MON dynstat_sst_sd               =   9.8106119874807E+00
(PID.TID 0000.0001) %MON dynstat_sst_del2             =   1.5055787125960E-02
(PID.TID 0000.0001) %MON dynstat_sss_max              =   4.1351885402813E+01
(PID.TID 0000.0001) %MON dynstat_sss_min              =   1.8751606185197E+01
(PID.TID 0000.0001) %MON dynstat_sss_mean             =   3.4626040142846E+01
(PID.TID 0000.0001) %MON dynstat_sss_sd               =   1.4775047476112E+00
(PID.TID 0000.0001) %MON dynstat_sss_del2             =   1.1137065201034E-02
(PID.TID 0000.0001) %MON forcing_qnet_max             =   4.5052265658469E+03
(PID.TID 0000.0001) %MON forcing_qnet_min             =  -1.5994312500000E+04
(PID.TID 0000.0001) %MON forcing_qnet_mean            =   1.9888740651799E+01
(PID.TID 0000.0001) %MON forcing_qnet_sd              =   3.2664279113913E+02
(PID.TID 0000.0001) %MON forcing_qnet_del2            =   1.0934792393691E+01
(PID.TID 0000.0001) %MON forcing_qsw_max              =   0.0000000000000E+00
(PID.TID 0000.0001) %MON forcing_qsw_min              =  -1.1051330842703E+02
(PID.TID 0000.0001) %MON forcing_qsw_mean             =  -1.2906904446592E+01
(PID.TID 0000.0001) %MON forcing_qsw_sd               =   2.3971689761039E+01
(PID.TID 0000.0001) %MON forcing_qsw_del2             =   1.9341823400468E-01
(PID.TID 0000.0001) %MON forcing_empmr_max            =   6.8881628103554E-03
(PID.TID 0000.0001) %MON forcing_empmr_min            =  -9.9015563726425E-02
(PID.TID 0000.0001) %MON forcing_empmr_mean           =  -2.9606781486288E-04
(PID.TID 0000.0001) %MON forcing_empmr_sd             =   4.3608856429940E-03
(PID.TID 0000.0001) %MON forcing_empmr_del2           =   1.7209774958555E-04
(PID.TID 0000.0001) %MON forcing_fu_max               =   3.6471826555907E-01
(PID.TID 0000.0001) %MON forcing_fu_min               =  -3.6386576948812E-01
(PID.TID 0000.0001) %MON forcing_fu_mean              =  -3.7842688047790E-03
(PID.TID 0000.0001) %MON forcing_fu_sd                =   6.2321625083088E-02
(PID.TID 0000.0001) %MON forcing_fu_del2              =   6.1425100371046E-04
(PID.TID 0000.0001) %MON forcing_fv_max               =   3.2984308080028E-01
(PID.TID 0000.0001) %MON forcing_fv_min               =  -2.9371394928190E-01
(PID.TID 0000.0001) %MON forcing_fv_mean              =  -1.4509274359879E-02
(PID.TID 0000.0001) %MON forcing_fv_sd                =   6.4212809681544E-02
(PID.TID 0000.0001) %MON forcing_fv_del2              =   5.5127843065623E-04
(PID.TID 0000.0001) %MON trAdv_CFL_u_max              =   1.6043181270433E-03
(PID.TID 0000.0001) %MON trAdv_CFL_v_max              =   1.7705298446241E-03
(PID.TID 0000.0001) %MON trAdv_CFL_w_max              =   2.0095476740303E-03
(PID.TID 0000.0001) %MON advcfl_uvel_max              =   1.6075849661792E-03
(PID.TID 0000.0001) %MON advcfl_vvel_max              =   1.5282977283942E-03
(PID.TID 0000.0001) %MON advcfl_wvel_max              =   3.4440196078757E-03
(PID.TID 0000.0001) %MON advcfl_W_hf_max              =   2.1793909959364E-03
(PID.TID 0000.0001) %MON pe_b_mean                    =   5.0841105409687E-04
(PID.TID 0000.0001) %MON ke_max                       =   1.3722018500002E-01
(PID.TID 0000.0001) %MON ke_mean                      =   1.6163179454122E-04
(PID.TID 0000.0001) %MON ke_vol                       =   1.3398117613298E+18
(PID.TID 0000.0001) %MON vort_r_min                   =  -2.8797570486162E-06
(PID.TID 0000.0001) %MON vort_r_max                   =   2.5761966222469E-06
(PID.TID 0000.0001) %MON vort_a_mean                  =  -2.0549865324846E-05
(PID.TID 0000.0001) %MON vort_a_sd                    =   7.5259622864592E-05
(PID.TID 0000.0001) %MON vort_p_mean                  =  -2.4783301123548E-05
(PID.TID 0000.0001) %MON vort_p_sd                    =   1.2811906232788E-04
(PID.TID 0000.0001) %MON surfExpan_theta_mean         =  -6.2402998757989E-06
(PID.TID 0000.0001) %MON surfExpan_salt_mean          =   1.0670735538940E-06
(PID.TID 0000.0001) // =======================================================
(PID.TID 0000.0001) // End MONITOR dynamic field statistics
(PID.TID 0000.0001) // =======================================================
 Computing Diagnostic #     81  oceTAUX      Counter:       1   Parms: UU      U1      
           Vector  Mate for  oceTAUX      Diagnostic #     82  oceTAUY  exists 
 Computing Diagnostic #     82  oceTAUY      Counter:       1   Parms: VV      U1      
           Vector  Mate for  oceTAUY      Diagnostic #     81  oceTAUX  exists 
 Computing Diagnostic #     85  oceFWflx     Counter:       1   Parms: SM      U1      
 Computing Diagnostic #     86  oceSflux     Counter:       1   Parms: SM      U1      
 Computing Diagnostic #     87  oceQnet      Counter:       1   Parms: SM      U1      
 Computing Diagnostic #     88  oceQsw       Counter:       1   Parms: SM      U1      
 Computing Diagnostic #     27  SALT         Counter:       1   Parms: SMR     MR      
 Computing Diagnostic #     26  THETA        Counter:       1   Parms: SMR     MR      
 Computing Diagnostic #     45  UVELMASS     Counter:       1   Parms: UUr     MR      
           Vector  Mate for  UVELMASS     Diagnostic #     46  VVELMASS exists 
 Computing Diagnostic #     46  VVELMASS     Counter:       1   Parms: VVr     MR      
           Vector  Mate for  VVELMASS     Diagnostic #     45  UVELMASS exists 
 Computing Diagnostic #     83  atmPload     Counter:       1   Parms: SM      U1      
 cg2d: Sum(rhs),rhsMax =  -3.27209095905278E+01  6.86822648902992E+01
(PID.TID 0000.0001)      cg2d_init_res =   1.38753496416958E-01
(PID.TID 0000.0001)      cg2d_iters(min,last) =      -1      10
(PID.TID 0000.0001)      cg2d_last_res =   7.61252158950282E-08
(PID.TID 0000.0001) // =======================================================
(PID.TID 0000.0001) // Begin MONITOR dynamic field statistics
(PID.TID 0000.0001) // =======================================================
(PID.TID 0000.0001) %MON time_tsnumber                =                 72048
(PID.TID 0000.0001) %MON time_secondsf                =   6.4843200000000E+07
(PID.TID 0000.0001) %MON dynstat_eta_max              =   3.1053469151759E+00
(PID.TID 0000.0001) %MON dynstat_eta_min              =  -1.6023474599021E+00
(PID.TID 0000.0001) %MON dynstat_eta_mean             =   2.6113864678791E-02
(PID.TID 0000.0001) %MON dynstat_eta_sd               =   6.1701742755534E-01
(PID.TID 0000.0001) %MON dynstat_eta_del2             =   2.4812305794078E-03
(PID.TID 0000.0001) %MON dynstat_uvel_max             =   3.4409758238151E-01
(PID.TID 0000.0001) %MON dynstat_uvel_min             =  -5.6667235368528E-01
(PID.TID 0000.0001) %MON dynstat_uvel_mean            =  -5.3154648967212E-04
(PID.TID 0000.0001) %MON dynstat_uvel_sd              =   1.2727834986334E-02
(PID.TID 0000.0001) %MON dynstat_uvel_del2            =   8.8980961165813E-05
(PID.TID 0000.0001) %MON dynstat_vvel_max             =   4.2331834509438E-01
(PID.TID 0000.0001) %MON dynstat_vvel_min             =  -4.3192124917431E-01
(PID.TID 0000.0001) %MON dynstat_vvel_mean            =   1.6743054212501E-04
(PID.TID 0000.0001) %MON dynstat_vvel_sd              =   1.3689051338172E-02
(PID.TID 0000.0001) %MON dynstat_vvel_del2            =   8.8421044245431E-05
(PID.TID 0000.0001) %MON dynstat_wvel_max             =   1.6418091042740E-04
(PID.TID 0000.0001) %MON dynstat_wvel_min             =  -2.0656204499944E-04
(PID.TID 0000.0001) %MON dynstat_wvel_mean            =  -1.8262948524409E-07
(PID.TID 0000.0001) %MON dynstat_wvel_sd              =   7.8793249401628E-06
(PID.TID 0000.0001) %MON dynstat_wvel_del2            =   7.6065356487818E-08
(PID.TID 0000.0001) %MON dynstat_theta_max            =   3.0926098234621E+01
(PID.TID 0000.0001) %MON dynstat_theta_min            =  -3.0042621497780E+00
(PID.TID 0000.0001) %MON dynstat_theta_mean           =   3.9091425291310E+00
(PID.TID 0000.0001) %MON dynstat_theta_sd             =   4.5714349192803E+00
(PID.TID 0000.0001) %MON dynstat_theta_del2           =   2.6431891955966E-03
(PID.TID 0000.0001) %MON dynstat_salt_max             =   4.1351535304751E+01
(PID.TID 0000.0001) %MON dynstat_salt_min             =   1.8518857406882E+01
(PID.TID 0000.0001) %MON dynstat_salt_mean            =   3.4771972555252E+01
(PID.TID 0000.0001) %MON dynstat_salt_sd              =   5.3177421214868E-01
(PID.TID 0000.0001) %MON dynstat_salt_del2            =   1.0162271242937E-03
(PID.TID 0000.0001) %MON dynstat_sst_max              =   3.0926098234621E+01
(PID.TID 0000.0001) %MON dynstat_sst_min              =  -1.8969628814201E+00
(PID.TID 0000.0001) %MON dynstat_sst_mean             =   1.8108128005216E+01
(PID.TID 0000.0001) %MON dynstat_sst_sd               =   9.8106936818825E+00
(PID.TID 0000.0001) %MON dynstat_sst_del2             =   1.5053608596674E-02
(PID.TID 0000.0001) %MON dynstat_sss_max              =   4.1351535304751E+01
(PID.TID 0000.0001) %MON dynstat_sss_min              =   1.8751638781997E+01
(PID.TID 0000.0001) %MON dynstat_sss_mean             =   3.4625842671409E+01
(PID.TID 0000.0001) %MON dynstat_sss_sd               =   1.4779336520243E+00
(PID.TID 0000.0001) %MON dynstat_sss_del2             =   1.1200752979743E-02
(PID.TID 0000.0001) %MON forcing_qnet_max             =   7.5455100994275E+03
(PID.TID 0000.0001) %MON forcing_qnet_min             =  -1.3902169451788E+03
(PID.TID 0000.0001) %MON forcing_qnet_mean            =   2.4268470111900E+01
(PID.TID 0000.0001) %MON forcing_qnet_sd              =   2.3022872598013E+02
(PID.TID 0000.0001) %MON forcing_qnet_del2            =   6.9685600429800E+00
(PID.TID 0000.0001) %MON forcing_qsw_max              =   0.0000000000000E+00
(PID.TID 0000.0001) %MON forcing_qsw_min              =  -1.1010466389365E+02
(PID.TID 0000.0001) %MON forcing_qsw_mean             =  -1.2902864353742E+01
(PID.TID 0000.0001) %MON forcing_qsw_sd               =   2.3746221233480E+01
(PID.TID 0000.0001) %MON forcing_qsw_del2             =   1.9304811509128E-01
(PID.TID 0000.0001) %MON forcing_empmr_max            =   6.8172137252986E-03
(PID.TID 0000.0001) %MON forcing_empmr_min            =  -9.7996070981026E-02
(PID.TID 0000.0001) %MON forcing_empmr_mean           =  -2.9340213496209E-04
(PID.TID 0000.0001) %MON forcing_empmr_sd             =   4.3166312176314E-03
(PID.TID 0000.0001) %MON forcing_empmr_del2           =   1.7033798848368E-04
(PID.TID 0000.0001) %MON forcing_fu_max               =   3.6858900529429E-01
(PID.TID 0000.0001) %MON forcing_fu_min               =  -3.6312515745806E-01
(PID.TID 0000.0001) %MON forcing_fu_mean              =  -3.7560514302037E-03
(PID.TID 0000.0001) %MON forcing_fu_sd                =   6.2350106399375E-02
(PID.TID 0000.0001) %MON forcing_fu_del2              =   6.1502326937660E-04
(PID.TID 0000.0001) %MON forcing_fv_max               =   3.2904869053499E-01
(PID.TID 0000.0001) %MON forcing_fv_min               =  -2.9472794848288E-01
(PID.TID 0000.0001) %MON forcing_fv_mean              =  -1.4582924286907E-02
(PID.TID 0000.0001) %MON forcing_fv_sd                =   6.3995804161830E-02
(PID.TID 0000.0001) %MON forcing_fv_del2              =   5.4898275115865E-04
(PID.TID 0000.0001) %MON trAdv_CFL_u_max              =   1.6095021433036E-03
(PID.TID 0000.0001) %MON trAdv_CFL_v_max              =   1.6223815636467E-03
(PID.TID 0000.0001) %MON trAdv_CFL_w_max              =   1.9345677913946E-03
(PID.TID 0000.0001) %MON advcfl_uvel_max              =   1.6120117610419E-03
(PID.TID 0000.0001) %MON advcfl_vvel_max              =   1.2685874671953E-03
(PID.TID 0000.0001) %MON advcfl_wvel_max              =   3.4085589906444E-03
(PID.TID 0000.0001) %MON advcfl_W_hf_max              =   2.1109182497022E-03
(PID.TID 0000.0001) %MON pe_b_mean                    =   5.0808164135305E-04
(PID.TID 0000.0001) %MON ke_max                       =   1.4840273627044E-01
(PID.TID 0000.0001) %MON ke_mean                      =   1.6150338037480E-04
(PID.TID 0000.0001) %MON ke_vol                       =   1.3398118550125E+18
(PID.TID 0000.0001) %MON vort_r_min                   =  -3.0418238833944E-06
(PID.TID 0000.0001) %MON vort_r_max                   =   2.2632818307979E-06
(PID.TID 0000.0001) %MON vort_a_mean                  =  -2.0549865324846E-05
(PID.TID 0000.0001) %MON vort_a_sd                    =   7.5259634526003E-05
(PID.TID 0000.0001) %MON vort_p_mean                  =  -2.4783299386046E-05
(PID.TID 0000.0001) %MON vort_p_sd                    =   1.2811904420521E-04
(PID.TID 0000.0001) %MON surfExpan_theta_mean         =  -6.3192896601365E-06
(PID.TID 0000.0001) %MON surfExpan_salt_mean          =   1.0992344659890E-06
(PID.TID 0000.0001) // =======================================================
(PID.TID 0000.0001) // End MONITOR dynamic field statistics
(PID.TID 0000.0001) // =======================================================
 cg2d: Sum(rhs),rhsMax =  -3.32398763602504E+01  6.82680556203197E+01
(PID.TID 0000.0001)      cg2d_init_res =   1.35680875637222E-01
(PID.TID 0000.0001)      cg2d_iters(min,last) =      -1      10
(PID.TID 0000.0001)      cg2d_last_res =   7.64144352924229E-08
(PID.TID 0000.0001) // =======================================================
(PID.TID 0000.0001) // Begin MONITOR dynamic field statistics
(PID.TID 0000.0001) // =======================================================
(PID.TID 0000.0001) %MON time_tsnumber                =                 72049
(PID.TID 0000.0001) %MON time_secondsf                =   6.4844100000000E+07
(PID.TID 0000.0001) %MON dynstat_eta_max              =   3.0876018490650E+00
(PID.TID 0000.0001) %MON dynstat_eta_min              =  -1.6005219092701E+00
(PID.TID 0000.0001) %MON dynstat_eta_mean             =   2.6368055649120E-02
(PID.TID 0000.0001) %MON dynstat_eta_sd               =   6.1674044589387E-01
(PID.TID 0000.0001) %MON dynstat_eta_del2             =   2.4732681660436E-03
(PID.TID 0000.0001) %MON dynstat_uvel_max             =   3.3480552314116E-01
(PID.TID 0000.0001) %MON dynstat_uvel_min             =  -5.6571309512661E-01
(PID.TID 0000.0001) %MON dynstat_uvel_mean            =  -5.2871520472384E-04
(PID.TID 0000.0001) %MON dynstat_uvel_sd              =   1.2702468921634E-02
(PID.TID 0000.0001) %MON dynstat_uvel_del2            =   8.9881490752921E-05
(PID.TID 0000.0001) %MON dynstat_vvel_max             =   3.7553526480661E-01
(PID.TID 0000.0001) %MON dynstat_vvel_min             =  -4.6262342953561E-01
(PID.TID 0000.0001) %MON dynstat_vvel_mean            =   2.1399197036567E-04
(PID.TID 0000.0001) %MON dynstat_vvel_sd              =   1.3714551600468E-02
(PID.TID 0000.0001) %MON dynstat_vvel_del2            =   8.6795295365217E-05
(PID.TID 0000.0001) %MON dynstat_wvel_max             =   1.5933533640281E-04
(PID.TID 0000.0001) %MON dynstat_wvel_min             =  -2.0049021849046E-04
(PID.TID 0000.0001) %MON dynstat_wvel_mean            =  -2.0922178763598E-07
(PID.TID 0000.0001) %MON dynstat_wvel_sd              =   7.8952211186913E-06
(PID.TID 0000.0001) %MON dynstat_wvel_del2            =   7.6494636702412E-08
(PID.TID 0000.0001) %MON dynstat_theta_max            =   3.0926160166763E+01
(PID.TID 0000.0001) %MON dynstat_theta_min            =  -3.0043486961728E+00
(PID.TID 0000.0001) %MON dynstat_theta_mean           =   3.9091428648749E+00
(PID.TID 0000.0001) %MON dynstat_theta_sd             =   4.5714365725638E+00
(PID.TID 0000.0001) %MON dynstat_theta_del2           =   2.6430759648060E-03
(PID.TID 0000.0001) %MON dynstat_salt_max             =   4.1351190716609E+01
(PID.TID 0000.0001) %MON dynstat_salt_min             =   1.8518867797307E+01
(PID.TID 0000.0001) %MON dynstat_salt_mean            =   3.4771969755495E+01
(PID.TID 0000.0001) %MON dynstat_salt_sd              =   5.3179104394748E-01
(PID.TID 0000.0001) %MON dynstat_salt_del2            =   1.0206049184168E-03
(PID.TID 0000.0001) %MON dynstat_sst_max              =   3.0926160166763E+01
(PID.TID 0000.0001) %MON dynstat_sst_min              =  -1.8969613305288E+00
(PID.TID 0000.0001) %MON dynstat_sst_mean             =   1.8108057199899E+01
(PID.TID 0000.0001) %MON dynstat_sst_sd               =   9.8107811690556E+00
(PID.TID 0000.0001) %MON dynstat_sst_del2             =   1.5051683167456E-02
(PID.TID 0000.0001) %MON dynstat_sss_max              =   4.1351190716609E+01
(PID.TID 0000.0001) %MON dynstat_sss_min              =   1.8751674982580E+01
(PID.TID 0000.0001) %MON dynstat_sss_mean             =   3.4625646165382E+01
(PID.TID 0000.0001) %MON dynstat_sss_sd               =   1.4783565105333E+00
(PID.TID 0000.0001) %MON dynstat_sss_del2             =   1.1263397293088E-02
(PID.TID 0000.0001) %MON forcing_qnet_max             =   1.0904695586618E+04
(PID.TID 0000.0001) %MON forcing_qnet_min             =  -1.3715711611866E+03
(PID.TID 0000.0001) %MON forcing_qnet_mean            =   2.2712424162396E+01
(PID.TID 0000.0001) %MON forcing_qnet_sd              =   2.6192354016806E+02
(PID.TID 0000.0001) %MON forcing_qnet_del2            =   9.3509907899114E+00
(PID.TID 0000.0001) %MON forcing_qsw_max              =   0.0000000000000E+00
(PID.TID 0000.0001) %MON forcing_qsw_min              =  -1.0831906069921E+02
(PID.TID 0000.0001) %MON forcing_qsw_mean             =  -1.3046031730743E+01
(PID.TID 0000.0001) %MON forcing_qsw_sd               =   2.3413144601601E+01
(PID.TID 0000.0001) %MON forcing_qsw_del2             =   1.9240031548497E-01
(PID.TID 0000.0001) %MON forcing_empmr_max            =   6.7469533532858E-03
(PID.TID 0000.0001) %MON forcing_empmr_min            =  -9.6986643970013E-02
(PID.TID 0000.0001) %MON forcing_empmr_mean           =  -2.9231961587853E-04
(PID.TID 0000.0001) %MON forcing_empmr_sd             =   4.2729118552240E-03
(PID.TID 0000.0001) %MON forcing_empmr_del2           =   1.6859687645131E-04
(PID.TID 0000.0001) %MON forcing_fu_max               =   3.7379356840571E-01
(PID.TID 0000.0001) %MON forcing_fu_min               =  -3.6324174237580E-01
(PID.TID 0000.0001) %MON forcing_fu_mean              =  -3.6832485570943E-03
(PID.TID 0000.0001) %MON forcing_fu_sd                =   6.2463499069632E-02
(PID.TID 0000.0001) %MON forcing_fu_del2              =   6.1654220804844E-04
(PID.TID 0000.0001) %MON forcing_fv_max               =   3.2895920942441E-01
(PID.TID 0000.0001) %MON forcing_fv_min               =  -2.9454179053927E-01
(PID.TID 0000.0001) %MON forcing_fv_mean              =  -1.4630469398825E-02
(PID.TID 0000.0001) %MON forcing_fv_sd                =   6.3745527571765E-02
(PID.TID 0000.0001) %MON forcing_fv_del2              =   5.4589681608768E-04
(PID.TID 0000.0001) %MON trAdv_CFL_u_max              =   1.6075996111056E-03
(PID.TID 0000.0001) %MON trAdv_CFL_v_max              =   1.4320863345903E-03
(PID.TID 0000.0001) %MON trAdv_CFL_w_max              =   1.8405635285739E-03
(PID.TID 0000.0001) %MON advcfl_uvel_max              =   1.6092829600541E-03
(PID.TID 0000.0001) %MON advcfl_vvel_max              =   1.3525750050731E-03
(PID.TID 0000.0001) %MON advcfl_wvel_max              =   3.3734484859135E-03
(PID.TID 0000.0001) %MON advcfl_W_hf_max              =   2.0486119146316E-03
(PID.TID 0000.0001) %MON pe_b_mean                    =   5.0764413591461E-04
(PID.TID 0000.0001) %MON ke_max                       =   1.5929222036393E-01
(PID.TID 0000.0001) %MON ke_mean                      =   1.6153815008900E-04
(PID.TID 0000.0001) %MON ke_vol                       =   1.3398119478518E+18
(PID.TID 0000.0001) %MON vort_r_min                   =  -3.2023538885986E-06
(PID.TID 0000.0001) %MON vort_r_max                   =   2.3429301617127E-06
(PID.TID 0000.0001) %MON vort_a_mean                  =  -2.0549865324846E-05
(PID.TID 0000.0001) %MON vort_a_sd                    =   7.5259645840527E-05
(PID.TID 0000.0001) %MON vort_p_mean                  =  -2.4783297599412E-05
(PID.TID 0000.0001) %MON vort_p_sd                    =   1.2811902646885E-04
(PID.TID 0000.0001) %MON surfExpan_theta_mean         =  -6.4494585228857E-06
(PID.TID 0000.0001) %MON surfExpan_salt_mean          =   1.1306870526493E-06
(PID.TID 0000.0001) // =======================================================
(PID.TID 0000.0001) // End MONITOR dynamic field statistics
(PID.TID 0000.0001) // =======================================================
 cg2d: Sum(rhs),rhsMax =  -3.39473985264766E+01  6.74835750043737E+01
(PID.TID 0000.0001)      cg2d_init_res =   1.35845200914021E-01
(PID.TID 0000.0001)      cg2d_iters(min,last) =      -1      10
(PID.TID 0000.0001)      cg2d_last_res =   7.67318662292369E-08
(PID.TID 0000.0001) // =======================================================
(PID.TID 0000.0001) // Begin MONITOR dynamic field statistics
(PID.TID 0000.0001) // =======================================================
(PID.TID 0000.0001) %MON time_tsnumber                =                 72050
(PID.TID 0000.0001) %MON time_secondsf                =   6.4845000000000E+07
(PID.TID 0000.0001) %MON dynstat_eta_max              =   3.0176625710254E+00
(PID.TID 0000.0001) %MON dynstat_eta_min              =  -1.5986428701037E+00
(PID.TID 0000.0001) %MON dynstat_eta_mean             =   2.6619859181325E-02
(PID.TID 0000.0001) %MON dynstat_eta_sd               =   6.1639690291969E-01
(PID.TID 0000.0001) %MON dynstat_eta_del2             =   2.4448816563720E-03
(PID.TID 0000.0001) %MON dynstat_uvel_max             =   3.2391669836659E-01
(PID.TID 0000.0001) %MON dynstat_uvel_min             =  -5.6223155130025E-01
(PID.TID 0000.0001) %MON dynstat_uvel_mean            =  -5.2294529088288E-04
(PID.TID 0000.0001) %MON dynstat_uvel_sd              =   1.2686041206895E-02
(PID.TID 0000.0001) %MON dynstat_uvel_del2            =   9.0879290099458E-05
(PID.TID 0000.0001) %MON dynstat_vvel_max             =   4.2029062766322E-01
(PID.TID 0000.0001) %MON dynstat_vvel_min             =  -4.9199219650294E-01
(PID.TID 0000.0001) %MON dynstat_vvel_mean            =   2.5820080163981E-04
(PID.TID 0000.0001) %MON dynstat_vvel_sd              =   1.3743955620977E-02
(PID.TID 0000.0001) %MON dynstat_vvel_del2            =   8.6024014033792E-05
(PID.TID 0000.0001) %MON dynstat_wvel_max             =   1.5497072766231E-04
(PID.TID 0000.0001) %MON dynstat_wvel_min             =  -1.9272647773835E-04
(PID.TID 0000.0001) %MON dynstat_wvel_mean            =  -2.3370263607370E-07
(PID.TID 0000.0001) %MON dynstat_wvel_sd              =   7.9201007940059E-06
(PID.TID 0000.0001) %MON dynstat_wvel_del2            =   7.6929697286668E-08
(PID.TID 0000.0001) %MON dynstat_theta_max            =   3.0926209735264E+01
(PID.TID 0000.0001) %MON dynstat_theta_min            =  -3.0044717736162E+00
(PID.TID 0000.0001) %MON dynstat_theta_mean           =   3.9091431775867E+00
(PID.TID 0000.0001) %MON dynstat_theta_sd             =   4.5714382039885E+00
(PID.TID 0000.0001) %MON dynstat_theta_del2           =   2.6429720125646E-03
(PID.TID 0000.0001) %MON dynstat_salt_max             =   4.1350853925737E+01
(PID.TID 0000.0001) %MON dynstat_salt_min             =   1.8518878168200E+01
(PID.TID 0000.0001) %MON dynstat_salt_mean            =   3.4771966984419E+01
(PID.TID 0000.0001) %MON dynstat_salt_sd              =   5.3180764719755E-01
(PID.TID 0000.0001) %MON dynstat_salt_del2            =   1.0249152271091E-03
(PID.TID 0000.0001) %MON dynstat_sst_max              =   3.0926209735264E+01
(PID.TID 0000.0001) %MON dynstat_sst_min              =  -1.8969761070130E+00
(PID.TID 0000.0001) %MON dynstat_sst_mean             =   1.8107984056784E+01
(PID.TID 0000.0001) %MON dynstat_sst_sd               =   9.8108704653965E+00
(PID.TID 0000.0001) %MON dynstat_sst_del2             =   1.5050061323403E-02
(PID.TID 0000.0001) %MON dynstat_sss_max              =   4.1350853925737E+01
(PID.TID 0000.0001) %MON dynstat_sss_min              =   1.8751715138158E+01
(PID.TID 0000.0001) %MON dynstat_sss_mean             =   3.4625450945505E+01
(PID.TID 0000.0001) %MON dynstat_sss_sd               =   1.4787732797043E+00
(PID.TID 0000.0001) %MON dynstat_sss_del2             =   1.1325000766059E-02
(PID.TID 0000.0001) %MON forcing_qnet_max             =   1.2797485387952E+04
(PID.TID 0000.0001) %MON forcing_qnet_min             =  -1.3520938084207E+03
(PID.TID 0000.0001) %MON forcing_qnet_mean            =   2.2782767119397E+01
(PID.TID 0000.0001) %MON forcing_qnet_sd              =   2.9204557141976E+02
(PID.TID 0000.0001) %MON forcing_qnet_del2            =   1.1461978220458E+01
(PID.TID 0000.0001) %MON forcing_qsw_max              =   0.0000000000000E+00
(PID.TID 0000.0001) %MON forcing_qsw_min              =  -1.0701264315205E+02
(PID.TID 0000.0001) %MON forcing_qsw_mean             =  -1.3160418493308E+01
(PID.TID 0000.0001) %MON forcing_qsw_sd               =   2.3308579974896E+01
(PID.TID 0000.0001) %MON forcing_qsw_del2             =   1.9274062073865E-01
(PID.TID 0000.0001) %MON forcing_empmr_max            =   6.6773816943169E-03
(PID.TID 0000.0001) %MON forcing_empmr_min            =  -9.5987297594547E-02
(PID.TID 0000.0001) %MON forcing_empmr_mean           =  -2.8957406203509E-04
(PID.TID 0000.0001) %MON forcing_empmr_sd             =   4.2299802195010E-03
(PID.TID 0000.0001) %MON forcing_empmr_del2           =   1.6689356997855E-04
(PID.TID 0000.0001) %MON forcing_fu_max               =   3.7883321078097E-01
(PID.TID 0000.0001) %MON forcing_fu_min               =  -3.6049254619597E-01
(PID.TID 0000.0001) %MON forcing_fu_mean              =  -3.6018324229147E-03
(PID.TID 0000.0001) %MON forcing_fu_sd                =   6.2493180437306E-02
(PID.TID 0000.0001) %MON forcing_fu_del2              =   6.1689823760642E-04
(PID.TID 0000.0001) %MON forcing_fv_max               =   3.2862722722773E-01
(PID.TID 0000.0001) %MON forcing_fv_min               =  -2.9491035141755E-01
(PID.TID 0000.0001) %MON forcing_fv_mean              =  -1.4722613995320E-02
(PID.TID 0000.0001) %MON forcing_fv_sd                =   6.3579217919359E-02
(PID.TID 0000.0001) %MON forcing_fv_del2              =   5.4573565687374E-04
(PID.TID 0000.0001) %MON trAdv_CFL_u_max              =   1.5985700691014E-03
(PID.TID 0000.0001) %MON trAdv_CFL_v_max              =   1.4782099752952E-03
(PID.TID 0000.0001) %MON trAdv_CFL_w_max              =   1.7608518599189E-03
(PID.TID 0000.0001) %MON advcfl_uvel_max              =   1.5993790189881E-03
(PID.TID 0000.0001) %MON advcfl_vvel_max              =   1.4384406521495E-03
(PID.TID 0000.0001) %MON advcfl_wvel_max              =   3.3386886119843E-03
(PID.TID 0000.0001) %MON advcfl_W_hf_max              =   1.9924909605248E-03
(PID.TID 0000.0001) %MON pe_b_mean                    =   5.0709751851527E-04
(PID.TID 0000.0001) %MON ke_max                       =   1.6984309066135E-01
(PID.TID 0000.0001) %MON ke_mean                      =   1.6172808506999E-04
(PID.TID 0000.0001) %MON ke_vol                       =   1.3398120403485E+18
(PID.TID 0000.0001) %MON vort_r_min                   =  -3.3605063450524E-06
(PID.TID 0000.0001) %MON vort_r_max                   =   2.4101969316922E-06
(PID.TID 0000.0001) %MON vort_a_mean                  =  -2.0549865324846E-05
(PID.TID 0000.0001) %MON vort_a_sd                    =   7.5259656716014E-05
(PID.TID 0000.0001) %MON vort_p_mean                  =  -2.4783295750944E-05
(PID.TID 0000.0001) %MON vort_p_sd                    =   1.2811900992052E-04
(PID.TID 0000.0001) %MON surfExpan_theta_mean         =  -6.5521616567010E-06
(PID.TID 0000.0001) %MON surfExpan_salt_mean          =   1.1642829102873E-06
(PID.TID 0000.0001) // =======================================================
(PID.TID 0000.0001) // End MONITOR dynamic field statistics
(PID.TID 0000.0001) // =======================================================
 cg2d: Sum(rhs),rhsMax =  -3.48602304494385E+01  6.63331641126884E+01
(PID.TID 0000.0001)      cg2d_init_res =   1.39112639261358E-01
(PID.TID 0000.0001)      cg2d_iters(min,last) =      -1      10
(PID.TID 0000.0001)      cg2d_last_res =   7.72072949164616E-08
(PID.TID 0000.0001) // =======================================================
(PID.TID 0000.0001) // Begin MONITOR dynamic field statistics
(PID.TID 0000.0001) // =======================================================
(PID.TID 0000.0001) %MON time_tsnumber                =                 72051
(PID.TID 0000.0001) %MON time_secondsf                =   6.4845900000000E+07
(PID.TID 0000.0001) %MON dynstat_eta_max              =   2.9543506813330E+00
(PID.TID 0000.0001) %MON dynstat_eta_min              =  -1.5967938675139E+00
(PID.TID 0000.0001) %MON dynstat_eta_mean             =   2.6869658126661E-02
(PID.TID 0000.0001) %MON dynstat_eta_sd               =   6.1599346746795E-01
(PID.TID 0000.0001) %MON dynstat_eta_del2             =   2.3968416360087E-03
(PID.TID 0000.0001) %MON dynstat_uvel_max             =   3.1150869433625E-01
(PID.TID 0000.0001) %MON dynstat_uvel_min             =  -5.6711380721641E-01
(PID.TID 0000.0001) %MON dynstat_uvel_mean            =  -5.1446831034906E-04
(PID.TID 0000.0001) %MON dynstat_uvel_sd              =   1.2679258765787E-02
(PID.TID 0000.0001) %MON dynstat_uvel_del2            =   9.1936750639067E-05
(PID.TID 0000.0001) %MON dynstat_vvel_max             =   4.5797741329769E-01
(PID.TID 0000.0001) %MON dynstat_vvel_min             =  -5.1973852705319E-01
(PID.TID 0000.0001) %MON dynstat_vvel_mean            =   2.9969572517326E-04
(PID.TID 0000.0001) %MON dynstat_vvel_sd              =   1.3775390354177E-02
(PID.TID 0000.0001) %MON dynstat_vvel_del2            =   8.6093590472307E-05
(PID.TID 0000.0001) %MON dynstat_wvel_max             =   1.5103862764749E-04
(PID.TID 0000.0001) %MON dynstat_wvel_min             =  -1.9204663961068E-04
(PID.TID 0000.0001) %MON dynstat_wvel_mean            =  -2.5643465894650E-07
(PID.TID 0000.0001) %MON dynstat_wvel_sd              =   7.9511082243561E-06
(PID.TID 0000.0001) %MON dynstat_wvel_del2            =   7.7338245574380E-08
(PID.TID 0000.0001) %MON dynstat_theta_max            =   3.0926246908792E+01
(PID.TID 0000.0001) %MON dynstat_theta_min            =  -3.0046283503061E+00
(PID.TID 0000.0001) %MON dynstat_theta_mean           =   3.9091437103586E+00
(PID.TID 0000.0001) %MON dynstat_theta_sd             =   4.5714402382893E+00
(PID.TID 0000.0001) %MON dynstat_theta_del2           =   2.6428034774574E-03
(PID.TID 0000.0001) %MON dynstat_salt_max             =   4.1350526942662E+01
(PID.TID 0000.0001) %MON dynstat_salt_min             =   1.8518888521814E+01
(PID.TID 0000.0001) %MON dynstat_salt_mean            =   3.4771964304607E+01
(PID.TID 0000.0001) %MON dynstat_salt_sd              =   5.3182411916029E-01
(PID.TID 0000.0001) %MON dynstat_salt_del2            =   1.0291389336044E-03
(PID.TID 0000.0001) %MON dynstat_sst_max              =   3.0926246908792E+01
(PID.TID 0000.0001) %MON dynstat_sst_min              =  -1.8970072106205E+00
(PID.TID 0000.0001) %MON dynstat_sst_mean             =   1.8107937576606E+01
(PID.TID 0000.0001) %MON dynstat_sst_sd               =   9.8109515221380E+00
(PID.TID 0000.0001) %MON dynstat_sst_del2             =   1.5047084499321E-02
(PID.TID 0000.0001) %MON dynstat_sss_max              =   4.1350526942662E+01
(PID.TID 0000.0001) %MON dynstat_sss_min              =   1.8751759277038E+01
(PID.TID 0000.0001) %MON dynstat_sss_mean             =   3.4625265117639E+01
(PID.TID 0000.0001) %MON dynstat_sss_sd               =   1.4791909128667E+00
(PID.TID 0000.0001) %MON dynstat_sss_del2             =   1.1385317539582E-02
(PID.TID 0000.0001) %MON forcing_qnet_max             =   4.3337669889361E+03
(PID.TID 0000.0001) %MON forcing_qnet_min             =  -1.3328661718736E+03
(PID.TID 0000.0001) %MON forcing_qnet_mean            =   1.8781394053750E+01
(PID.TID 0000.0001) %MON forcing_qnet_sd              =   2.0793100539522E+02
(PID.TID 0000.0001) %MON forcing_qnet_del2            =   4.9995939971046E+00
(PID.TID 0000.0001) %MON forcing_qsw_max              =   0.0000000000000E+00
(PID.TID 0000.0001) %MON forcing_qsw_min              =  -1.0526314794572E+02
(PID.TID 0000.0001) %MON forcing_qsw_mean             =  -1.3245554232072E+01
(PID.TID 0000.0001) %MON forcing_qsw_sd               =   2.3190410501805E+01
(PID.TID 0000.0001) %MON forcing_qsw_del2             =   1.9279555254126E-01
(PID.TID 0000.0001) %MON forcing_empmr_max            =   6.6084996797144E-03
(PID.TID 0000.0001) %MON forcing_empmr_min            =  -9.4998016953468E-02
(PID.TID 0000.0001) %MON forcing_empmr_mean           =  -2.8726878713672E-04
(PID.TID 0000.0001) %MON forcing_empmr_sd             =   4.1879615907282E-03
(PID.TID 0000.0001) %MON forcing_empmr_del2           =   1.6524392591672E-04
(PID.TID 0000.0001) %MON forcing_fu_max               =   3.8319222744248E-01
(PID.TID 0000.0001) %MON forcing_fu_min               =  -3.5909395194875E-01
(PID.TID 0000.0001) %MON forcing_fu_mean              =  -3.5686258490571E-03
(PID.TID 0000.0001) %MON forcing_fu_sd                =   6.2514169894463E-02
(PID.TID 0000.0001) %MON forcing_fu_del2              =   6.1797573052695E-04
(PID.TID 0000.0001) %MON forcing_fv_max               =   3.2865131960093E-01
(PID.TID 0000.0001) %MON forcing_fv_min               =  -2.9436568195801E-01
(PID.TID 0000.0001) %MON forcing_fv_mean              =  -1.4828763091662E-02
(PID.TID 0000.0001) %MON forcing_fv_sd                =   6.3466805911875E-02
(PID.TID 0000.0001) %MON forcing_fv_del2              =   5.4611635467469E-04
(PID.TID 0000.0001) %MON trAdv_CFL_u_max              =   1.6490592473332E-03
(PID.TID 0000.0001) %MON trAdv_CFL_v_max              =   1.5648895863626E-03
(PID.TID 0000.0001) %MON trAdv_CFL_w_max              =   1.8037703762228E-03
(PID.TID 0000.0001) %MON advcfl_uvel_max              =   1.6480379153438E-03
(PID.TID 0000.0001) %MON advcfl_vvel_max              =   1.5195627717587E-03
(PID.TID 0000.0001) %MON advcfl_wvel_max              =   3.3042788505554E-03
(PID.TID 0000.0001) %MON advcfl_W_hf_max              =   1.9419321917210E-03
(PID.TID 0000.0001) %MON pe_b_mean                    =   5.0645293973601E-04
(PID.TID 0000.0001) %MON ke_max                       =   1.8003675584278E-01
(PID.TID 0000.0001) %MON ke_mean                      =   1.6205715617735E-04
(PID.TID 0000.0001) %MON ke_vol                       =   1.3398121319765E+18
(PID.TID 0000.0001) %MON vort_r_min                   =  -3.5153252645348E-06
(PID.TID 0000.0001) %MON vort_r_max                   =   2.4655527882571E-06
(PID.TID 0000.0001) %MON vort_a_mean                  =  -2.0549865324846E-05
(PID.TID 0000.0001) %MON vort_a_sd                    =   7.5259667073254E-05
(PID.TID 0000.0001) %MON vort_p_mean                  =  -2.4783293851303E-05
(PID.TID 0000.0001) %MON vort_p_sd                    =   1.2811899528252E-04
(PID.TID 0000.0001) %MON surfExpan_theta_mean         =  -6.6571271981841E-06
(PID.TID 0000.0001) %MON surfExpan_salt_mean          =   1.1936161731250E-06
(PID.TID 0000.0001) // =======================================================
(PID.TID 0000.0001) // End MONITOR dynamic field statistics
(PID.TID 0000.0001) // =======================================================
 Computing Diagnostic #     81  oceTAUX      Counter:       1   Parms: UU      U1      
           Vector  Mate for  oceTAUX      Diagnostic #     82  oceTAUY  exists 
 Computing Diagnostic #     82  oceTAUY      Counter:       1   Parms: VV      U1      
           Vector  Mate for  oceTAUY      Diagnostic #     81  oceTAUX  exists 
 Computing Diagnostic #     85  oceFWflx     Counter:       1   Parms: SM      U1      
 Computing Diagnostic #     86  oceSflux     Counter:       1   Parms: SM      U1      
 Computing Diagnostic #     87  oceQnet      Counter:       1   Parms: SM      U1      
 Computing Diagnostic #     88  oceQsw       Counter:       1   Parms: SM      U1      
 Computing Diagnostic #     27  SALT         Counter:       1   Parms: SMR     MR      
 Computing Diagnostic #     26  THETA        Counter:       1   Parms: SMR     MR      
 Computing Diagnostic #     45  UVELMASS     Counter:       1   Parms: UUr     MR      
           Vector  Mate for  UVELMASS     Diagnostic #     46  VVELMASS exists 
 Computing Diagnostic #     46  VVELMASS     Counter:       1   Parms: VVr     MR      
           Vector  Mate for  VVELMASS     Diagnostic #     45  UVELMASS exists 
 Computing Diagnostic #     83  atmPload     Counter:       1   Parms: SM      U1      
 cg2d: Sum(rhs),rhsMax =  -3.60001651092088E+01  6.48253512737610E+01
(PID.TID 0000.0001)      cg2d_init_res =   1.45141070997455E-01
(PID.TID 0000.0001)      cg2d_iters(min,last) =      -1      10
(PID.TID 0000.0001)      cg2d_last_res =   7.78450935213888E-08
(PID.TID 0000.0001) // =======================================================
(PID.TID 0000.0001) // Begin MONITOR dynamic field statistics
(PID.TID 0000.0001) // =======================================================
(PID.TID 0000.0001) %MON time_tsnumber                =                 72052
(PID.TID 0000.0001) %MON time_secondsf                =   6.4846800000000E+07
(PID.TID 0000.0001) %MON dynstat_eta_max              =   2.8872171688517E+00
(PID.TID 0000.0001) %MON dynstat_eta_min              =  -1.5950472768920E+00
(PID.TID 0000.0001) %MON dynstat_eta_mean             =   2.7117555933463E-02
(PID.TID 0000.0001) %MON dynstat_eta_sd               =   6.1554075244324E-01
(PID.TID 0000.0001) %MON dynstat_eta_del2             =   2.3306336573957E-03
(PID.TID 0000.0001) %MON dynstat_uvel_max             =   2.9767290671951E-01
(PID.TID 0000.0001) %MON dynstat_uvel_min             =  -5.8779447500494E-01
(PID.TID 0000.0001) %MON dynstat_uvel_mean            =  -5.0354121144665E-04
(PID.TID 0000.0001) %MON dynstat_uvel_sd              =   1.2682396738336E-02
(PID.TID 0000.0001) %MON dynstat_uvel_del2            =   9.3012712148036E-05
(PID.TID 0000.0001) %MON dynstat_vvel_max             =   4.8836219252733E-01
(PID.TID 0000.0001) %MON dynstat_vvel_min             =  -5.4558610252374E-01
(PID.TID 0000.0001) %MON dynstat_vvel_mean            =   3.3821102111293E-04
(PID.TID 0000.0001) %MON dynstat_vvel_sd              =   1.3806882809032E-02
(PID.TID 0000.0001) %MON dynstat_vvel_del2            =   8.6919281595899E-05
(PID.TID 0000.0001) %MON dynstat_wvel_max             =   1.4744960175371E-04
(PID.TID 0000.0001) %MON dynstat_wvel_min             =  -1.9179778189748E-04
(PID.TID 0000.0001) %MON dynstat_wvel_mean            =  -2.7682913529581E-07
(PID.TID 0000.0001) %MON dynstat_wvel_sd              =   7.9849900410863E-06
(PID.TID 0000.0001) %MON dynstat_wvel_del2            =   7.7688772124602E-08
(PID.TID 0000.0001) %MON dynstat_theta_max            =   3.0926270613679E+01
(PID.TID 0000.0001) %MON dynstat_theta_min            =  -3.0048139106947E+00
(PID.TID 0000.0001) %MON dynstat_theta_mean           =   3.9091443356839E+00
(PID.TID 0000.0001) %MON dynstat_theta_sd             =   4.5714423816002E+00
(PID.TID 0000.0001) %MON dynstat_theta_del2           =   2.6426509714014E-03
(PID.TID 0000.0001) %MON dynstat_salt_max             =   4.1350211548249E+01
(PID.TID 0000.0001) %MON dynstat_salt_min             =   1.8518898860799E+01
(PID.TID 0000.0001) %MON dynstat_salt_mean            =   3.4771961679122E+01
(PID.TID 0000.0001) %MON dynstat_salt_sd              =   5.3184039672089E-01
(PID.TID 0000.0001) %MON dynstat_salt_del2            =   1.0332958634472E-03
(PID.TID 0000.0001) %MON dynstat_sst_max              =   3.0926270613679E+01
(PID.TID 0000.0001) %MON dynstat_sst_min              =  -1.8970554899572E+00
(PID.TID 0000.0001) %MON dynstat_sst_mean             =   1.8107889772907E+01
(PID.TID 0000.0001) %MON dynstat_sst_sd               =   9.8110258200827E+00
(PID.TID 0000.0001) %MON dynstat_sst_del2             =   1.5044281882190E-02
(PID.TID 0000.0001) %MON dynstat_sss_max              =   4.1350211548249E+01
(PID.TID 0000.0001) %MON dynstat_sss_min              =   1.8751796149731E+01
(PID.TID 0000.0001) %MON dynstat_sss_mean             =   3.4625079972297E+01
(PID.TID 0000.0001) %MON dynstat_sss_sd               =   1.4796015742711E+00
(PID.TID 0000.0001) %MON dynstat_sss_del2             =   1.1444604092672E-02
(PID.TID 0000.0001) %MON forcing_qnet_max             =   2.1410913085938E+03
(PID.TID 0000.0001) %MON forcing_qnet_min             =  -1.3139050244552E+03
(PID.TID 0000.0001) %MON forcing_qnet_mean            =   1.6964677354206E+01
(PID.TID 0000.0001) %MON forcing_qnet_sd              =   1.9699009593465E+02
(PID.TID 0000.0001) %MON forcing_qnet_del2            =   4.0047609938064E+00
(PID.TID 0000.0001) %MON forcing_qsw_max              =   0.0000000000000E+00
(PID.TID 0000.0001) %MON forcing_qsw_min              =  -1.0307800612122E+02
(PID.TID 0000.0001) %MON forcing_qsw_mean             =  -1.3295695460420E+01
(PID.TID 0000.0001) %MON forcing_qsw_sd               =   2.3063915082271E+01
(PID.TID 0000.0001) %MON forcing_qsw_del2             =   1.9257943479171E-01
(PID.TID 0000.0001) %MON forcing_empmr_max            =   6.5404041670263E-03
(PID.TID 0000.0001) %MON forcing_empmr_min            =  -9.4019643962383E-02
(PID.TID 0000.0001) %MON forcing_empmr_mean           =  -2.8508247782230E-04
(PID.TID 0000.0001) %MON forcing_empmr_sd             =   4.1469180917173E-03
(PID.TID 0000.0001) %MON forcing_empmr_del2           =   1.6359677370354E-04
(PID.TID 0000.0001) %MON forcing_fu_max               =   3.8540213632214E-01
(PID.TID 0000.0001) %MON forcing_fu_min               =  -3.5646668843112E-01
(PID.TID 0000.0001) %MON forcing_fu_mean              =  -3.5506592307645E-03
(PID.TID 0000.0001) %MON forcing_fu_sd                =   6.2800535334101E-02
(PID.TID 0000.0001) %MON forcing_fu_del2              =   6.2110348667443E-04
(PID.TID 0000.0001) %MON forcing_fv_max               =   3.2714089701593E-01
(PID.TID 0000.0001) %MON forcing_fv_min               =  -2.9372384897765E-01
(PID.TID 0000.0001) %MON forcing_fv_mean              =  -1.4886770859000E-02
(PID.TID 0000.0001) %MON forcing_fv_sd                =   6.3354596952916E-02
(PID.TID 0000.0001) %MON forcing_fv_del2              =   5.4536491692022E-04
(PID.TID 0000.0001) %MON trAdv_CFL_u_max              =   1.7092407347387E-03
(PID.TID 0000.0001) %MON trAdv_CFL_v_max              =   1.6335142580931E-03
(PID.TID 0000.0001) %MON trAdv_CFL_w_max              =   1.8387806307155E-03
(PID.TID 0000.0001) %MON advcfl_uvel_max              =   1.7081361252559E-03
(PID.TID 0000.0001) %MON advcfl_vvel_max              =   1.5951334893038E-03
(PID.TID 0000.0001) %MON advcfl_wvel_max              =   3.2702484856481E-03
(PID.TID 0000.0001) %MON advcfl_W_hf_max              =   1.8957855611695E-03
(PID.TID 0000.0001) %MON pe_b_mean                    =   5.0572800133318E-04
(PID.TID 0000.0001) %MON ke_max                       =   1.8987464841991E-01
(PID.TID 0000.0001) %MON ke_mean                      =   1.6250307074943E-04
(PID.TID 0000.0001) %MON ke_vol                       =   1.3398122228750E+18
(PID.TID 0000.0001) %MON vort_r_min                   =  -3.6657460099326E-06
(PID.TID 0000.0001) %MON vort_r_max                   =   2.5095622262213E-06
(PID.TID 0000.0001) %MON vort_a_mean                  =  -2.0549865324846E-05
(PID.TID 0000.0001) %MON vort_a_sd                    =   7.5259676857778E-05
(PID.TID 0000.0001) %MON vort_p_mean                  =  -2.4783291900977E-05
(PID.TID 0000.0001) %MON vort_p_sd                    =   1.2811898314169E-04
(PID.TID 0000.0001) %MON surfExpan_theta_mean         =  -6.7676720995053E-06
(PID.TID 0000.0001) %MON surfExpan_salt_mean          =   1.2226493103321E-06
(PID.TID 0000.0001) // =======================================================
(PID.TID 0000.0001) // End MONITOR dynamic field statistics
(PID.TID 0000.0001) // =======================================================
 cg2d: Sum(rhs),rhsMax =  -3.73956715635634E+01  6.29727294440876E+01
(PID.TID 0000.0001)      cg2d_init_res =   1.53595893307720E-01
(PID.TID 0000.0001)      cg2d_iters(min,last) =      -1      10
(PID.TID 0000.0001)      cg2d_last_res =   7.86913061686596E-08
(PID.TID 0000.0001) // =======================================================
(PID.TID 0000.0001) // Begin MONITOR dynamic field statistics
(PID.TID 0000.0001) // =======================================================
(PID.TID 0000.0001) %MON time_tsnumber                =                 72053
(PID.TID 0000.0001) %MON time_secondsf                =   6.4847700000000E+07
(PID.TID 0000.0001) %MON dynstat_eta_max              =   2.8047698695818E+00
(PID.TID 0000.0001) %MON dynstat_eta_min              =  -1.5934515166014E+00
(PID.TID 0000.0001) %MON dynstat_eta_mean             =   2.7363713048397E-02
(PID.TID 0000.0001) %MON dynstat_eta_sd               =   6.1505202811218E-01
(PID.TID 0000.0001) %MON dynstat_eta_del2             =   2.2484034162027E-03
(PID.TID 0000.0001) %MON dynstat_uvel_max             =   3.4941484455223E-01
(PID.TID 0000.0001) %MON dynstat_uvel_min             =  -6.0890595738473E-01
(PID.TID 0000.0001) %MON dynstat_uvel_mean            =  -4.9046073571002E-04
(PID.TID 0000.0001) %MON dynstat_uvel_sd              =   1.2695012370312E-02
(PID.TID 0000.0001) %MON dynstat_uvel_del2            =   9.4064913161878E-05
(PID.TID 0000.0001) %MON dynstat_vvel_max             =   5.3541944269949E-01
(PID.TID 0000.0001) %MON dynstat_vvel_min             =  -5.6927671562785E-01
(PID.TID 0000.0001) %MON dynstat_vvel_mean            =   3.7354314372806E-04
(PID.TID 0000.0001) %MON dynstat_vvel_sd              =   1.3836575624408E-02
(PID.TID 0000.0001) %MON dynstat_vvel_del2            =   8.8360708884113E-05
(PID.TID 0000.0001) %MON dynstat_wvel_max             =   1.4408599378622E-04
(PID.TID 0000.0001) %MON dynstat_wvel_min             =  -1.9158470220178E-04
(PID.TID 0000.0001) %MON dynstat_wvel_mean            =  -2.9444333993944E-07
(PID.TID 0000.0001) %MON dynstat_wvel_sd              =   8.0180166324725E-06
(PID.TID 0000.0001) %MON dynstat_wvel_del2            =   7.7949184950058E-08
(PID.TID 0000.0001) %MON dynstat_theta_max            =   3.0926280434706E+01
(PID.TID 0000.0001) %MON dynstat_theta_min            =  -3.0050227806097E+00
(PID.TID 0000.0001) %MON dynstat_theta_mean           =   3.9091451209370E+00
(PID.TID 0000.0001) %MON dynstat_theta_sd             =   4.5714449346316E+00
(PID.TID 0000.0001) %MON dynstat_theta_del2           =   2.6425023959573E-03
(PID.TID 0000.0001) %MON dynstat_salt_max             =   4.1349909445088E+01
(PID.TID 0000.0001) %MON dynstat_salt_min             =   1.8518909187686E+01
(PID.TID 0000.0001) %MON dynstat_salt_mean            =   3.4771959097801E+01
(PID.TID 0000.0001) %MON dynstat_salt_sd              =   5.3185647032750E-01
(PID.TID 0000.0001) %MON dynstat_salt_del2            =   1.0373841930813E-03
(PID.TID 0000.0001) %MON dynstat_sst_max              =   3.0926280434706E+01
(PID.TID 0000.0001) %MON dynstat_sst_min              =  -1.8971192779127E+00
(PID.TID 0000.0001) %MON dynstat_sst_mean             =   1.8107853692444E+01
(PID.TID 0000.0001) %MON dynstat_sst_sd               =   9.8110972345242E+00
(PID.TID 0000.0001) %MON dynstat_sst_del2             =   1.5041534623134E-02
(PID.TID 0000.0001) %MON dynstat_sss_max              =   4.1349909445088E+01
(PID.TID 0000.0001) %MON dynstat_sss_min              =   1.8751829339956E+01
(PID.TID 0000.0001) %MON dynstat_sss_mean             =   3.4624897393503E+01
(PID.TID 0000.0001) %MON dynstat_sss_sd               =   1.4800069045855E+00
(PID.TID 0000.0001) %MON dynstat_sss_del2             =   1.1502846975831E-02
(PID.TID 0000.0001) %MON forcing_qnet_max             =   2.1146330566406E+03
(PID.TID 0000.0001) %MON forcing_qnet_min             =  -3.4428361816406E+03
(PID.TID 0000.0001) %MON forcing_qnet_mean            =   1.3960410984762E+01
(PID.TID 0000.0001) %MON forcing_qnet_sd              =   2.0073791148240E+02
(PID.TID 0000.0001) %MON forcing_qnet_del2            =   4.7525072418721E+00
(PID.TID 0000.0001) %MON forcing_qsw_max              =   0.0000000000000E+00
(PID.TID 0000.0001) %MON forcing_qsw_min              =  -9.7787280772085E+01
(PID.TID 0000.0001) %MON forcing_qsw_mean             =  -1.3548947828784E+01
(PID.TID 0000.0001) %MON forcing_qsw_sd               =   2.2976816354779E+01
(PID.TID 0000.0001) %MON forcing_qsw_del2             =   1.9366079169419E-01
(PID.TID 0000.0001) %MON forcing_empmr_max            =   6.4729973673820E-03
(PID.TID 0000.0001) %MON forcing_empmr_min            =  -9.3051336705685E-02
(PID.TID 0000.0001) %MON forcing_empmr_mean           =  -2.8308068217350E-04
(PID.TID 0000.0001) %MON forcing_empmr_sd             =   4.1073163164004E-03
(PID.TID 0000.0001) %MON forcing_empmr_del2           =   1.6201010329836E-04
(PID.TID 0000.0001) %MON forcing_fu_max               =   3.8847443896294E-01
(PID.TID 0000.0001) %MON forcing_fu_min               =  -3.5213349299702E-01
(PID.TID 0000.0001) %MON forcing_fu_mean              =  -3.5300719393189E-03
(PID.TID 0000.0001) %MON forcing_fu_sd                =   6.3024451793959E-02
(PID.TID 0000.0001) %MON forcing_fu_del2              =   6.2352421489892E-04
(PID.TID 0000.0001) %MON forcing_fv_max               =   3.2753098283510E-01
(PID.TID 0000.0001) %MON forcing_fv_min               =  -2.9274296224829E-01
(PID.TID 0000.0001) %MON forcing_fv_mean              =  -1.4898216736303E-02
(PID.TID 0000.0001) %MON forcing_fv_sd                =   6.3324979778725E-02
(PID.TID 0000.0001) %MON forcing_fv_del2              =   5.4532776063143E-04
(PID.TID 0000.0001) %MON trAdv_CFL_u_max              =   1.7707350619253E-03
(PID.TID 0000.0001) %MON trAdv_CFL_v_max              =   1.7643300219549E-03
(PID.TID 0000.0001) %MON trAdv_CFL_w_max              =   1.8657984365704E-03
(PID.TID 0000.0001) %MON advcfl_uvel_max              =   1.7694862863140E-03
(PID.TID 0000.0001) %MON advcfl_vvel_max              =   1.7472689466095E-03
(PID.TID 0000.0001) %MON advcfl_wvel_max              =   3.2365682332412E-03
(PID.TID 0000.0001) %MON advcfl_W_hf_max              =   1.8657984365704E-03
(PID.TID 0000.0001) %MON pe_b_mean                    =   5.0494463549523E-04
(PID.TID 0000.0001) %MON ke_max                       =   1.9936655208123E-01
(PID.TID 0000.0001) %MON ke_mean                      =   1.6303672148030E-04
(PID.TID 0000.0001) %MON ke_vol                       =   1.3398123130817E+18
(PID.TID 0000.0001) %MON vort_r_min                   =  -3.8106098306023E-06
(PID.TID 0000.0001) %MON vort_r_max                   =   2.5428457726470E-06
(PID.TID 0000.0001) %MON vort_a_mean                  =  -2.0549865324846E-05
(PID.TID 0000.0001) %MON vort_a_sd                    =   7.5259686018313E-05
(PID.TID 0000.0001) %MON vort_p_mean                  =  -2.4783289904626E-05
(PID.TID 0000.0001) %MON vort_p_sd                    =   1.2811897402196E-04
(PID.TID 0000.0001) %MON surfExpan_theta_mean         =  -6.8713008812170E-06
(PID.TID 0000.0001) %MON surfExpan_salt_mean          =   1.2487790910510E-06
(PID.TID 0000.0001) // =======================================================
(PID.TID 0000.0001) // End MONITOR dynamic field statistics
(PID.TID 0000.0001) // =======================================================
 cg2d: Sum(rhs),rhsMax =  -3.90841155686225E+01  6.07917215818291E+01
(PID.TID 0000.0001)      cg2d_init_res =   1.64111796505016E-01
(PID.TID 0000.0001)      cg2d_iters(min,last) =      -1      10
(PID.TID 0000.0001)      cg2d_last_res =   7.95017249491509E-08
(PID.TID 0000.0001) // =======================================================
(PID.TID 0000.0001) // Begin MONITOR dynamic field statistics
(PID.TID 0000.0001) // =======================================================
(PID.TID 0000.0001) %MON time_tsnumber                =                 72054
(PID.TID 0000.0001) %MON time_secondsf                =   6.4848600000000E+07
(PID.TID 0000.0001) %MON dynstat_eta_max              =   2.7077355224612E+00
(PID.TID 0000.0001) %MON dynstat_eta_min              =  -1.5920254891561E+00
(PID.TID 0000.0001) %MON dynstat_eta_mean             =   2.7608696621013E-02
(PID.TID 0000.0001) %MON dynstat_eta_sd               =   6.1454275659358E-01
(PID.TID 0000.0001) %MON dynstat_eta_del2             =   2.1528748080741E-03
(PID.TID 0000.0001) %MON dynstat_uvel_max             =   4.3250483702702E-01
(PID.TID 0000.0001) %MON dynstat_uvel_min             =  -6.3030516909047E-01
(PID.TID 0000.0001) %MON dynstat_uvel_mean            =  -4.7556218573061E-04
(PID.TID 0000.0001) %MON dynstat_uvel_sd              =   1.2716252652285E-02
(PID.TID 0000.0001) %MON dynstat_uvel_del2            =   9.5052730396236E-05
(PID.TID 0000.0001) %MON dynstat_vvel_max             =   5.9321307679699E-01
(PID.TID 0000.0001) %MON dynstat_vvel_min             =  -5.9057112242983E-01
(PID.TID 0000.0001) %MON dynstat_vvel_mean            =   4.0554015826341E-04
(PID.TID 0000.0001) %MON dynstat_vvel_sd              =   1.3862878195614E-02
(PID.TID 0000.0001) %MON dynstat_vvel_del2            =   9.0241579298924E-05
(PID.TID 0000.0001) %MON dynstat_wvel_max             =   1.4081399340123E-04
(PID.TID 0000.0001) %MON dynstat_wvel_min             =  -1.9140551639489E-04
(PID.TID 0000.0001) %MON dynstat_wvel_mean            =  -3.0879720066715E-07
(PID.TID 0000.0001) %MON dynstat_wvel_sd              =   8.0468586769685E-06
(PID.TID 0000.0001) %MON dynstat_wvel_del2            =   7.8095388134707E-08
(PID.TID 0000.0001) %MON dynstat_theta_max            =   3.0926282934623E+01
(PID.TID 0000.0001) %MON dynstat_theta_min            =  -3.0052486027359E+00
(PID.TID 0000.0001) %MON dynstat_theta_mean           =   3.9091459197668E+00
(PID.TID 0000.0001) %MON dynstat_theta_sd             =   4.5714474480798E+00
(PID.TID 0000.0001) %MON dynstat_theta_del2           =   2.6423379662735E-03
(PID.TID 0000.0001) %MON dynstat_salt_max             =   4.1349622253783E+01
(PID.TID 0000.0001) %MON dynstat_salt_min             =   1.8518919505007E+01
(PID.TID 0000.0001) %MON dynstat_salt_mean            =   3.4771956538342E+01
(PID.TID 0000.0001) %MON dynstat_salt_sd              =   5.3187229722521E-01
(PID.TID 0000.0001) %MON dynstat_salt_del2            =   1.0414013700531E-03
(PID.TID 0000.0001) %MON dynstat_sst_max              =   3.0926282934623E+01
(PID.TID 0000.0001) %MON dynstat_sst_min              =  -1.8971977655932E+00
(PID.TID 0000.0001) %MON dynstat_sst_mean             =   1.8107818770725E+01
(PID.TID 0000.0001) %MON dynstat_sst_sd               =   9.8111658102859E+00
(PID.TID 0000.0001) %MON dynstat_sst_del2             =   1.5038507650746E-02
(PID.TID 0000.0001) %MON dynstat_sss_max              =   4.1349622253783E+01
(PID.TID 0000.0001) %MON dynstat_sss_min              =   1.8751860593227E+01
(PID.TID 0000.0001) %MON dynstat_sss_mean             =   3.4624715726006E+01
(PID.TID 0000.0001) %MON dynstat_sss_sd               =   1.4804062643290E+00
(PID.TID 0000.0001) %MON dynstat_sss_del2             =   1.1560033096407E-02
(PID.TID 0000.0001) %MON forcing_qnet_max             =   3.2308413085938E+03
(PID.TID 0000.0001) %MON forcing_qnet_min             =  -1.2780777587891E+03
(PID.TID 0000.0001) %MON forcing_qnet_mean            =   1.3438107281192E+01
(PID.TID 0000.0001) %MON forcing_qnet_sd              =   2.0493200184703E+02
(PID.TID 0000.0001) %MON forcing_qnet_del2            =   4.4536747112754E+00
(PID.TID 0000.0001) %MON forcing_qsw_max              =   0.0000000000000E+00
(PID.TID 0000.0001) %MON forcing_qsw_min              =  -9.8456937254058E+01
(PID.TID 0000.0001) %MON forcing_qsw_mean             =  -1.3698870236667E+01
(PID.TID 0000.0001) %MON forcing_qsw_sd               =   2.3085335854408E+01
(PID.TID 0000.0001) %MON forcing_qsw_del2             =   1.9466230041453E-01
(PID.TID 0000.0001) %MON forcing_empmr_max            =   6.4062797464430E-03
(PID.TID 0000.0001) %MON forcing_empmr_min            =  -9.2092260718346E-02
(PID.TID 0000.0001) %MON forcing_empmr_mean           =  -2.8173110850907E-04
(PID.TID 0000.0001) %MON forcing_empmr_sd             =   4.0705424914028E-03
(PID.TID 0000.0001) %MON forcing_empmr_del2           =   1.6051513536935E-04
(PID.TID 0000.0001) %MON forcing_fu_max               =   3.8978000103343E-01
(PID.TID 0000.0001) %MON forcing_fu_min               =  -3.4810390773307E-01
(PID.TID 0000.0001) %MON forcing_fu_mean              =  -3.4933749363686E-03
(PID.TID 0000.0001) %MON forcing_fu_sd                =   6.3218031281677E-02
(PID.TID 0000.0001) %MON forcing_fu_del2              =   6.2647143137234E-04
(PID.TID 0000.0001) %MON forcing_fv_max               =   3.2576021496865E-01
(PID.TID 0000.0001) %MON forcing_fv_min               =  -2.9136112061540E-01
(PID.TID 0000.0001) %MON forcing_fv_mean              =  -1.4926594562658E-02
(PID.TID 0000.0001) %MON forcing_fv_sd                =   6.3207350544952E-02
(PID.TID 0000.0001) %MON forcing_fv_del2              =   5.4480714304991E-04
(PID.TID 0000.0001) %MON trAdv_CFL_u_max              =   1.8331529078630E-03
(PID.TID 0000.0001) %MON trAdv_CFL_v_max              =   1.9571247519811E-03
(PID.TID 0000.0001) %MON trAdv_CFL_w_max              =   1.8848490020781E-03
(PID.TID 0000.0001) %MON advcfl_uvel_max              =   1.8316725914273E-03
(PID.TID 0000.0001) %MON advcfl_vvel_max              =   1.9358706560677E-03
(PID.TID 0000.0001) %MON advcfl_wvel_max              =   3.2032090684642E-03
(PID.TID 0000.0001) %MON advcfl_W_hf_max              =   1.8848490020781E-03
(PID.TID 0000.0001) %MON pe_b_mean                    =   5.0412833785909E-04
(PID.TID 0000.0001) %MON ke_max                       =   2.0852090474150E-01
(PID.TID 0000.0001) %MON ke_mean                      =   1.6362771198476E-04
(PID.TID 0000.0001) %MON ke_vol                       =   1.3398124026550E+18
(PID.TID 0000.0001) %MON vort_r_min                   =  -3.9486812250603E-06
(PID.TID 0000.0001) %MON vort_r_max                   =   2.5661076683366E-06
(PID.TID 0000.0001) %MON vort_a_mean                  =  -2.0549865324846E-05
(PID.TID 0000.0001) %MON vort_a_sd                    =   7.5259694518911E-05
(PID.TID 0000.0001) %MON vort_p_mean                  =  -2.4783287868825E-05
(PID.TID 0000.0001) %MON vort_p_sd                    =   1.2811896829132E-04
(PID.TID 0000.0001) %MON surfExpan_theta_mean         =  -6.9678344690247E-06
(PID.TID 0000.0001) %MON surfExpan_salt_mean          =   1.2724289883742E-06
(PID.TID 0000.0001) // =======================================================
(PID.TID 0000.0001) // End MONITOR dynamic field statistics
(PID.TID 0000.0001) // =======================================================
 cg2d: Sum(rhs),rhsMax =  -4.11132048569747E+01  5.83023942519221E+01
(PID.TID 0000.0001)      cg2d_init_res =   1.76460989602955E-01
(PID.TID 0000.0001)      cg2d_iters(min,last) =      -1      10
(PID.TID 0000.0001)      cg2d_last_res =   7.99636599236250E-08
(PID.TID 0000.0001) // =======================================================
(PID.TID 0000.0001) // Begin MONITOR dynamic field statistics
(PID.TID 0000.0001) // =======================================================
(PID.TID 0000.0001) %MON time_tsnumber                =                 72055
(PID.TID 0000.0001) %MON time_secondsf                =   6.4849500000000E+07
(PID.TID 0000.0001) %MON dynstat_eta_max              =   2.5970026924143E+00
(PID.TID 0000.0001) %MON dynstat_eta_min              =  -1.5907560112443E+00
(PID.TID 0000.0001) %MON dynstat_eta_mean             =   2.7852802224848E-02
(PID.TID 0000.0001) %MON dynstat_eta_sd               =   6.1402856350608E-01
(PID.TID 0000.0001) %MON dynstat_eta_del2             =   2.0473162144586E-03
(PID.TID 0000.0001) %MON dynstat_uvel_max             =   5.0662243684703E-01
(PID.TID 0000.0001) %MON dynstat_uvel_min             =  -6.5180931634810E-01
(PID.TID 0000.0001) %MON dynstat_uvel_mean            =  -4.5920505465863E-04
(PID.TID 0000.0001) %MON dynstat_uvel_sd              =   1.2744834994852E-02
(PID.TID 0000.0001) %MON dynstat_uvel_del2            =   9.5938711608697E-05
(PID.TID 0000.0001) %MON dynstat_vvel_max             =   6.3892233715126E-01
(PID.TID 0000.0001) %MON dynstat_vvel_min             =  -6.0925339928906E-01
(PID.TID 0000.0001) %MON dynstat_vvel_mean            =   4.3411996725806E-04
(PID.TID 0000.0001) %MON dynstat_vvel_sd              =   1.3884312532911E-02
(PID.TID 0000.0001) %MON dynstat_vvel_del2            =   9.2370544327281E-05
(PID.TID 0000.0001) %MON dynstat_wvel_max             =   1.3749517636583E-04
(PID.TID 0000.0001) %MON dynstat_wvel_min             =  -1.9126279907810E-04
(PID.TID 0000.0001) %MON dynstat_wvel_mean            =  -3.1947276084541E-07
(PID.TID 0000.0001) %MON dynstat_wvel_sd              =   8.0690158940319E-06
(PID.TID 0000.0001) %MON dynstat_wvel_del2            =   7.8115802709309E-08
(PID.TID 0000.0001) %MON dynstat_theta_max            =   3.0926279274608E+01
(PID.TID 0000.0001) %MON dynstat_theta_min            =  -3.0054847325597E+00
(PID.TID 0000.0001) %MON dynstat_theta_mean           =   3.9091468003050E+00
(PID.TID 0000.0001) %MON dynstat_theta_sd             =   4.5714502320148E+00
(PID.TID 0000.0001) %MON dynstat_theta_del2           =   2.6421846663138E-03
(PID.TID 0000.0001) %MON dynstat_salt_max             =   4.1349351180999E+01
(PID.TID 0000.0001) %MON dynstat_salt_min             =   1.8518929815006E+01
(PID.TID 0000.0001) %MON dynstat_salt_mean            =   3.4771954039365E+01
(PID.TID 0000.0001) %MON dynstat_salt_sd              =   5.3188802422605E-01
(PID.TID 0000.0001) %MON dynstat_salt_del2            =   1.0453486665083E-03
(PID.TID 0000.0001) %MON dynstat_sst_max              =   3.0926279274608E+01
(PID.TID 0000.0001) %MON dynstat_sst_min              =  -1.8972898923819E+00
(PID.TID 0000.0001) %MON dynstat_sst_mean             =   1.8107787321212E+01
(PID.TID 0000.0001) %MON dynstat_sst_sd               =   9.8112350521354E+00
(PID.TID 0000.0001) %MON dynstat_sst_del2             =   1.5035659982872E-02
(PID.TID 0000.0001) %MON dynstat_sss_max              =   4.1349351180999E+01
(PID.TID 0000.0001) %MON dynstat_sss_min              =   1.8751890134306E+01
(PID.TID 0000.0001) %MON dynstat_sss_mean             =   3.4624536907278E+01
(PID.TID 0000.0001) %MON dynstat_sss_sd               =   1.4808039215161E+00
(PID.TID 0000.0001) %MON dynstat_sss_del2             =   1.1616155272352E-02
(PID.TID 0000.0001) %MON forcing_qnet_max             =   2.0660314941406E+03
(PID.TID 0000.0001) %MON forcing_qnet_min             =  -1.2599154052734E+03
(PID.TID 0000.0001) %MON forcing_qnet_mean            =   1.1719934831016E+01
(PID.TID 0000.0001) %MON forcing_qnet_sd              =   2.0071065384090E+02
(PID.TID 0000.0001) %MON forcing_qnet_del2            =   4.2786969780263E+00
(PID.TID 0000.0001) %MON forcing_qsw_max              =   0.0000000000000E+00
(PID.TID 0000.0001) %MON forcing_qsw_min              =  -9.9910642000077E+01
(PID.TID 0000.0001) %MON forcing_qsw_mean             =  -1.3811444144146E+01
(PID.TID 0000.0001) %MON forcing_qsw_sd               =   2.3195114147715E+01
(PID.TID 0000.0001) %MON forcing_qsw_del2             =   1.9550262602170E-01
(PID.TID 0000.0001) %MON forcing_empmr_max            =   6.3402503728867E-03
(PID.TID 0000.0001) %MON forcing_empmr_min            =  -9.1143250465393E-02
(PID.TID 0000.0001) %MON forcing_empmr_mean           =  -2.8072144441041E-04
(PID.TID 0000.0001) %MON forcing_empmr_sd             =   4.0406879157814E-03
(PID.TID 0000.0001) %MON forcing_empmr_del2           =   1.5924800047858E-04
(PID.TID 0000.0001) %MON forcing_fu_max               =   3.9068815098345E-01
(PID.TID 0000.0001) %MON forcing_fu_min               =  -3.5457087780309E-01
(PID.TID 0000.0001) %MON forcing_fu_mean              =  -3.4541962470851E-03
(PID.TID 0000.0001) %MON forcing_fu_sd                =   6.3378843910862E-02
(PID.TID 0000.0001) %MON forcing_fu_del2              =   6.2841378101814E-04
(PID.TID 0000.0001) %MON forcing_fv_max               =   3.2407672561322E-01
(PID.TID 0000.0001) %MON forcing_fv_min               =  -2.8955703932722E-01
(PID.TID 0000.0001) %MON forcing_fv_mean              =  -1.4976061137284E-02
(PID.TID 0000.0001) %MON forcing_fv_sd                =   6.3054441685056E-02
(PID.TID 0000.0001) %MON forcing_fv_del2              =   5.4425310087812E-04
(PID.TID 0000.0001) %MON trAdv_CFL_u_max              =   1.8959895666540E-03
(PID.TID 0000.0001) %MON trAdv_CFL_v_max              =   2.1108945796023E-03
(PID.TID 0000.0001) %MON trAdv_CFL_w_max              =   1.8960496569289E-03
(PID.TID 0000.0001) %MON advcfl_uvel_max              =   1.8941638402151E-03
(PID.TID 0000.0001) %MON advcfl_vvel_max              =   2.0850366459818E-03
(PID.TID 0000.0001) %MON advcfl_wvel_max              =   3.1702000161876E-03
(PID.TID 0000.0001) %MON advcfl_W_hf_max              =   1.8960496569289E-03
(PID.TID 0000.0001) %MON pe_b_mean                    =   5.0330477460906E-04
(PID.TID 0000.0001) %MON ke_max                       =   2.1733316355964E-01
(PID.TID 0000.0001) %MON ke_mean                      =   1.6424213030085E-04
(PID.TID 0000.0001) %MON ke_vol                       =   1.3398124918013E+18
(PID.TID 0000.0001) %MON vort_r_min                   =  -4.0786710738736E-06
(PID.TID 0000.0001) %MON vort_r_max                   =   2.5800790952204E-06
(PID.TID 0000.0001) %MON vort_a_mean                  =  -2.0549865324846E-05
(PID.TID 0000.0001) %MON vort_a_sd                    =   7.5259702334794E-05
(PID.TID 0000.0001) %MON vort_p_mean                  =  -2.4783285799358E-05
(PID.TID 0000.0001) %MON vort_p_sd                    =   1.2811896614487E-04
(PID.TID 0000.0001) %MON surfExpan_theta_mean         =  -7.0440418139033E-06
(PID.TID 0000.0001) %MON surfExpan_salt_mean          =   1.2916193366187E-06
(PID.TID 0000.0001) // =======================================================
(PID.TID 0000.0001) // End MONITOR dynamic field statistics
(PID.TID 0000.0001) // =======================================================
 Computing Diagnostic #     81  oceTAUX      Counter:       1   Parms: UU      U1      
           Vector  Mate for  oceTAUX      Diagnostic #     82  oceTAUY  exists 
 Computing Diagnostic #     82  oceTAUY      Counter:       1   Parms: VV      U1      
           Vector  Mate for  oceTAUY      Diagnostic #     81  oceTAUX  exists 
 Computing Diagnostic #     85  oceFWflx     Counter:       1   Parms: SM      U1      
 Computing Diagnostic #     86  oceSflux     Counter:       1   Parms: SM      U1      
 Computing Diagnostic #     87  oceQnet      Counter:       1   Parms: SM      U1      
 Computing Diagnostic #     88  oceQsw       Counter:       1   Parms: SM      U1      
 Computing Diagnostic #     27  SALT         Counter:       1   Parms: SMR     MR      
 Computing Diagnostic #     26  THETA        Counter:       1   Parms: SMR     MR      
 Computing Diagnostic #     45  UVELMASS     Counter:       1   Parms: UUr     MR      
           Vector  Mate for  UVELMASS     Diagnostic #     46  VVELMASS exists 
 Computing Diagnostic #     46  VVELMASS     Counter:       1   Parms: VVr     MR      
           Vector  Mate for  VVELMASS     Diagnostic #     45  UVELMASS exists 
 Computing Diagnostic #     83  atmPload     Counter:       1   Parms: SM      U1      
 cg2d: Sum(rhs),rhsMax =  -4.35511221450811E+01  5.55281057546315E+01
(PID.TID 0000.0001)      cg2d_init_res =   1.90596913465960E-01
(PID.TID 0000.0001)      cg2d_iters(min,last) =      -1      10
(PID.TID 0000.0001)      cg2d_last_res =   7.99722213153879E-08
(PID.TID 0000.0001) // =======================================================
(PID.TID 0000.0001) // Begin MONITOR dynamic field statistics
(PID.TID 0000.0001) // =======================================================
(PID.TID 0000.0001) %MON time_tsnumber                =                 72056
(PID.TID 0000.0001) %MON time_secondsf                =   6.4850400000000E+07
(PID.TID 0000.0001) %MON dynstat_eta_max              =   2.4736062220624E+00
(PID.TID 0000.0001) %MON dynstat_eta_min              =  -1.5896048014727E+00
(PID.TID 0000.0001) %MON dynstat_eta_mean             =   2.8100456897131E-02
(PID.TID 0000.0001) %MON dynstat_eta_sd               =   6.1352496478482E-01
(PID.TID 0000.0001) %MON dynstat_eta_del2             =   1.9355428750028E-03
(PID.TID 0000.0001) %MON dynstat_uvel_max             =   5.7072294081844E-01
(PID.TID 0000.0001) %MON dynstat_uvel_min             =  -6.7320097695564E-01
(PID.TID 0000.0001) %MON dynstat_uvel_mean            =  -4.4173950064935E-04
(PID.TID 0000.0001) %MON dynstat_uvel_sd              =   1.2779183214902E-02
(PID.TID 0000.0001) %MON dynstat_uvel_del2            =   9.6690841276733E-05
(PID.TID 0000.0001) %MON dynstat_vvel_max             =   6.7231367017769E-01
(PID.TID 0000.0001) %MON dynstat_vvel_min             =  -6.2512721170691E-01
(PID.TID 0000.0001) %MON dynstat_vvel_mean            =   4.5930631610919E-04
(PID.TID 0000.0001) %MON dynstat_vvel_sd              =   1.3899947336776E-02
(PID.TID 0000.0001) %MON dynstat_vvel_del2            =   9.4562000172383E-05
(PID.TID 0000.0001) %MON dynstat_wvel_max             =   1.3399782050928E-04
(PID.TID 0000.0001) %MON dynstat_wvel_min             =  -1.9114832492035E-04
(PID.TID 0000.0001) %MON dynstat_wvel_mean            =  -3.2812972782747E-07
(PID.TID 0000.0001) %MON dynstat_wvel_sd              =   8.0838838614575E-06
(PID.TID 0000.0001) %MON dynstat_wvel_del2            =   7.8044191998948E-08
(PID.TID 0000.0001) %MON dynstat_theta_max            =   3.0926269477180E+01
(PID.TID 0000.0001) %MON dynstat_theta_min            =  -3.0057247593865E+00
(PID.TID 0000.0001) %MON dynstat_theta_mean           =   3.9091477347897E+00
(PID.TID 0000.0001) %MON dynstat_theta_sd             =   4.5714531378024E+00
(PID.TID 0000.0001) %MON dynstat_theta_del2           =   2.6420297114029E-03
(PID.TID 0000.0001) %MON dynstat_salt_max             =   4.1349097101839E+01
(PID.TID 0000.0001) %MON dynstat_salt_min             =   1.8518940119440E+01
(PID.TID 0000.0001) %MON dynstat_salt_mean            =   3.4771951574889E+01
(PID.TID 0000.0001) %MON dynstat_salt_sd              =   5.3190350965120E-01
(PID.TID 0000.0001) %MON dynstat_salt_del2            =   1.0492267912929E-03
(PID.TID 0000.0001) %MON dynstat_sst_max              =   3.0926269477180E+01
(PID.TID 0000.0001) %MON dynstat_sst_min              =  -1.8973954867292E+00
(PID.TID 0000.0001) %MON dynstat_sst_mean             =   1.8107757344826E+01
(PID.TID 0000.0001) %MON dynstat_sst_sd               =   9.8113035589391E+00
(PID.TID 0000.0001) %MON dynstat_sst_del2             =   1.5032768853434E-02
(PID.TID 0000.0001) %MON dynstat_sss_max              =   4.1349097101839E+01
(PID.TID 0000.0001) %MON dynstat_sss_min              =   1.8751918203557E+01
(PID.TID 0000.0001) %MON dynstat_sss_mean             =   3.4624359566816E+01
(PID.TID 0000.0001) %MON dynstat_sss_sd               =   1.4811959295195E+00
(PID.TID 0000.0001) %MON dynstat_sss_del2             =   1.1671240688144E-02
(PID.TID 0000.0001) %MON forcing_qnet_max             =   3.0050001352948E+03
(PID.TID 0000.0001) %MON forcing_qnet_min             =  -1.2419907226562E+03
(PID.TID 0000.0001) %MON forcing_qnet_mean            =   1.0959181187465E+01
(PID.TID 0000.0001) %MON forcing_qnet_sd              =   2.0442387386819E+02
(PID.TID 0000.0001) %MON forcing_qnet_del2            =   4.4694659086271E+00
(PID.TID 0000.0001) %MON forcing_qsw_max              =   0.0000000000000E+00
(PID.TID 0000.0001) %MON forcing_qsw_min              =  -1.0092041018982E+02
(PID.TID 0000.0001) %MON forcing_qsw_mean             =  -1.3886641318613E+01
(PID.TID 0000.0001) %MON forcing_qsw_sd               =   2.3303654925823E+01
(PID.TID 0000.0001) %MON forcing_qsw_del2             =   1.9616806236540E-01
(PID.TID 0000.0001) %MON forcing_empmr_max            =   6.2749106436968E-03
(PID.TID 0000.0001) %MON forcing_empmr_min            =  -9.0204320847988E-02
(PID.TID 0000.0001) %MON forcing_empmr_mean           =  -2.8480287312505E-04
(PID.TID 0000.0001) %MON forcing_empmr_sd             =   4.0522163145141E-03
(PID.TID 0000.0001) %MON forcing_empmr_del2           =   1.5937427482336E-04
(PID.TID 0000.0001) %MON forcing_fu_max               =   3.8951657495031E-01
(PID.TID 0000.0001) %MON forcing_fu_min               =  -3.6261251679346E-01
(PID.TID 0000.0001) %MON forcing_fu_mean              =  -3.4190790725066E-03
(PID.TID 0000.0001) %MON forcing_fu_sd                =   6.3448247482212E-02
(PID.TID 0000.0001) %MON forcing_fu_del2              =   6.2890909953034E-04
(PID.TID 0000.0001) %MON forcing_fv_max               =   3.2225920088264E-01
(PID.TID 0000.0001) %MON forcing_fv_min               =  -2.8736131917066E-01
(PID.TID 0000.0001) %MON forcing_fv_mean              =  -1.4984716657086E-02
(PID.TID 0000.0001) %MON forcing_fv_sd                =   6.2946475655191E-02
(PID.TID 0000.0001) %MON forcing_fv_del2              =   5.4380160701308E-04
(PID.TID 0000.0001) %MON trAdv_CFL_u_max              =   1.9586396883133E-03
(PID.TID 0000.0001) %MON trAdv_CFL_v_max              =   2.2247218515522E-03
(PID.TID 0000.0001) %MON trAdv_CFL_w_max              =   1.8996110773392E-03
(PID.TID 0000.0001) %MON advcfl_uvel_max              =   1.9563282017679E-03
(PID.TID 0000.0001) %MON advcfl_vvel_max              =   2.1940047458118E-03
(PID.TID 0000.0001) %MON advcfl_wvel_max              =   3.1375415947126E-03
(PID.TID 0000.0001) %MON advcfl_W_hf_max              =   1.8996110773392E-03
(PID.TID 0000.0001) %MON pe_b_mean                    =   5.0249965836704E-04
(PID.TID 0000.0001) %MON ke_max                       =   2.2577596548185E-01
(PID.TID 0000.0001) %MON ke_mean                      =   1.6484968866105E-04
(PID.TID 0000.0001) %MON ke_vol                       =   1.3398125806281E+18
(PID.TID 0000.0001) %MON vort_r_min                   =  -4.1992410885692E-06
(PID.TID 0000.0001) %MON vort_r_max                   =   2.6173179284491E-06
(PID.TID 0000.0001) %MON vort_a_mean                  =  -2.0549865324846E-05
(PID.TID 0000.0001) %MON vort_a_sd                    =   7.5259709456563E-05
(PID.TID 0000.0001) %MON vort_p_mean                  =  -2.4783283705938E-05
(PID.TID 0000.0001) %MON vort_p_sd                    =   1.2811896746213E-04
(PID.TID 0000.0001) %MON surfExpan_theta_mean         =  -7.1729014493804E-06
(PID.TID 0000.0001) %MON surfExpan_salt_mean          =   1.3041026771828E-06
(PID.TID 0000.0001) // =======================================================
(PID.TID 0000.0001) // End MONITOR dynamic field statistics
(PID.TID 0000.0001) // =======================================================
 cg2d: Sum(rhs),rhsMax =  -4.66812759264515E+01  5.24952277313228E+01
(PID.TID 0000.0001)      cg2d_init_res =   2.99015796444492E-01
(PID.TID 0000.0001)      cg2d_iters(min,last) =      -1      11
(PID.TID 0000.0001)      cg2d_last_res =   2.63842303305818E-08
(PID.TID 0000.0001) // =======================================================
(PID.TID 0000.0001) // Begin MONITOR dynamic field statistics
(PID.TID 0000.0001) // =======================================================
(PID.TID 0000.0001) %MON time_tsnumber                =                 72057
(PID.TID 0000.0001) %MON time_secondsf                =   6.4851300000000E+07
(PID.TID 0000.0001) %MON dynstat_eta_max              =   2.3387150395945E+00
(PID.TID 0000.0001) %MON dynstat_eta_min              =  -1.5885123968385E+00
(PID.TID 0000.0001) %MON dynstat_eta_mean             =   2.8474998856259E-02
(PID.TID 0000.0001) %MON dynstat_eta_sd               =   6.1298892889216E-01
(PID.TID 0000.0001) %MON dynstat_eta_del2             =   1.8386560291703E-03
(PID.TID 0000.0001) %MON dynstat_uvel_max             =   6.2398869919485E-01
(PID.TID 0000.0001) %MON dynstat_uvel_min             =  -6.9423261303246E-01
(PID.TID 0000.0001) %MON dynstat_uvel_mean            =  -4.2231867309061E-04
(PID.TID 0000.0001) %MON dynstat_uvel_sd              =   1.2816128518758E-02
(PID.TID 0000.0001) %MON dynstat_uvel_del2            =   9.7305515828425E-05
(PID.TID 0000.0001) %MON dynstat_vvel_max             =   6.9338083868794E-01
(PID.TID 0000.0001) %MON dynstat_vvel_min             =  -6.3802159439859E-01
(PID.TID 0000.0001) %MON dynstat_vvel_mean            =   4.8260168886258E-04
(PID.TID 0000.0001) %MON dynstat_vvel_sd              =   1.3912042900772E-02
(PID.TID 0000.0001) %MON dynstat_vvel_del2            =   9.6664225677674E-05
(PID.TID 0000.0001) %MON dynstat_wvel_max             =   1.3020565351418E-04
(PID.TID 0000.0001) %MON dynstat_wvel_min             =  -6.6459397762870E-04
(PID.TID 0000.0001) %MON dynstat_wvel_mean            =  -3.6254334815131E-07
(PID.TID 0000.0001) %MON dynstat_wvel_sd              =   8.7449543620814E-06
(PID.TID 0000.0001) %MON dynstat_wvel_del2            =   9.3552671775928E-08
(PID.TID 0000.0001) %MON dynstat_theta_max            =   3.0926253544929E+01
(PID.TID 0000.0001) %MON dynstat_theta_min            =  -3.0059631832328E+00
(PID.TID 0000.0001) %MON dynstat_theta_mean           =   3.9091488704123E+00
(PID.TID 0000.0001) %MON dynstat_theta_sd             =   4.5714558817677E+00
(PID.TID 0000.0001) %MON dynstat_theta_del2           =   2.6418616420946E-03
(PID.TID 0000.0001) %MON dynstat_salt_max             =   4.1348860707615E+01
(PID.TID 0000.0001) %MON dynstat_salt_min             =   1.8518950419500E+01
(PID.TID 0000.0001) %MON dynstat_salt_mean            =   3.4771949041938E+01
(PID.TID 0000.0001) %MON dynstat_salt_sd              =   5.3191837315948E-01
(PID.TID 0000.0001) %MON dynstat_salt_del2            =   1.0530424251993E-03
(PID.TID 0000.0001) %MON dynstat_sst_max              =   3.0926253544929E+01
(PID.TID 0000.0001) %MON dynstat_sst_min              =  -1.8975119192517E+00
(PID.TID 0000.0001) %MON dynstat_sst_mean             =   1.8107699405762E+01
(PID.TID 0000.0001) %MON dynstat_sst_sd               =   9.8113646575260E+00
(PID.TID 0000.0001) %MON dynstat_sst_del2             =   1.5029867422063E-02
(PID.TID 0000.0001) %MON dynstat_sss_max              =   4.1348860707615E+01
(PID.TID 0000.0001) %MON dynstat_sss_min              =   1.8751944992104E+01
(PID.TID 0000.0001) %MON dynstat_sss_mean             =   3.4624172507712E+01
(PID.TID 0000.0001) %MON dynstat_sss_sd               =   1.4815681290506E+00
(PID.TID 0000.0001) %MON dynstat_sss_del2             =   1.1725389049012E-02
(PID.TID 0000.0001) %MON forcing_qnet_max             =   3.9656642474351E+04
(PID.TID 0000.0001) %MON forcing_qnet_min             =  -1.2254753417969E+03
(PID.TID 0000.0001) %MON forcing_qnet_mean            =   1.6876341353022E+01
(PID.TID 0000.0001) %MON forcing_qnet_sd              =   6.3927097987888E+02
(PID.TID 0000.0001) %MON forcing_qnet_del2            =   2.2351303463807E+01
(PID.TID 0000.0001) %MON forcing_qsw_max              =   0.0000000000000E+00
(PID.TID 0000.0001) %MON forcing_qsw_min              =  -1.0206680115044E+02
(PID.TID 0000.0001) %MON forcing_qsw_mean             =  -1.4216855600310E+01
(PID.TID 0000.0001) %MON forcing_qsw_sd               =   2.3936395772573E+01
(PID.TID 0000.0001) %MON forcing_qsw_del2             =   2.0137044830912E-01
(PID.TID 0000.0001) %MON forcing_empmr_max            =   6.2102596275508E-03
(PID.TID 0000.0001) %MON forcing_empmr_min            =  -6.8785476684570E-01
(PID.TID 0000.0001) %MON forcing_empmr_mean           =  -4.3072325299668E-04
(PID.TID 0000.0001) %MON forcing_empmr_sd             =   1.1231567811037E-02
(PID.TID 0000.0001) %MON forcing_empmr_del2           =   4.1155494644231E-04
(PID.TID 0000.0001) %MON forcing_fu_max               =   3.8416955560378E-01
(PID.TID 0000.0001) %MON forcing_fu_min               =  -3.7064253130511E-01
(PID.TID 0000.0001) %MON forcing_fu_mean              =  -3.4484661847354E-03
(PID.TID 0000.0001) %MON forcing_fu_sd                =   6.3228570227872E-02
(PID.TID 0000.0001) %MON forcing_fu_del2              =   6.2708992912675E-04
(PID.TID 0000.0001) %MON forcing_fv_max               =   3.2384100478609E-01
(PID.TID 0000.0001) %MON forcing_fv_min               =  -2.8496493402436E-01
(PID.TID 0000.0001) %MON forcing_fv_mean              =  -1.4968207719081E-02
(PID.TID 0000.0001) %MON forcing_fv_sd                =   6.2854652272851E-02
(PID.TID 0000.0001) %MON forcing_fv_del2              =   5.4327960153930E-04
(PID.TID 0000.0001) %MON trAdv_CFL_u_max              =   2.0252728068911E-03
(PID.TID 0000.0001) %MON trAdv_CFL_v_max              =   2.2983753036980E-03
(PID.TID 0000.0001) %MON trAdv_CFL_w_max              =   1.1183763233471E-02
(PID.TID 0000.0001) %MON advcfl_uvel_max              =   2.0808566934261E-03
(PID.TID 0000.0001) %MON advcfl_vvel_max              =   2.2627546013369E-03
(PID.TID 0000.0001) %MON advcfl_wvel_max              =   2.3925383194633E-02
(PID.TID 0000.0001) %MON advcfl_W_hf_max              =   1.1183763233471E-02
(PID.TID 0000.0001) %MON pe_b_mean                    =   5.0165200769466E-04
(PID.TID 0000.0001) %MON ke_max                       =   2.3379196437193E-01
(PID.TID 0000.0001) %MON ke_mean                      =   1.6544269734844E-04
(PID.TID 0000.0001) %MON ke_vol                       =   1.3398126707463E+18
(PID.TID 0000.0001) %MON vort_r_min                   =  -4.3090370859842E-06
(PID.TID 0000.0001) %MON vort_r_max                   =   2.6245566090488E-06
(PID.TID 0000.0001) %MON vort_a_mean                  =  -2.0549865324846E-05
(PID.TID 0000.0001) %MON vort_a_sd                    =   7.5259716185392E-05
(PID.TID 0000.0001) %MON vort_p_mean                  =  -2.4783281571746E-05
(PID.TID 0000.0001) %MON vort_p_sd                    =   1.2811896585988E-04
(PID.TID 0000.0001) %MON surfExpan_theta_mean         =  -8.6560621629904E-06
(PID.TID 0000.0001) %MON surfExpan_salt_mean          =   1.1987741102014E-06
(PID.TID 0000.0001) // =======================================================
(PID.TID 0000.0001) // End MONITOR dynamic field statistics
(PID.TID 0000.0001) // =======================================================
 cg2d: Sum(rhs),rhsMax =  -5.01962241790895E+01  4.92327688252193E+01
(PID.TID 0000.0001)      cg2d_init_res =   2.41088525583026E-01
(PID.TID 0000.0001)      cg2d_iters(min,last) =      -1      10
(PID.TID 0000.0001)      cg2d_last_res =   8.55741963180221E-08
(PID.TID 0000.0001) // =======================================================
(PID.TID 0000.0001) // Begin MONITOR dynamic field statistics
(PID.TID 0000.0001) // =======================================================
(PID.TID 0000.0001) %MON time_tsnumber                =                 72058
(PID.TID 0000.0001) %MON time_secondsf                =   6.4852200000000E+07
(PID.TID 0000.0001) %MON dynstat_eta_max              =   2.1936155351607E+00
(PID.TID 0000.0001) %MON dynstat_eta_min              =  -1.5874121997466E+00
(PID.TID 0000.0001) %MON dynstat_eta_mean             =   2.8716167930754E-02
(PID.TID 0000.0001) %MON dynstat_eta_sd               =   6.1255286208758E-01
(PID.TID 0000.0001) %MON dynstat_eta_del2             =   1.7169382645710E-03
(PID.TID 0000.0001) %MON dynstat_uvel_max             =   6.6584013274526E-01
(PID.TID 0000.0001) %MON dynstat_uvel_min             =  -7.1463303420942E-01
(PID.TID 0000.0001) %MON dynstat_uvel_mean            =  -4.0252698928506E-04
(PID.TID 0000.0001) %MON dynstat_uvel_sd              =   1.2856002879639E-02
(PID.TID 0000.0001) %MON dynstat_uvel_del2            =   9.7736805249753E-05
(PID.TID 0000.0001) %MON dynstat_vvel_max             =   7.0232951881297E-01
(PID.TID 0000.0001) %MON dynstat_vvel_min             =  -6.4779044086648E-01
(PID.TID 0000.0001) %MON dynstat_vvel_mean            =   5.0256819512525E-04
(PID.TID 0000.0001) %MON dynstat_vvel_sd              =   1.3916698534134E-02
(PID.TID 0000.0001) %MON dynstat_vvel_del2            =   9.8513766405420E-05
(PID.TID 0000.0001) %MON dynstat_wvel_max             =   1.2602440120816E-04
(PID.TID 0000.0001) %MON dynstat_wvel_min             =  -1.9101213014128E-04
(PID.TID 0000.0001) %MON dynstat_wvel_mean            =  -3.4374075007998E-07
(PID.TID 0000.0001) %MON dynstat_wvel_sd              =   8.1016132175727E-06
(PID.TID 0000.0001) %MON dynstat_wvel_del2            =   7.7417820384639E-08
(PID.TID 0000.0001) %MON dynstat_theta_max            =   3.0926231490419E+01
(PID.TID 0000.0001) %MON dynstat_theta_min            =  -3.0061957784642E+00
(PID.TID 0000.0001) %MON dynstat_theta_mean           =   3.9091499967309E+00
(PID.TID 0000.0001) %MON dynstat_theta_sd             =   4.5714589323462E+00
(PID.TID 0000.0001) %MON dynstat_theta_del2           =   2.6417200358870E-03
(PID.TID 0000.0001) %MON dynstat_salt_max             =   4.1348642499521E+01
(PID.TID 0000.0001) %MON dynstat_salt_min             =   1.8518960715749E+01
(PID.TID 0000.0001) %MON dynstat_salt_mean            =   3.4771946685703E+01
(PID.TID 0000.0001) %MON dynstat_salt_sd              =   5.3193347490962E-01
(PID.TID 0000.0001) %MON dynstat_salt_del2            =   1.0567849458736E-03
(PID.TID 0000.0001) %MON dynstat_sst_max              =   3.0926231490419E+01
(PID.TID 0000.0001) %MON dynstat_sst_min              =  -1.8976374948001E+00
(PID.TID 0000.0001) %MON dynstat_sst_mean             =   1.8107684140908E+01
(PID.TID 0000.0001) %MON dynstat_sst_sd               =   9.8114291643287E+00
(PID.TID 0000.0001) %MON dynstat_sst_del2             =   1.5027213447064E-02
(PID.TID 0000.0001) %MON dynstat_sss_max              =   4.1348642499521E+01
(PID.TID 0000.0001) %MON dynstat_sss_min              =   1.8751970513606E+01
(PID.TID 0000.0001) %MON dynstat_sss_mean             =   3.4624000691304E+01
(PID.TID 0000.0001) %MON dynstat_sss_sd               =   1.4819524817408E+00
(PID.TID 0000.0001) %MON dynstat_sss_del2             =   1.1778452777477E-02
(PID.TID 0000.0001) %MON forcing_qnet_max             =   1.9936805419922E+03
(PID.TID 0000.0001) %MON forcing_qnet_min             =  -1.2080048828125E+03
(PID.TID 0000.0001) %MON forcing_qnet_mean            =   6.7236238344400E+00
(PID.TID 0000.0001) %MON forcing_qnet_sd              =   2.0480859898952E+02
(PID.TID 0000.0001) %MON forcing_qnet_del2            =   4.2985667798738E+00
(PID.TID 0000.0001) %MON forcing_qsw_max              =   0.0000000000000E+00
(PID.TID 0000.0001) %MON forcing_qsw_min              =  -1.0217817698618E+02
(PID.TID 0000.0001) %MON forcing_qsw_mean             =  -1.4357077843605E+01
(PID.TID 0000.0001) %MON forcing_qsw_sd               =   2.4256074050345E+01
(PID.TID 0000.0001) %MON forcing_qsw_del2             =   2.0327940633324E-01
(PID.TID 0000.0001) %MON forcing_empmr_max            =   6.1462968587875E-03
(PID.TID 0000.0001) %MON forcing_empmr_min            =  -8.8354967534542E-02
(PID.TID 0000.0001) %MON forcing_empmr_mean           =  -2.7734443566978E-04
(PID.TID 0000.0001) %MON forcing_empmr_sd             =   3.9476704873675E-03
(PID.TID 0000.0001) %MON forcing_empmr_del2           =   1.5537991953748E-04
(PID.TID 0000.0001) %MON forcing_fu_max               =   3.7614149829208E-01
(PID.TID 0000.0001) %MON forcing_fu_min               =  -3.7576964956663E-01
(PID.TID 0000.0001) %MON forcing_fu_mean              =  -3.5331760412148E-03
(PID.TID 0000.0001) %MON forcing_fu_sd                =   6.2833318095693E-02
(PID.TID 0000.0001) %MON forcing_fu_del2              =   6.2466929520033E-04
(PID.TID 0000.0001) %MON forcing_fv_max               =   3.2031528335945E-01
(PID.TID 0000.0001) %MON forcing_fv_min               =  -2.8220181030429E-01
(PID.TID 0000.0001) %MON forcing_fv_mean              =  -1.4938514652933E-02
(PID.TID 0000.0001) %MON forcing_fv_sd                =   6.2702996590674E-02
(PID.TID 0000.0001) %MON forcing_fv_del2              =   5.4247865305238E-04
(PID.TID 0000.0001) %MON trAdv_CFL_u_max              =   2.1651542755787E-03
(PID.TID 0000.0001) %MON trAdv_CFL_v_max              =   2.3322790673632E-03
(PID.TID 0000.0001) %MON trAdv_CFL_w_max              =   1.8850114697052E-03
(PID.TID 0000.0001) %MON advcfl_uvel_max              =   2.2204214575720E-03
(PID.TID 0000.0001) %MON advcfl_vvel_max              =   2.2919574087971E-03
(PID.TID 0000.0001) %MON advcfl_wvel_max              =   3.0732162620710E-03
(PID.TID 0000.0001) %MON advcfl_W_hf_max              =   1.8850114697052E-03
(PID.TID 0000.0001) %MON pe_b_mean                    =   5.0095839285027E-04
(PID.TID 0000.0001) %MON ke_max                       =   2.4129060347353E-01
(PID.TID 0000.0001) %MON ke_mean                      =   1.6597473664822E-04
(PID.TID 0000.0001) %MON ke_vol                       =   1.3398128070372E+18
(PID.TID 0000.0001) %MON vort_r_min                   =  -4.4067083078534E-06
(PID.TID 0000.0001) %MON vort_r_max                   =   2.7279224250785E-06
(PID.TID 0000.0001) %MON vort_a_mean                  =  -2.0549865324846E-05
(PID.TID 0000.0001) %MON vort_a_sd                    =   7.5259722183594E-05
(PID.TID 0000.0001) %MON vort_p_mean                  =  -2.4783278713830E-05
(PID.TID 0000.0001) %MON vort_p_sd                    =   1.2811895071715E-04
(PID.TID 0000.0001) %MON surfExpan_theta_mean         =  -7.2641562773622E-06
(PID.TID 0000.0001) %MON surfExpan_salt_mean          =   1.3237702817161E-06
(PID.TID 0000.0001) // =======================================================
(PID.TID 0000.0001) // End MONITOR dynamic field statistics
(PID.TID 0000.0001) // =======================================================
 cg2d: Sum(rhs),rhsMax =  -5.44275458520736E+01  4.57719958500327E+01
(PID.TID 0000.0001)      cg2d_init_res =   2.68012639003489E-01
(PID.TID 0000.0001)      cg2d_iters(min,last) =      -1      10
(PID.TID 0000.0001)      cg2d_last_res =   8.22223033417677E-08
(PID.TID 0000.0001) // =======================================================
(PID.TID 0000.0001) // Begin MONITOR dynamic field statistics
(PID.TID 0000.0001) // =======================================================
(PID.TID 0000.0001) %MON time_tsnumber                =                 72059
(PID.TID 0000.0001) %MON time_secondsf                =   6.4853100000000E+07
(PID.TID 0000.0001) %MON dynstat_eta_max              =   2.0396948031474E+00
(PID.TID 0000.0001) %MON dynstat_eta_min              =  -1.5862399058157E+00
(PID.TID 0000.0001) %MON dynstat_eta_mean             =   2.8948080753650E-02
(PID.TID 0000.0001) %MON dynstat_eta_sd               =   6.1219014666002E-01
(PID.TID 0000.0001) %MON dynstat_eta_del2             =   1.6083775661081E-03
(PID.TID 0000.0001) %MON dynstat_uvel_max             =   6.9594422301672E-01
(PID.TID 0000.0001) %MON dynstat_uvel_min             =  -7.3411420966457E-01
(PID.TID 0000.0001) %MON dynstat_uvel_mean            =  -3.8295275486802E-04
(PID.TID 0000.0001) %MON dynstat_uvel_sd              =   1.2896611832773E-02
(PID.TID 0000.0001) %MON dynstat_uvel_del2            =   9.7955531423528E-05
(PID.TID 0000.0001) %MON dynstat_vvel_max             =   6.9956489660317E-01
(PID.TID 0000.0001) %MON dynstat_vvel_min             =  -6.5431361384702E-01
(PID.TID 0000.0001) %MON dynstat_vvel_mean            =   5.1902960171556E-04
(PID.TID 0000.0001) %MON dynstat_vvel_sd              =   1.3912804383122E-02
(PID.TID 0000.0001) %MON dynstat_vvel_del2            =   9.9983076796123E-05
(PID.TID 0000.0001) %MON dynstat_wvel_max             =   1.2138577571664E-04
(PID.TID 0000.0001) %MON dynstat_wvel_min             =  -1.9098441873903E-04
(PID.TID 0000.0001) %MON dynstat_wvel_mean            =  -3.4168973319814E-07
(PID.TID 0000.0001) %MON dynstat_wvel_sd              =   8.0879950175952E-06
(PID.TID 0000.0001) %MON dynstat_wvel_del2            =   7.6841147425555E-08
(PID.TID 0000.0001) %MON dynstat_theta_max            =   3.0926203281427E+01
(PID.TID 0000.0001) %MON dynstat_theta_min            =  -3.0064201077482E+00
(PID.TID 0000.0001) %MON dynstat_theta_mean           =   3.9091512001342E+00
(PID.TID 0000.0001) %MON dynstat_theta_sd             =   4.5714625947227E+00
(PID.TID 0000.0001) %MON dynstat_theta_del2           =   2.6415924498204E-03
(PID.TID 0000.0001) %MON dynstat_salt_max             =   4.1348442593294E+01
(PID.TID 0000.0001) %MON dynstat_salt_min             =   1.8518971008157E+01
(PID.TID 0000.0001) %MON dynstat_salt_mean            =   3.4771944362568E+01
(PID.TID 0000.0001) %MON dynstat_salt_sd              =   5.3194843621794E-01
(PID.TID 0000.0001) %MON dynstat_salt_del2            =   1.0604636506554E-03
(PID.TID 0000.0001) %MON dynstat_sst_max              =   3.0926203281427E+01
(PID.TID 0000.0001) %MON dynstat_sst_min              =  -1.8977692361476E+00
(PID.TID 0000.0001) %MON dynstat_sst_mean             =   1.8107674466383E+01
(PID.TID 0000.0001) %MON dynstat_sst_sd               =   9.8114932286316E+00
(PID.TID 0000.0001) %MON dynstat_sst_del2             =   1.5024883989576E-02
(PID.TID 0000.0001) %MON dynstat_sss_max              =   4.1348442593294E+01
(PID.TID 0000.0001) %MON dynstat_sss_min              =   1.8751995067592E+01
(PID.TID 0000.0001) %MON dynstat_sss_mean             =   3.4623830872598E+01
(PID.TID 0000.0001) %MON dynstat_sss_sd               =   1.4823332776218E+00
(PID.TID 0000.0001) %MON dynstat_sss_del2             =   1.1830542585066E-02
(PID.TID 0000.0001) %MON forcing_qnet_max             =   1.9712220458984E+03
(PID.TID 0000.0001) %MON forcing_qnet_min             =  -1.3318364257812E+03
(PID.TID 0000.0001) %MON forcing_qnet_mean            =   4.5699334599103E+00
(PID.TID 0000.0001) %MON forcing_qnet_sd              =   2.0480518874789E+02
(PID.TID 0000.0001) %MON forcing_qnet_del2            =   4.2233394841479E+00
(PID.TID 0000.0001) %MON forcing_qsw_max              =   0.0000000000000E+00
(PID.TID 0000.0001) %MON forcing_qsw_min              =  -1.0183577168083E+02
(PID.TID 0000.0001) %MON forcing_qsw_mean             =  -1.4454586293188E+01
(PID.TID 0000.0001) %MON forcing_qsw_sd               =   2.4559970004438E+01
(PID.TID 0000.0001) %MON forcing_qsw_del2             =   2.0503374361576E-01
(PID.TID 0000.0001) %MON forcing_empmr_max            =   6.0829250141978E-03
(PID.TID 0000.0001) %MON forcing_empmr_min            =  -8.7445400655270E-02
(PID.TID 0000.0001) %MON forcing_empmr_mean           =  -2.6669974633098E-04
(PID.TID 0000.0001) %MON forcing_empmr_sd             =   3.8530815039383E-03
(PID.TID 0000.0001) %MON forcing_empmr_del2           =   1.5195662703482E-04
(PID.TID 0000.0001) %MON forcing_fu_max               =   3.7580929406886E-01
(PID.TID 0000.0001) %MON forcing_fu_min               =  -3.7737246718759E-01
(PID.TID 0000.0001) %MON forcing_fu_mean              =  -3.4950182895057E-03
(PID.TID 0000.0001) %MON forcing_fu_sd                =   6.2825943958838E-02
(PID.TID 0000.0001) %MON forcing_fu_del2              =   6.2466606756850E-04
(PID.TID 0000.0001) %MON forcing_fv_max               =   3.2214620129590E-01
(PID.TID 0000.0001) %MON forcing_fv_min               =  -2.7917552320058E-01
(PID.TID 0000.0001) %MON forcing_fv_mean              =  -1.4951807996694E-02
(PID.TID 0000.0001) %MON forcing_fv_sd                =   6.2575692032387E-02
(PID.TID 0000.0001) %MON forcing_fv_del2              =   5.4184466454917E-04
(PID.TID 0000.0001) %MON trAdv_CFL_u_max              =   2.2674839525377E-03
(PID.TID 0000.0001) %MON trAdv_CFL_v_max              =   2.3274926154727E-03
(PID.TID 0000.0001) %MON trAdv_CFL_w_max              =   1.8675888055924E-03
(PID.TID 0000.0001) %MON advcfl_uvel_max              =   2.3208115733252E-03
(PID.TID 0000.0001) %MON advcfl_vvel_max              =   2.2829354380746E-03
(PID.TID 0000.0001) %MON advcfl_wvel_max              =   3.0415791532268E-03
(PID.TID 0000.0001) %MON advcfl_W_hf_max              =   1.8675888055924E-03
(PID.TID 0000.0001) %MON pe_b_mean                    =   5.0038437923229E-04
(PID.TID 0000.0001) %MON ke_max                       =   2.4814744297216E-01
(PID.TID 0000.0001) %MON ke_mean                      =   1.6640565697630E-04
(PID.TID 0000.0001) %MON ke_vol                       =   1.3398128947954E+18
(PID.TID 0000.0001) %MON vort_r_min                   =  -4.4909330979448E-06
(PID.TID 0000.0001) %MON vort_r_max                   =   2.8444788990515E-06
(PID.TID 0000.0001) %MON vort_a_mean                  =  -2.0549865324846E-05
(PID.TID 0000.0001) %MON vort_a_sd                    =   7.5259727410465E-05
(PID.TID 0000.0001) %MON vort_p_mean                  =  -2.4783276570037E-05
(PID.TID 0000.0001) %MON vort_p_sd                    =   1.2811896105950E-04
(PID.TID 0000.0001) %MON surfExpan_theta_mean         =  -7.1926762023633E-06
(PID.TID 0000.0001) %MON surfExpan_salt_mean          =   1.3367017019919E-06
(PID.TID 0000.0001) // =======================================================
(PID.TID 0000.0001) // End MONITOR dynamic field statistics
(PID.TID 0000.0001) // =======================================================
 Computing Diagnostic #     81  oceTAUX      Counter:       1   Parms: UU      U1      
           Vector  Mate for  oceTAUX      Diagnostic #     82  oceTAUY  exists 
 Computing Diagnostic #     82  oceTAUY      Counter:       1   Parms: VV      U1      
           Vector  Mate for  oceTAUY      Diagnostic #     81  oceTAUX  exists 
 Computing Diagnostic #     85  oceFWflx     Counter:       1   Parms: SM      U1      
 Computing Diagnostic #     86  oceSflux     Counter:       1   Parms: SM      U1      
 Computing Diagnostic #     87  oceQnet      Counter:       1   Parms: SM      U1      
 Computing Diagnostic #     88  oceQsw       Counter:       1   Parms: SM      U1      
 Computing Diagnostic #     27  SALT         Counter:       1   Parms: SMR     MR      
 Computing Diagnostic #     26  THETA        Counter:       1   Parms: SMR     MR      
 Computing Diagnostic #     45  UVELMASS     Counter:       1   Parms: UUr     MR      
           Vector  Mate for  UVELMASS     Diagnostic #     46  VVELMASS exists 
 Computing Diagnostic #     46  VVELMASS     Counter:       1   Parms: VVr     MR      
           Vector  Mate for  VVELMASS     Diagnostic #     45  UVELMASS exists 
 Computing Diagnostic #     83  atmPload     Counter:       1   Parms: SM      U1      
 cg2d: Sum(rhs),rhsMax =  -5.95794594522913E+01  4.21460197536809E+01
(PID.TID 0000.0001)      cg2d_init_res =   2.83689297246595E-01
(PID.TID 0000.0001)      cg2d_iters(min,last) =      -1      10
(PID.TID 0000.0001)      cg2d_last_res =   7.82925389428701E-08
(PID.TID 0000.0001) // =======================================================
(PID.TID 0000.0001) // Begin MONITOR dynamic field statistics
(PID.TID 0000.0001) // =======================================================
(PID.TID 0000.0001) %MON time_tsnumber                =                 72060
(PID.TID 0000.0001) %MON time_secondsf                =   6.4854000000000E+07
(PID.TID 0000.0001) %MON dynstat_eta_max              =   1.8784223498948E+00
(PID.TID 0000.0001) %MON dynstat_eta_min              =  -1.5849434484647E+00
(PID.TID 0000.0001) %MON dynstat_eta_mean             =   2.9177917921495E-02
(PID.TID 0000.0001) %MON dynstat_eta_sd               =   6.1190321838953E-01
(PID.TID 0000.0001) %MON dynstat_eta_del2             =   1.5201877085294E-03
(PID.TID 0000.0001) %MON dynstat_uvel_max             =   7.1421215886828E-01
(PID.TID 0000.0001) %MON dynstat_uvel_min             =  -7.5237752675233E-01
(PID.TID 0000.0001) %MON dynstat_uvel_mean            =  -3.6415990581535E-04
(PID.TID 0000.0001) %MON dynstat_uvel_sd              =   1.2936572842427E-02
(PID.TID 0000.0001) %MON dynstat_uvel_del2            =   9.7966176017992E-05
(PID.TID 0000.0001) %MON dynstat_vvel_max             =   6.8567285861016E-01
(PID.TID 0000.0001) %MON dynstat_vvel_min             =  -6.5749718713226E-01
(PID.TID 0000.0001) %MON dynstat_vvel_mean            =   5.3186843077203E-04
(PID.TID 0000.0001) %MON dynstat_vvel_sd              =   1.3900875069928E-02
(PID.TID 0000.0001) %MON dynstat_vvel_del2            =   1.0099555131741E-04
(PID.TID 0000.0001) %MON dynstat_wvel_max             =   1.1734799770615E-04
(PID.TID 0000.0001) %MON dynstat_wvel_min             =  -1.9097612827470E-04
(PID.TID 0000.0001) %MON dynstat_wvel_mean            =  -3.3473855756707E-07
(PID.TID 0000.0001) %MON dynstat_wvel_sd              =   8.0590756117747E-06
(PID.TID 0000.0001) %MON dynstat_wvel_del2            =   7.6140566946233E-08
(PID.TID 0000.0001) %MON dynstat_theta_max            =   3.0926168881659E+01
(PID.TID 0000.0001) %MON dynstat_theta_min            =  -3.0066359385856E+00
(PID.TID 0000.0001) %MON dynstat_theta_mean           =   3.9091524240303E+00
(PID.TID 0000.0001) %MON dynstat_theta_sd             =   4.5714663060502E+00
(PID.TID 0000.0001) %MON dynstat_theta_del2           =   2.6414538016424E-03
(PID.TID 0000.0001) %MON dynstat_salt_max             =   4.1348260531510E+01
(PID.TID 0000.0001) %MON dynstat_salt_min             =   1.8518981296061E+01
(PID.TID 0000.0001) %MON dynstat_salt_mean            =   3.4771942071312E+01
(PID.TID 0000.0001) %MON dynstat_salt_sd              =   5.3196320026684E-01
(PID.TID 0000.0001) %MON dynstat_salt_del2            =   1.0640711444786E-03
(PID.TID 0000.0001) %MON dynstat_sst_max              =   3.0926168881659E+01
(PID.TID 0000.0001) %MON dynstat_sst_min              =  -1.8979074088388E+00
(PID.TID 0000.0001) %MON dynstat_sst_mean             =   1.8107668631041E+01
(PID.TID 0000.0001) %MON dynstat_sst_sd               =   9.8115556310686E+00
(PID.TID 0000.0001) %MON dynstat_sst_del2             =   1.5022402081984E-02
(PID.TID 0000.0001) %MON dynstat_sss_max              =   4.1348260531510E+01
(PID.TID 0000.0001) %MON dynstat_sss_min              =   1.8752018714581E+01
(PID.TID 0000.0001) %MON dynstat_sss_mean             =   3.4623663336797E+01
(PID.TID 0000.0001) %MON dynstat_sss_sd               =   1.4827098720187E+00
(PID.TID 0000.0001) %MON dynstat_sss_del2             =   1.1881603116231E-02
(PID.TID 0000.0001) %MON forcing_qnet_max             =   1.9479670410156E+03
(PID.TID 0000.0001) %MON forcing_qnet_min             =  -1.4356235351562E+03
(PID.TID 0000.0001) %MON forcing_qnet_mean            =   3.6779881824265E+00
(PID.TID 0000.0001) %MON forcing_qnet_sd              =   2.0556551930003E+02
(PID.TID 0000.0001) %MON forcing_qnet_del2            =   4.1215886262855E+00
(PID.TID 0000.0001) %MON forcing_qsw_max              =   0.0000000000000E+00
(PID.TID 0000.0001) %MON forcing_qsw_min              =  -1.0104156238202E+02
(PID.TID 0000.0001) %MON forcing_qsw_mean             =  -1.4514092407762E+01
(PID.TID 0000.0001) %MON forcing_qsw_sd               =   2.4841533415561E+01
(PID.TID 0000.0001) %MON forcing_qsw_del2             =   2.0663216810576E-01
(PID.TID 0000.0001) %MON forcing_empmr_max            =   6.0202418826520E-03
(PID.TID 0000.0001) %MON forcing_empmr_min            =  -8.6544215679169E-02
(PID.TID 0000.0001) %MON forcing_empmr_mean           =  -2.6431274302156E-04
(PID.TID 0000.0001) %MON forcing_empmr_sd             =   3.8132341914861E-03
(PID.TID 0000.0001) %MON forcing_empmr_del2           =   1.5038585379209E-04
(PID.TID 0000.0001) %MON forcing_fu_max               =   3.8162291131847E-01
(PID.TID 0000.0001) %MON forcing_fu_min               =  -3.7777376201530E-01
(PID.TID 0000.0001) %MON forcing_fu_mean              =  -3.4042468209782E-03
(PID.TID 0000.0001) %MON forcing_fu_sd                =   6.3061466001033E-02
(PID.TID 0000.0001) %MON forcing_fu_del2              =   6.2577587529784E-04
(PID.TID 0000.0001) %MON forcing_fv_max               =   3.2138308231783E-01
(PID.TID 0000.0001) %MON forcing_fv_min               =  -2.7616997118158E-01
(PID.TID 0000.0001) %MON forcing_fv_mean              =  -1.4988636131190E-02
(PID.TID 0000.0001) %MON forcing_fv_sd                =   6.2466136945398E-02
(PID.TID 0000.0001) %MON forcing_fv_del2              =   5.4089371938767E-04
(PID.TID 0000.0001) %MON trAdv_CFL_u_max              =   2.3316888063178E-03
(PID.TID 0000.0001) %MON trAdv_CFL_v_max              =   2.2856682161102E-03
(PID.TID 0000.0001) %MON trAdv_CFL_w_max              =   1.8584362728315E-03
(PID.TID 0000.0001) %MON advcfl_uvel_max              =   2.3817308762563E-03
(PID.TID 0000.0001) %MON advcfl_vvel_max              =   2.2376006507014E-03
(PID.TID 0000.0001) %MON advcfl_wvel_max              =   3.0102335888407E-03
(PID.TID 0000.0001) %MON advcfl_W_hf_max              =   1.8584362728315E-03
(PID.TID 0000.0001) %MON pe_b_mean                    =   4.9993424933739E-04
(PID.TID 0000.0001) %MON ke_max                       =   2.5420690411581E-01
(PID.TID 0000.0001) %MON ke_mean                      =   1.6672579599220E-04
(PID.TID 0000.0001) %MON ke_vol                       =   1.3398129791854E+18
(PID.TID 0000.0001) %MON vort_r_min                   =  -4.5604399834642E-06
(PID.TID 0000.0001) %MON vort_r_max                   =   2.9223340119909E-06
(PID.TID 0000.0001) %MON vort_a_mean                  =  -2.0549865324846E-05
(PID.TID 0000.0001) %MON vort_a_sd                    =   7.5259731826691E-05
(PID.TID 0000.0001) %MON vort_p_mean                  =  -2.4783274478652E-05
(PID.TID 0000.0001) %MON vort_p_sd                    =   1.2811897893470E-04
(PID.TID 0000.0001) %MON surfExpan_theta_mean         =  -7.1475758930373E-06
(PID.TID 0000.0001) %MON surfExpan_salt_mean          =   1.3416259960955E-06
(PID.TID 0000.0001) // =======================================================
(PID.TID 0000.0001) // End MONITOR dynamic field statistics
(PID.TID 0000.0001) // =======================================================
 cg2d: Sum(rhs),rhsMax =  -6.59188480081738E+01  3.83893762872602E+01
(PID.TID 0000.0001)      cg2d_init_res =   3.00047797263343E-01
(PID.TID 0000.0001)      cg2d_iters(min,last) =      -1      10
(PID.TID 0000.0001)      cg2d_last_res =   7.75458426393432E-08
(PID.TID 0000.0001) // =======================================================
(PID.TID 0000.0001) // Begin MONITOR dynamic field statistics
(PID.TID 0000.0001) // =======================================================
(PID.TID 0000.0001) %MON time_tsnumber                =                 72061
(PID.TID 0000.0001) %MON time_secondsf                =   6.4854900000000E+07
(PID.TID 0000.0001) %MON dynstat_eta_max              =   1.7113315009542E+00
(PID.TID 0000.0001) %MON dynstat_eta_min              =  -1.5834879195184E+00
(PID.TID 0000.0001) %MON dynstat_eta_mean             =   2.9405044331106E-02
(PID.TID 0000.0001) %MON dynstat_eta_sd               =   6.1168446119382E-01
(PID.TID 0000.0001) %MON dynstat_eta_del2             =   1.4524079282865E-03
(PID.TID 0000.0001) %MON dynstat_uvel_max             =   7.2079053896036E-01
(PID.TID 0000.0001) %MON dynstat_uvel_min             =  -7.6912020392414E-01
(PID.TID 0000.0001) %MON dynstat_uvel_mean            =  -3.4666885546599E-04
(PID.TID 0000.0001) %MON dynstat_uvel_sd              =   1.2974839961224E-02
(PID.TID 0000.0001) %MON dynstat_uvel_del2            =   9.7788599574160E-05
(PID.TID 0000.0001) %MON dynstat_vvel_max             =   6.6139645047021E-01
(PID.TID 0000.0001) %MON dynstat_vvel_min             =  -6.5727455703403E-01
(PID.TID 0000.0001) %MON dynstat_vvel_mean            =   5.4098603997094E-04
(PID.TID 0000.0001) %MON dynstat_vvel_sd              =   1.3882048528441E-02
(PID.TID 0000.0001) %MON dynstat_vvel_del2            =   1.0150810883996E-04
(PID.TID 0000.0001) %MON dynstat_wvel_max             =   1.1629699437900E-04
(PID.TID 0000.0001) %MON dynstat_wvel_min             =  -1.9098360540246E-04
(PID.TID 0000.0001) %MON dynstat_wvel_mean            =  -3.2199301370894E-07
(PID.TID 0000.0001) %MON dynstat_wvel_sd              =   8.0229662253230E-06
(PID.TID 0000.0001) %MON dynstat_wvel_del2            =   7.5367540626654E-08
(PID.TID 0000.0001) %MON dynstat_theta_max            =   3.0926128239213E+01
(PID.TID 0000.0001) %MON dynstat_theta_min            =  -3.0068328128408E+00
(PID.TID 0000.0001) %MON dynstat_theta_mean           =   3.9091537767731E+00
(PID.TID 0000.0001) %MON dynstat_theta_sd             =   4.5714704494169E+00
(PID.TID 0000.0001) %MON dynstat_theta_del2           =   2.6413180991863E-03
(PID.TID 0000.0001) %MON dynstat_salt_max             =   4.1348096282142E+01
(PID.TID 0000.0001) %MON dynstat_salt_min             =   1.8518991578046E+01
(PID.TID 0000.0001) %MON dynstat_salt_mean            =   3.4771939818144E+01
(PID.TID 0000.0001) %MON dynstat_salt_sd              =   5.3197776171694E-01
(PID.TID 0000.0001) %MON dynstat_salt_del2            =   1.0676113044330E-03
(PID.TID 0000.0001) %MON dynstat_sst_max              =   3.0926128239213E+01
(PID.TID 0000.0001) %MON dynstat_sst_min              =  -1.8980488131436E+00
(PID.TID 0000.0001) %MON dynstat_sst_mean             =   1.8107673024265E+01
(PID.TID 0000.0001) %MON dynstat_sst_sd               =   9.8116183857658E+00
(PID.TID 0000.0001) %MON dynstat_sst_del2             =   1.5020031865110E-02
(PID.TID 0000.0001) %MON dynstat_sss_max              =   4.1348096282142E+01
(PID.TID 0000.0001) %MON dynstat_sss_min              =   1.8752041545328E+01
(PID.TID 0000.0001) %MON dynstat_sss_mean             =   3.4623498010270E+01
(PID.TID 0000.0001) %MON dynstat_sss_sd               =   1.4830819009784E+00
(PID.TID 0000.0001) %MON dynstat_sss_del2             =   1.1931671537762E-02
(PID.TID 0000.0001) %MON forcing_qnet_max             =   1.9249949951172E+03
(PID.TID 0000.0001) %MON forcing_qnet_min             =  -1.1592185058594E+03
(PID.TID 0000.0001) %MON forcing_qnet_mean            =   9.4324269694593E-01
(PID.TID 0000.0001) %MON forcing_qnet_sd              =   2.0794300679151E+02
(PID.TID 0000.0001) %MON forcing_qnet_del2            =   4.0175187366450E+00
(PID.TID 0000.0001) %MON forcing_qsw_max              =   0.0000000000000E+00
(PID.TID 0000.0001) %MON forcing_qsw_min              =  -1.0047355567363E+02
(PID.TID 0000.0001) %MON forcing_qsw_mean             =  -1.4865623381768E+01
(PID.TID 0000.0001) %MON forcing_qsw_sd               =   2.5821194186093E+01
(PID.TID 0000.0001) %MON forcing_qsw_del2             =   2.1262390155293E-01
(PID.TID 0000.0001) %MON forcing_empmr_max            =   5.9582474641502E-03
(PID.TID 0000.0001) %MON forcing_empmr_min            =  -8.5653111338615E-02
(PID.TID 0000.0001) %MON forcing_empmr_mean           =  -2.6119537105206E-04
(PID.TID 0000.0001) %MON forcing_empmr_sd             =   3.7739886594644E-03
(PID.TID 0000.0001) %MON forcing_empmr_del2           =   1.4882048581703E-04
(PID.TID 0000.0001) %MON forcing_fu_max               =   3.8254979324922E-01
(PID.TID 0000.0001) %MON forcing_fu_min               =  -3.7796976453276E-01
(PID.TID 0000.0001) %MON forcing_fu_mean              =  -3.3503818525952E-03
(PID.TID 0000.0001) %MON forcing_fu_sd                =   6.3121462227214E-02
(PID.TID 0000.0001) %MON forcing_fu_del2              =   6.2549139587947E-04
(PID.TID 0000.0001) %MON forcing_fv_max               =   3.0558399737393E-01
(PID.TID 0000.0001) %MON forcing_fv_min               =  -2.7303996269050E-01
(PID.TID 0000.0001) %MON forcing_fv_mean              =  -1.5076514214908E-02
(PID.TID 0000.0001) %MON forcing_fv_sd                =   6.2149948856460E-02
(PID.TID 0000.0001) %MON forcing_fv_del2              =   5.3815989462407E-04
(PID.TID 0000.0001) %MON trAdv_CFL_u_max              =   2.3579373399319E-03
(PID.TID 0000.0001) %MON trAdv_CFL_v_max              =   2.2089953181384E-03
(PID.TID 0000.0001) %MON trAdv_CFL_w_max              =   1.8752265356518E-03
(PID.TID 0000.0001) %MON advcfl_uvel_max              =   2.4036682386863E-03
(PID.TID 0000.0001) %MON advcfl_vvel_max              =   2.1583778756293E-03
(PID.TID 0000.0001) %MON advcfl_wvel_max              =   2.9792386552562E-03
(PID.TID 0000.0001) %MON advcfl_W_hf_max              =   1.8752265356518E-03
(PID.TID 0000.0001) %MON pe_b_mean                    =   4.9959536246522E-04
(PID.TID 0000.0001) %MON ke_max                       =   2.5928871778396E-01
(PID.TID 0000.0001) %MON ke_mean                      =   1.6693748567060E-04
(PID.TID 0000.0001) %MON ke_vol                       =   1.3398130628201E+18
(PID.TID 0000.0001) %MON vort_r_min                   =  -4.6140320608219E-06
(PID.TID 0000.0001) %MON vort_r_max                   =   2.9619959057679E-06
(PID.TID 0000.0001) %MON vort_a_mean                  =  -2.0549865324846E-05
(PID.TID 0000.0001) %MON vort_a_sd                    =   7.5259735394386E-05
(PID.TID 0000.0001) %MON vort_p_mean                  =  -2.4783272419408E-05
(PID.TID 0000.0001) %MON vort_p_sd                    =   1.2811900235157E-04
(PID.TID 0000.0001) %MON surfExpan_theta_mean         =  -7.0544265243840E-06
(PID.TID 0000.0001) %MON surfExpan_salt_mean          =   1.3442126242762E-06
(PID.TID 0000.0001) // =======================================================
(PID.TID 0000.0001) // End MONITOR dynamic field statistics
(PID.TID 0000.0001) // =======================================================
 cg2d: Sum(rhs),rhsMax =  -6.95946944878849E+01  3.66391955333728E+01
(PID.TID 0000.0001)      cg2d_init_res =   3.03800826854678E-01
(PID.TID 0000.0001)      cg2d_iters(min,last) =      -1      10
(PID.TID 0000.0001)      cg2d_last_res =   7.82955540056978E-08
(PID.TID 0000.0001) // =======================================================
(PID.TID 0000.0001) // Begin MONITOR dynamic field statistics
(PID.TID 0000.0001) // =======================================================
(PID.TID 0000.0001) %MON time_tsnumber                =                 72062
(PID.TID 0000.0001) %MON time_secondsf                =   6.4855800000000E+07
(PID.TID 0000.0001) %MON dynstat_eta_max              =   1.5400007532171E+00
(PID.TID 0000.0001) %MON dynstat_eta_min              =  -1.5818579402582E+00
(PID.TID 0000.0001) %MON dynstat_eta_mean             =   2.9629425816615E-02
(PID.TID 0000.0001) %MON dynstat_eta_sd               =   6.1152399998968E-01
(PID.TID 0000.0001) %MON dynstat_eta_del2             =   1.4047144610754E-03
(PID.TID 0000.0001) %MON dynstat_uvel_max             =   7.1604646987037E-01
(PID.TID 0000.0001) %MON dynstat_uvel_min             =  -7.8404203666433E-01
(PID.TID 0000.0001) %MON dynstat_uvel_mean            =  -3.3090552821343E-04
(PID.TID 0000.0001) %MON dynstat_uvel_sd              =   1.3010496552927E-02
(PID.TID 0000.0001) %MON dynstat_uvel_del2            =   9.7441245566937E-05
(PID.TID 0000.0001) %MON dynstat_vvel_max             =   6.2760972514187E-01
(PID.TID 0000.0001) %MON dynstat_vvel_min             =  -6.5360535657511E-01
(PID.TID 0000.0001) %MON dynstat_vvel_mean            =   5.4640243151960E-04
(PID.TID 0000.0001) %MON dynstat_vvel_sd              =   1.3857937014267E-02
(PID.TID 0000.0001) %MON dynstat_vvel_del2            =   1.0150571981841E-04
(PID.TID 0000.0001) %MON dynstat_wvel_max             =   1.1508035683661E-04
(PID.TID 0000.0001) %MON dynstat_wvel_min             =  -1.9100499749730E-04
(PID.TID 0000.0001) %MON dynstat_wvel_mean            =  -3.0537139118745E-07
(PID.TID 0000.0001) %MON dynstat_wvel_sd              =   7.9859521677590E-06
(PID.TID 0000.0001) %MON dynstat_wvel_del2            =   7.4579885725282E-08
(PID.TID 0000.0001) %MON dynstat_theta_max            =   3.0926082431039E+01
(PID.TID 0000.0001) %MON dynstat_theta_min            =  -3.0070229249126E+00
(PID.TID 0000.0001) %MON dynstat_theta_mean           =   3.9091552014127E+00
(PID.TID 0000.0001) %MON dynstat_theta_sd             =   4.5714748027030E+00
(PID.TID 0000.0001) %MON dynstat_theta_del2           =   2.6411832138096E-03
(PID.TID 0000.0001) %MON dynstat_salt_max             =   4.1347948981469E+01
(PID.TID 0000.0001) %MON dynstat_salt_min             =   1.8519001852435E+01
(PID.TID 0000.0001) %MON dynstat_salt_mean            =   3.4771937599966E+01
(PID.TID 0000.0001) %MON dynstat_salt_sd              =   5.3199210577537E-01
(PID.TID 0000.0001) %MON dynstat_salt_del2            =   1.0710848771985E-03
(PID.TID 0000.0001) %MON dynstat_sst_max              =   3.0926082431039E+01
(PID.TID 0000.0001) %MON dynstat_sst_min              =  -1.8981913128344E+00
(PID.TID 0000.0001) %MON dynstat_sst_mean             =   1.8107682856117E+01
(PID.TID 0000.0001) %MON dynstat_sst_sd               =   9.8116804233586E+00
(PID.TID 0000.0001) %MON dynstat_sst_del2             =   1.5017684129713E-02
(PID.TID 0000.0001) %MON dynstat_sss_max              =   4.1347948981469E+01
(PID.TID 0000.0001) %MON dynstat_sss_min              =   1.8752063592849E+01
(PID.TID 0000.0001) %MON dynstat_sss_mean             =   3.4623334555724E+01
(PID.TID 0000.0001) %MON dynstat_sss_sd               =   1.4834488281544E+00
(PID.TID 0000.0001) %MON dynstat_sss_del2             =   1.1980762296850E-02
(PID.TID 0000.0001) %MON forcing_qnet_max             =   1.9023026123047E+03
(PID.TID 0000.0001) %MON forcing_qnet_min             =  -1.1426221923828E+03
(PID.TID 0000.0001) %MON forcing_qnet_mean            =  -6.7564170235003E-01
(PID.TID 0000.0001) %MON forcing_qnet_sd              =   2.1006177748804E+02
(PID.TID 0000.0001) %MON forcing_qnet_del2            =   4.0003314145993E+00
(PID.TID 0000.0001) %MON forcing_qsw_max              =   0.0000000000000E+00
(PID.TID 0000.0001) %MON forcing_qsw_min              =  -1.0239924313909E+02
(PID.TID 0000.0001) %MON forcing_qsw_mean             =  -1.4996398826541E+01
(PID.TID 0000.0001) %MON forcing_qsw_sd               =   2.6187526409483E+01
(PID.TID 0000.0001) %MON forcing_qsw_del2             =   2.1564902679436E-01
(PID.TID 0000.0001) %MON forcing_empmr_max            =   5.8968435041606E-03
(PID.TID 0000.0001) %MON forcing_empmr_min            =  -8.4770388901234E-02
(PID.TID 0000.0001) %MON forcing_empmr_mean           =  -2.5803870833636E-04
(PID.TID 0000.0001) %MON forcing_empmr_sd             =   3.7351907247449E-03
(PID.TID 0000.0001) %MON forcing_empmr_del2           =   1.4728208562418E-04
(PID.TID 0000.0001) %MON forcing_fu_max               =   3.7693636570372E-01
(PID.TID 0000.0001) %MON forcing_fu_min               =  -3.7797173375215E-01
(PID.TID 0000.0001) %MON forcing_fu_mean              =  -3.3403257472584E-03
(PID.TID 0000.0001) %MON forcing_fu_sd                =   6.2939749223834E-02
(PID.TID 0000.0001) %MON forcing_fu_del2              =   6.2256072583447E-04
(PID.TID 0000.0001) %MON forcing_fv_max               =   2.9660882502233E-01
(PID.TID 0000.0001) %MON forcing_fv_min               =  -2.7008612284876E-01
(PID.TID 0000.0001) %MON forcing_fv_mean              =  -1.5144106838204E-02
(PID.TID 0000.0001) %MON forcing_fv_sd                =   6.1837248000427E-02
(PID.TID 0000.0001) %MON forcing_fv_del2              =   5.3606679643513E-04
(PID.TID 0000.0001) %MON trAdv_CFL_u_max              =   2.3471149080435E-03
(PID.TID 0000.0001) %MON trAdv_CFL_v_max              =   2.1001313655104E-03
(PID.TID 0000.0001) %MON trAdv_CFL_w_max              =   1.8870615835357E-03
(PID.TID 0000.0001) %MON advcfl_uvel_max              =   2.3878478753805E-03
(PID.TID 0000.0001) %MON advcfl_vvel_max              =   2.0481194664909E-03
(PID.TID 0000.0001) %MON advcfl_wvel_max              =   2.9485352661299E-03
(PID.TID 0000.0001) %MON advcfl_W_hf_max              =   1.8870615835357E-03
(PID.TID 0000.0001) %MON pe_b_mean                    =   4.9935150213184E-04
(PID.TID 0000.0001) %MON ke_max                       =   2.6319692056724E-01
(PID.TID 0000.0001) %MON ke_mean                      =   1.6705066645657E-04
(PID.TID 0000.0001) %MON ke_vol                       =   1.3398131454684E+18
(PID.TID 0000.0001) %MON vort_r_min                   =  -4.6506053772637E-06
(PID.TID 0000.0001) %MON vort_r_max                   =   2.9644452569127E-06
(PID.TID 0000.0001) %MON vort_a_mean                  =  -2.0549865324846E-05
(PID.TID 0000.0001) %MON vort_a_sd                    =   7.5259738100245E-05
(PID.TID 0000.0001) %MON vort_p_mean                  =  -2.4783270414084E-05
(PID.TID 0000.0001) %MON vort_p_sd                    =   1.2811902993285E-04
(PID.TID 0000.0001) %MON surfExpan_theta_mean         =  -6.9428314048032E-06
(PID.TID 0000.0001) %MON surfExpan_salt_mean          =   1.3441157008869E-06
(PID.TID 0000.0001) // =======================================================
(PID.TID 0000.0001) // End MONITOR dynamic field statistics
(PID.TID 0000.0001) // =======================================================
 cg2d: Sum(rhs),rhsMax =  -7.01998097894937E+01  3.65961242800528E+01
(PID.TID 0000.0001)      cg2d_init_res =   2.95608547869644E-01
(PID.TID 0000.0001)      cg2d_iters(min,last) =      -1      10
(PID.TID 0000.0001)      cg2d_last_res =   8.07311636409524E-08
(PID.TID 0000.0001) // =======================================================
(PID.TID 0000.0001) // Begin MONITOR dynamic field statistics
(PID.TID 0000.0001) // =======================================================
(PID.TID 0000.0001) %MON time_tsnumber                =                 72063
(PID.TID 0000.0001) %MON time_secondsf                =   6.4856700000000E+07
(PID.TID 0000.0001) %MON dynstat_eta_max              =   1.3660348540256E+00
(PID.TID 0000.0001) %MON dynstat_eta_min              =  -1.5800550998315E+00
(PID.TID 0000.0001) %MON dynstat_eta_mean             =   2.9851915416279E-02
(PID.TID 0000.0001) %MON dynstat_eta_sd               =   6.1141377852838E-01
(PID.TID 0000.0001) %MON dynstat_eta_del2             =   1.3777961536322E-03
(PID.TID 0000.0001) %MON dynstat_uvel_max             =   7.0055160985624E-01
(PID.TID 0000.0001) %MON dynstat_uvel_min             =  -7.9685341347260E-01
(PID.TID 0000.0001) %MON dynstat_uvel_mean            =  -3.1717656454474E-04
(PID.TID 0000.0001) %MON dynstat_uvel_sd              =   1.3042604918163E-02
(PID.TID 0000.0001) %MON dynstat_uvel_del2            =   9.6940565943746E-05
(PID.TID 0000.0001) %MON dynstat_vvel_max             =   5.8529536371795E-01
(PID.TID 0000.0001) %MON dynstat_vvel_min             =  -6.4647918011040E-01
(PID.TID 0000.0001) %MON dynstat_vvel_mean            =   5.4821646737936E-04
(PID.TID 0000.0001) %MON dynstat_vvel_sd              =   1.3830281306621E-02
(PID.TID 0000.0001) %MON dynstat_vvel_del2            =   1.0099824242893E-04
(PID.TID 0000.0001) %MON dynstat_wvel_max             =   1.1369452362965E-04
(PID.TID 0000.0001) %MON dynstat_wvel_min             =  -1.9103571506364E-04
(PID.TID 0000.0001) %MON dynstat_wvel_mean            =  -2.8675247362221E-07
(PID.TID 0000.0001) %MON dynstat_wvel_sd              =   7.9517548368466E-06
(PID.TID 0000.0001) %MON dynstat_wvel_del2            =   7.3807136569755E-08
(PID.TID 0000.0001) %MON dynstat_theta_max            =   3.0926030167776E+01
(PID.TID 0000.0001) %MON dynstat_theta_min            =  -3.0072071888821E+00
(PID.TID 0000.0001) %MON dynstat_theta_mean           =   3.9091566842829E+00
(PID.TID 0000.0001) %MON dynstat_theta_sd             =   4.5714793033677E+00
(PID.TID 0000.0001) %MON dynstat_theta_del2           =   2.6410499619198E-03
(PID.TID 0000.0001) %MON dynstat_salt_max             =   4.1347817845221E+01
(PID.TID 0000.0001) %MON dynstat_salt_min             =   1.8519012117129E+01
(PID.TID 0000.0001) %MON dynstat_salt_mean            =   3.4771935412703E+01
(PID.TID 0000.0001) %MON dynstat_salt_sd              =   5.3200623850763E-01
(PID.TID 0000.0001) %MON dynstat_salt_del2            =   1.0744928749827E-03
(PID.TID 0000.0001) %MON dynstat_sst_max              =   3.0926030167776E+01
(PID.TID 0000.0001) %MON dynstat_sst_min              =  -1.8983338735024E+00
(PID.TID 0000.0001) %MON dynstat_sst_mean             =   1.8107696483250E+01
(PID.TID 0000.0001) %MON dynstat_sst_sd               =   9.8117416699400E+00
(PID.TID 0000.0001) %MON dynstat_sst_del2             =   1.5015376010630E-02
(PID.TID 0000.0001) %MON dynstat_sss_max              =   4.1347817845221E+01
(PID.TID 0000.0001) %MON dynstat_sss_min              =   1.8752085060632E+01
(PID.TID 0000.0001) %MON dynstat_sss_mean             =   3.4623172723624E+01
(PID.TID 0000.0001) %MON dynstat_sss_sd               =   1.4838107411054E+00
(PID.TID 0000.0001) %MON dynstat_sss_del2             =   1.2028890249227E-02
(PID.TID 0000.0001) %MON forcing_qnet_max             =   1.8798862304688E+03
(PID.TID 0000.0001) %MON forcing_qnet_min             =  -1.1273554687500E+03
(PID.TID 0000.0001) %MON forcing_qnet_mean            =  -1.9104864745051E+00
(PID.TID 0000.0001) %MON forcing_qnet_sd              =   2.1205978253615E+02
(PID.TID 0000.0001) %MON forcing_qnet_del2            =   3.9982122121475E+00
(PID.TID 0000.0001) %MON forcing_qsw_max              =   0.0000000000000E+00
(PID.TID 0000.0001) %MON forcing_qsw_min              =  -1.0391328970372E+02
(PID.TID 0000.0001) %MON forcing_qsw_mean             =  -1.5095843127606E+01
(PID.TID 0000.0001) %MON forcing_qsw_sd               =   2.6503783042261E+01
(PID.TID 0000.0001) %MON forcing_qsw_del2             =   2.1838236423251E-01
(PID.TID 0000.0001) %MON forcing_empmr_max            =   5.8361282572150E-03
(PID.TID 0000.0001) %MON forcing_empmr_min            =  -8.3896905183792E-02
(PID.TID 0000.0001) %MON forcing_empmr_mean           =  -2.5586303961361E-04
(PID.TID 0000.0001) %MON forcing_empmr_sd             =   3.6967361366584E-03
(PID.TID 0000.0001) %MON forcing_empmr_del2           =   1.4575860386829E-04
(PID.TID 0000.0001) %MON forcing_fu_max               =   3.6859539675270E-01
(PID.TID 0000.0001) %MON forcing_fu_min               =  -3.7708459305591E-01
(PID.TID 0000.0001) %MON forcing_fu_mean              =  -3.3413554388723E-03
(PID.TID 0000.0001) %MON forcing_fu_sd                =   6.2693031465563E-02
(PID.TID 0000.0001) %MON forcing_fu_del2              =   6.1987417236362E-04
(PID.TID 0000.0001) %MON forcing_fv_max               =   2.9352079908228E-01
(PID.TID 0000.0001) %MON forcing_fv_min               =  -2.6720553776952E-01
(PID.TID 0000.0001) %MON forcing_fv_mean              =  -1.5201156240026E-02
(PID.TID 0000.0001) %MON forcing_fv_sd                =   6.1642933132642E-02
(PID.TID 0000.0001) %MON forcing_fv_del2              =   5.3509203996916E-04
(PID.TID 0000.0001) %MON trAdv_CFL_u_max              =   2.3268248164386E-03
(PID.TID 0000.0001) %MON trAdv_CFL_v_max              =   2.0499093064445E-03
(PID.TID 0000.0001) %MON trAdv_CFL_w_max              =   1.8938147660084E-03
(PID.TID 0000.0001) %MON advcfl_uvel_max              =   2.3361761332228E-03
(PID.TID 0000.0001) %MON advcfl_vvel_max              =   1.9100322701447E-03
(PID.TID 0000.0001) %MON advcfl_wvel_max              =   2.9181532237841E-03
(PID.TID 0000.0001) %MON advcfl_W_hf_max              =   1.8938147660084E-03
(PID.TID 0000.0001) %MON pe_b_mean                    =   4.9918953260796E-04
(PID.TID 0000.0001) %MON ke_max                       =   2.6573348919281E-01
(PID.TID 0000.0001) %MON ke_mean                      =   1.6707654834843E-04
(PID.TID 0000.0001) %MON ke_vol                       =   1.3398132271179E+18
(PID.TID 0000.0001) %MON vort_r_min                   =  -4.6691869418942E-06
(PID.TID 0000.0001) %MON vort_r_max                   =   2.9311092315355E-06
(PID.TID 0000.0001) %MON vort_a_mean                  =  -2.0549865324846E-05
(PID.TID 0000.0001) %MON vort_a_sd                    =   7.5259739948875E-05
(PID.TID 0000.0001) %MON vort_p_mean                  =  -2.4783268474695E-05
(PID.TID 0000.0001) %MON vort_p_sd                    =   1.2811905992960E-04
(PID.TID 0000.0001) %MON surfExpan_theta_mean         =  -6.8318673295357E-06
(PID.TID 0000.0001) %MON surfExpan_salt_mean          =   1.3421093834787E-06
(PID.TID 0000.0001) // =======================================================
(PID.TID 0000.0001) // End MONITOR dynamic field statistics
(PID.TID 0000.0001) // =======================================================
 Computing Diagnostic #     81  oceTAUX      Counter:       1   Parms: UU      U1      
           Vector  Mate for  oceTAUX      Diagnostic #     82  oceTAUY  exists 
 Computing Diagnostic #     82  oceTAUY      Counter:       1   Parms: VV      U1      
           Vector  Mate for  oceTAUY      Diagnostic #     81  oceTAUX  exists 
 Computing Diagnostic #     85  oceFWflx     Counter:       1   Parms: SM      U1      
 Computing Diagnostic #     86  oceSflux     Counter:       1   Parms: SM      U1      
 Computing Diagnostic #     87  oceQnet      Counter:       1   Parms: SM      U1      
 Computing Diagnostic #     88  oceQsw       Counter:       1   Parms: SM      U1      
 Computing Diagnostic #     27  SALT         Counter:       1   Parms: SMR     MR      
 Computing Diagnostic #     26  THETA        Counter:       1   Parms: SMR     MR      
 Computing Diagnostic #     45  UVELMASS     Counter:       1   Parms: UUr     MR      
           Vector  Mate for  UVELMASS     Diagnostic #     46  VVELMASS exists 
 Computing Diagnostic #     46  VVELMASS     Counter:       1   Parms: VVr     MR      
           Vector  Mate for  VVELMASS     Diagnostic #     45  UVELMASS exists 
 Computing Diagnostic #     83  atmPload     Counter:       1   Parms: SM      U1      
 cg2d: Sum(rhs),rhsMax =  -7.08076264834692E+01  3.65492911078879E+01
(PID.TID 0000.0001)      cg2d_init_res =   2.88271029189374E-01
(PID.TID 0000.0001)      cg2d_iters(min,last) =      -1      10
(PID.TID 0000.0001)      cg2d_last_res =   8.39110350280582E-08
(PID.TID 0000.0001) // =======================================================
(PID.TID 0000.0001) // Begin MONITOR dynamic field statistics
(PID.TID 0000.0001) // =======================================================
(PID.TID 0000.0001) %MON time_tsnumber                =                 72064
(PID.TID 0000.0001) %MON time_secondsf                =   6.4857600000000E+07
(PID.TID 0000.0001) %MON dynstat_eta_max              =   1.1910453095042E+00
(PID.TID 0000.0001) %MON dynstat_eta_min              =  -1.5781044478449E+00
(PID.TID 0000.0001) %MON dynstat_eta_mean             =   3.0071851497148E-02
(PID.TID 0000.0001) %MON dynstat_eta_sd               =   6.1134669598875E-01
(PID.TID 0000.0001) %MON dynstat_eta_del2             =   1.3721966307216E-03
(PID.TID 0000.0001) %MON dynstat_uvel_max             =   6.7505612533317E-01
(PID.TID 0000.0001) %MON dynstat_uvel_min             =  -8.0728037169627E-01
(PID.TID 0000.0001) %MON dynstat_uvel_mean            =  -3.0567785345915E-04
(PID.TID 0000.0001) %MON dynstat_uvel_sd              =   1.3070434030771E-02
(PID.TID 0000.0001) %MON dynstat_uvel_del2            =   9.6301695371983E-05
(PID.TID 0000.0001) %MON dynstat_vvel_max             =   5.3551845762611E-01
(PID.TID 0000.0001) %MON dynstat_vvel_min             =  -6.3591042270180E-01
(PID.TID 0000.0001) %MON dynstat_vvel_mean            =   5.4663726935584E-04
(PID.TID 0000.0001) %MON dynstat_vvel_sd              =   1.3800639248361E-02
(PID.TID 0000.0001) %MON dynstat_vvel_del2            =   1.0001983433017E-04
(PID.TID 0000.0001) %MON dynstat_wvel_max             =   1.1213579809617E-04
(PID.TID 0000.0001) %MON dynstat_wvel_min             =  -1.9107067541014E-04
(PID.TID 0000.0001) %MON dynstat_wvel_mean            =  -2.6663498878995E-07
(PID.TID 0000.0001) %MON dynstat_wvel_sd              =   7.9214838177014E-06
(PID.TID 0000.0001) %MON dynstat_wvel_del2            =   7.3065519902989E-08
(PID.TID 0000.0001) %MON dynstat_theta_max            =   3.0925971313791E+01
(PID.TID 0000.0001) %MON dynstat_theta_min            =  -3.0073893275975E+00
(PID.TID 0000.0001) %MON dynstat_theta_mean           =   3.9091582198414E+00
(PID.TID 0000.0001) %MON dynstat_theta_sd             =   4.5714839485450E+00
(PID.TID 0000.0001) %MON dynstat_theta_del2           =   2.6409184245584E-03
(PID.TID 0000.0001) %MON dynstat_salt_max             =   4.1347701511248E+01
(PID.TID 0000.0001) %MON dynstat_salt_min             =   1.8519022369782E+01
(PID.TID 0000.0001) %MON dynstat_salt_mean            =   3.4771933261049E+01
(PID.TID 0000.0001) %MON dynstat_salt_sd              =   5.3202016811732E-01
(PID.TID 0000.0001) %MON dynstat_salt_del2            =   1.0778360043005E-03
(PID.TID 0000.0001) %MON dynstat_sst_max              =   3.0925971313791E+01
(PID.TID 0000.0001) %MON dynstat_sst_min              =  -1.8984732202591E+00
(PID.TID 0000.0001) %MON dynstat_sst_mean             =   1.8107713807517E+01
(PID.TID 0000.0001) %MON dynstat_sst_sd               =   9.8118025354356E+00
(PID.TID 0000.0001) %MON dynstat_sst_del2             =   1.5013106974384E-02
(PID.TID 0000.0001) %MON dynstat_sss_max              =   4.1347701511248E+01
(PID.TID 0000.0001) %MON dynstat_sss_min              =   1.8752105937374E+01
(PID.TID 0000.0001) %MON dynstat_sss_mean             =   3.4623012867379E+01
(PID.TID 0000.0001) %MON dynstat_sss_sd               =   1.4841678152775E+00
(PID.TID 0000.0001) %MON dynstat_sss_del2             =   1.2076067142066E-02
(PID.TID 0000.0001) %MON forcing_qnet_max             =   1.8587712402344E+03
(PID.TID 0000.0001) %MON forcing_qnet_min             =  -1.1111791992188E+03
(PID.TID 0000.0001) %MON forcing_qnet_mean            =  -3.1428665761891E+00
(PID.TID 0000.0001) %MON forcing_qnet_sd              =   2.1446000647360E+02
(PID.TID 0000.0001) %MON forcing_qnet_del2            =   4.0238396032375E+00
(PID.TID 0000.0001) %MON forcing_qsw_max              =   0.0000000000000E+00
(PID.TID 0000.0001) %MON forcing_qsw_min              =  -1.0500922367400E+02
(PID.TID 0000.0001) %MON forcing_qsw_mean             =  -1.5160517926635E+01
(PID.TID 0000.0001) %MON forcing_qsw_sd               =   2.6768375272643E+01
(PID.TID 0000.0001) %MON forcing_qsw_del2             =   2.2079309782392E-01
(PID.TID 0000.0001) %MON forcing_empmr_max            =   5.7760039344430E-03
(PID.TID 0000.0001) %MON forcing_empmr_min            =  -8.3032645285130E-02
(PID.TID 0000.0001) %MON forcing_empmr_mean           =  -2.5292649299902E-04
(PID.TID 0000.0001) %MON forcing_empmr_sd             =   3.6587428613305E-03
(PID.TID 0000.0001) %MON forcing_empmr_del2           =   1.4425104435822E-04
(PID.TID 0000.0001) %MON forcing_fu_max               =   3.6312900825403E-01
(PID.TID 0000.0001) %MON forcing_fu_min               =  -3.7564768062911E-01
(PID.TID 0000.0001) %MON forcing_fu_mean              =  -3.3240044923452E-03
(PID.TID 0000.0001) %MON forcing_fu_sd                =   6.2619956599027E-02
(PID.TID 0000.0001) %MON forcing_fu_del2              =   6.1914914161508E-04
(PID.TID 0000.0001) %MON forcing_fv_max               =   3.0320644896685E-01
(PID.TID 0000.0001) %MON forcing_fv_min               =  -2.6490817122030E-01
(PID.TID 0000.0001) %MON forcing_fv_mean              =  -1.5188559600870E-02
(PID.TID 0000.0001) %MON forcing_fv_sd                =   6.1641446015076E-02
(PID.TID 0000.0001) %MON forcing_fv_del2              =   5.3635881502158E-04
(PID.TID 0000.0001) %MON trAdv_CFL_u_max              =   2.3591948211513E-03
(PID.TID 0000.0001) %MON trAdv_CFL_v_max              =   1.9838814415687E-03
(PID.TID 0000.0001) %MON trAdv_CFL_w_max              =   1.8953662941686E-03
(PID.TID 0000.0001) %MON advcfl_uvel_max              =   2.3459641502973E-03
(PID.TID 0000.0001) %MON advcfl_vvel_max              =   1.8592152673186E-03
(PID.TID 0000.0001) %MON advcfl_wvel_max              =   2.8880920099175E-03
(PID.TID 0000.0001) %MON advcfl_W_hf_max              =   1.8953662941686E-03
(PID.TID 0000.0001) %MON pe_b_mean                    =   4.9909778695367E-04
(PID.TID 0000.0001) %MON ke_max                       =   2.6670951228399E-01
(PID.TID 0000.0001) %MON ke_mean                      =   1.6702632647085E-04
(PID.TID 0000.0001) %MON ke_vol                       =   1.3398133080789E+18
(PID.TID 0000.0001) %MON vort_r_min                   =  -4.6689344870762E-06
(PID.TID 0000.0001) %MON vort_r_max                   =   2.8638492148813E-06
(PID.TID 0000.0001) %MON vort_a_mean                  =  -2.0549865324846E-05
(PID.TID 0000.0001) %MON vort_a_sd                    =   7.5259740970364E-05
(PID.TID 0000.0001) %MON vort_p_mean                  =  -2.4783266600979E-05
(PID.TID 0000.0001) %MON vort_p_sd                    =   1.2811909036054E-04
(PID.TID 0000.0001) %MON surfExpan_theta_mean         =  -6.6999305041890E-06
(PID.TID 0000.0001) %MON surfExpan_salt_mean          =   1.3375561242251E-06
(PID.TID 0000.0001) // =======================================================
(PID.TID 0000.0001) // End MONITOR dynamic field statistics
(PID.TID 0000.0001) // =======================================================
 cg2d: Sum(rhs),rhsMax =  -7.14176763512464E+01  3.64997690287840E+01
(PID.TID 0000.0001)      cg2d_init_res =   2.80420955910578E-01
(PID.TID 0000.0001)      cg2d_iters(min,last) =      -1      10
(PID.TID 0000.0001)      cg2d_last_res =   8.38370660849330E-08
(PID.TID 0000.0001) // =======================================================
(PID.TID 0000.0001) // Begin MONITOR dynamic field statistics
(PID.TID 0000.0001) // =======================================================
(PID.TID 0000.0001) %MON time_tsnumber                =                 72065
(PID.TID 0000.0001) %MON time_secondsf                =   6.4858500000000E+07
(PID.TID 0000.0001) %MON dynstat_eta_max              =   1.0488193737367E+00
(PID.TID 0000.0001) %MON dynstat_eta_min              =  -1.5760424114141E+00
(PID.TID 0000.0001) %MON dynstat_eta_mean             =   3.0289841818196E-02
(PID.TID 0000.0001) %MON dynstat_eta_sd               =   6.1131816018244E-01
(PID.TID 0000.0001) %MON dynstat_eta_del2             =   1.3867241918751E-03
(PID.TID 0000.0001) %MON dynstat_uvel_max             =   6.4046282704139E-01
(PID.TID 0000.0001) %MON dynstat_uvel_min             =  -8.1507129338595E-01
(PID.TID 0000.0001) %MON dynstat_uvel_mean            =  -2.9649353251563E-04
(PID.TID 0000.0001) %MON dynstat_uvel_sd              =   1.3093344363502E-02
(PID.TID 0000.0001) %MON dynstat_uvel_del2            =   9.5540715004384E-05
(PID.TID 0000.0001) %MON dynstat_vvel_max             =   4.7940345112330E-01
(PID.TID 0000.0001) %MON dynstat_vvel_min             =  -6.2194126722860E-01
(PID.TID 0000.0001) %MON dynstat_vvel_mean            =   5.4190128716998E-04
(PID.TID 0000.0001) %MON dynstat_vvel_sd              =   1.3770398200813E-02
(PID.TID 0000.0001) %MON dynstat_vvel_del2            =   9.8628850841395E-05
(PID.TID 0000.0001) %MON dynstat_wvel_max             =   1.1040103268956E-04
(PID.TID 0000.0001) %MON dynstat_wvel_min             =  -1.9110188766464E-04
(PID.TID 0000.0001) %MON dynstat_wvel_mean            =  -2.4708706169140E-07
(PID.TID 0000.0001) %MON dynstat_wvel_sd              =   7.8945697068900E-06
(PID.TID 0000.0001) %MON dynstat_wvel_del2            =   7.2362236368001E-08
(PID.TID 0000.0001) %MON dynstat_theta_max            =   3.0925906904841E+01
(PID.TID 0000.0001) %MON dynstat_theta_min            =  -3.0075737734780E+00
(PID.TID 0000.0001) %MON dynstat_theta_mean           =   3.9091599077203E+00
(PID.TID 0000.0001) %MON dynstat_theta_sd             =   4.5714892101098E+00
(PID.TID 0000.0001) %MON dynstat_theta_del2           =   2.6407964568146E-03
(PID.TID 0000.0001) %MON dynstat_salt_max             =   4.1347599056440E+01
(PID.TID 0000.0001) %MON dynstat_salt_min             =   1.8519032608067E+01
(PID.TID 0000.0001) %MON dynstat_salt_mean            =   3.4771931154466E+01
(PID.TID 0000.0001) %MON dynstat_salt_sd              =   5.3203389849374E-01
(PID.TID 0000.0001) %MON dynstat_salt_del2            =   1.0811148172519E-03
(PID.TID 0000.0001) %MON dynstat_sst_max              =   3.0925906904841E+01
(PID.TID 0000.0001) %MON dynstat_sst_min              =  -1.8986072500910E+00
(PID.TID 0000.0001) %MON dynstat_sst_mean             =   1.8107739594742E+01
(PID.TID 0000.0001) %MON dynstat_sst_sd               =   9.8118687826297E+00
(PID.TID 0000.0001) %MON dynstat_sst_del2             =   1.5011041896014E-02
(PID.TID 0000.0001) %MON dynstat_sss_max              =   4.1347599056440E+01
(PID.TID 0000.0001) %MON dynstat_sss_min              =   1.8752126201775E+01
(PID.TID 0000.0001) %MON dynstat_sss_mean             =   3.4622855093851E+01
(PID.TID 0000.0001) %MON dynstat_sss_sd               =   1.4845198664007E+00
(PID.TID 0000.0001) %MON dynstat_sss_del2             =   1.2122295691377E-02
(PID.TID 0000.0001) %MON forcing_qnet_max             =   1.8368880615234E+03
(PID.TID 0000.0001) %MON forcing_qnet_min             =  -1.0963094482422E+03
(PID.TID 0000.0001) %MON forcing_qnet_mean            =  -5.8486092253143E+00
(PID.TID 0000.0001) %MON forcing_qnet_sd              =   2.1596348485714E+02
(PID.TID 0000.0001) %MON forcing_qnet_del2            =   3.9625560052284E+00
(PID.TID 0000.0001) %MON forcing_qsw_max              =   0.0000000000000E+00
(PID.TID 0000.0001) %MON forcing_qsw_min              =  -1.0668329783816E+02
(PID.TID 0000.0001) %MON forcing_qsw_mean             =  -1.5415317171294E+01
(PID.TID 0000.0001) %MON forcing_qsw_sd               =   2.7393579354568E+01
(PID.TID 0000.0001) %MON forcing_qsw_del2             =   2.2740244925255E-01
(PID.TID 0000.0001) %MON forcing_empmr_max            =   5.7164696045220E-03
(PID.TID 0000.0001) %MON forcing_empmr_min            =  -8.2177609205246E-02
(PID.TID 0000.0001) %MON forcing_empmr_mean           =  -2.5068886920476E-04
(PID.TID 0000.0001) %MON forcing_empmr_sd             =   3.6211060083822E-03
(PID.TID 0000.0001) %MON forcing_empmr_del2           =   1.4275386575256E-04
(PID.TID 0000.0001) %MON forcing_fu_max               =   3.5837696314091E-01
(PID.TID 0000.0001) %MON forcing_fu_min               =  -3.7422434991950E-01
(PID.TID 0000.0001) %MON forcing_fu_mean              =  -3.3047134718578E-03
(PID.TID 0000.0001) %MON forcing_fu_sd                =   6.2544809983640E-02
(PID.TID 0000.0001) %MON forcing_fu_del2              =   6.1806023444247E-04
(PID.TID 0000.0001) %MON forcing_fv_max               =   3.1229420460051E-01
(PID.TID 0000.0001) %MON forcing_fv_min               =  -2.6243345943129E-01
(PID.TID 0000.0001) %MON forcing_fv_mean              =  -1.5145266159184E-02
(PID.TID 0000.0001) %MON forcing_fv_sd                =   6.1611024704755E-02
(PID.TID 0000.0001) %MON forcing_fv_del2              =   5.3577241368737E-04
(PID.TID 0000.0001) %MON trAdv_CFL_u_max              =   2.3840471908629E-03
(PID.TID 0000.0001) %MON trAdv_CFL_v_max              =   1.8808575424511E-03
(PID.TID 0000.0001) %MON trAdv_CFL_w_max              =   1.8916792274958E-03
(PID.TID 0000.0001) %MON advcfl_uvel_max              =   2.3686046400485E-03
(PID.TID 0000.0001) %MON advcfl_vvel_max              =   1.8183735603735E-03
(PID.TID 0000.0001) %MON advcfl_wvel_max              =   2.8583516245303E-03
(PID.TID 0000.0001) %MON advcfl_W_hf_max              =   1.8916792274958E-03
(PID.TID 0000.0001) %MON pe_b_mean                    =   4.9906880705315E-04
(PID.TID 0000.0001) %MON ke_max                       =   2.6596014422631E-01
(PID.TID 0000.0001) %MON ke_mean                      =   1.6690995560127E-04
(PID.TID 0000.0001) %MON ke_vol                       =   1.3398133881107E+18
(PID.TID 0000.0001) %MON vort_r_min                   =  -4.6491678193724E-06
(PID.TID 0000.0001) %MON vort_r_max                   =   2.7649141564887E-06
(PID.TID 0000.0001) %MON vort_a_mean                  =  -2.0549865324846E-05
(PID.TID 0000.0001) %MON vort_a_sd                    =   7.5259741198863E-05
(PID.TID 0000.0001) %MON vort_p_mean                  =  -2.4783264796908E-05
(PID.TID 0000.0001) %MON vort_p_sd                    =   1.2811911932697E-04
(PID.TID 0000.0001) %MON surfExpan_theta_mean         =  -6.5915046831182E-06
(PID.TID 0000.0001) %MON surfExpan_salt_mean          =   1.3315586283784E-06
(PID.TID 0000.0001) // =======================================================
(PID.TID 0000.0001) // End MONITOR dynamic field statistics
(PID.TID 0000.0001) // =======================================================
 cg2d: Sum(rhs),rhsMax =  -7.20290940718371E+01  3.64487688184841E+01
(PID.TID 0000.0001)      cg2d_init_res =   2.71348955403434E-01
(PID.TID 0000.0001)      cg2d_iters(min,last) =      -1      10
(PID.TID 0000.0001)      cg2d_last_res =   7.59002604953085E-08
(PID.TID 0000.0001) // =======================================================
(PID.TID 0000.0001) // Begin MONITOR dynamic field statistics
(PID.TID 0000.0001) // =======================================================
(PID.TID 0000.0001) %MON time_tsnumber                =                 72066
(PID.TID 0000.0001) %MON time_secondsf                =   6.4859400000000E+07
(PID.TID 0000.0001) %MON dynstat_eta_max              =   1.0485099949950E+00
(PID.TID 0000.0001) %MON dynstat_eta_min              =  -1.5739189740971E+00
(PID.TID 0000.0001) %MON dynstat_eta_mean             =   3.0506472245781E-02
(PID.TID 0000.0001) %MON dynstat_eta_sd               =   6.1132381513685E-01
(PID.TID 0000.0001) %MON dynstat_eta_del2             =   1.4179280302709E-03
(PID.TID 0000.0001) %MON dynstat_uvel_max             =   5.9779920932300E-01
(PID.TID 0000.0001) %MON dynstat_uvel_min             =  -8.2000164284393E-01
(PID.TID 0000.0001) %MON dynstat_uvel_mean            =  -2.8964247956295E-04
(PID.TID 0000.0001) %MON dynstat_uvel_sd              =   1.3111036786191E-02
(PID.TID 0000.0001) %MON dynstat_uvel_del2            =   9.4677946460388E-05
(PID.TID 0000.0001) %MON dynstat_vvel_max             =   4.1811058802078E-01
(PID.TID 0000.0001) %MON dynstat_vvel_min             =  -6.0464137370491E-01
(PID.TID 0000.0001) %MON dynstat_vvel_mean            =   5.3426723394868E-04
(PID.TID 0000.0001) %MON dynstat_vvel_sd              =   1.3740821940643E-02
(PID.TID 0000.0001) %MON dynstat_vvel_del2            =   9.6906526543655E-05
(PID.TID 0000.0001) %MON dynstat_wvel_max             =   1.0848855884047E-04
(PID.TID 0000.0001) %MON dynstat_wvel_min             =  -1.9113767102407E-04
(PID.TID 0000.0001) %MON dynstat_wvel_mean            =  -2.2912802874717E-07
(PID.TID 0000.0001) %MON dynstat_wvel_sd              =   7.8699684150275E-06
(PID.TID 0000.0001) %MON dynstat_wvel_del2            =   7.1712490216532E-08
(PID.TID 0000.0001) %MON dynstat_theta_max            =   3.0925835584414E+01
(PID.TID 0000.0001) %MON dynstat_theta_min            =  -3.0077653165871E+00
(PID.TID 0000.0001) %MON dynstat_theta_mean           =   3.9091616860175E+00
(PID.TID 0000.0001) %MON dynstat_theta_sd             =   4.5714947883113E+00
(PID.TID 0000.0001) %MON dynstat_theta_del2           =   2.6406766051999E-03
(PID.TID 0000.0001) %MON dynstat_salt_max             =   4.1347509048935E+01
(PID.TID 0000.0001) %MON dynstat_salt_min             =   1.8519042829872E+01
(PID.TID 0000.0001) %MON dynstat_salt_mean            =   3.4771929074539E+01
(PID.TID 0000.0001) %MON dynstat_salt_sd              =   5.3204742479739E-01
(PID.TID 0000.0001) %MON dynstat_salt_del2            =   1.0843335371826E-03
(PID.TID 0000.0001) %MON dynstat_sst_max              =   3.0925835584414E+01
(PID.TID 0000.0001) %MON dynstat_sst_min              =  -1.8987339410359E+00
(PID.TID 0000.0001) %MON dynstat_sst_mean             =   1.8107772326509E+01
(PID.TID 0000.0001) %MON dynstat_sst_sd               =   9.8119375798121E+00
(PID.TID 0000.0001) %MON dynstat_sst_del2             =   1.5009065543739E-02
(PID.TID 0000.0001) %MON dynstat_sss_max              =   4.1347509048935E+01
(PID.TID 0000.0001) %MON dynstat_sss_min              =   1.8752145930468E+01
(PID.TID 0000.0001) %MON dynstat_sss_mean             =   3.4622699274238E+01
(PID.TID 0000.0001) %MON dynstat_sss_sd               =   1.4848670982638E+00
(PID.TID 0000.0001) %MON dynstat_sss_del2             =   1.2167650079864E-02
(PID.TID 0000.0001) %MON forcing_qnet_max             =   1.8152709960938E+03
(PID.TID 0000.0001) %MON forcing_qnet_min             =  -1.2690093994141E+03
(PID.TID 0000.0001) %MON forcing_qnet_mean            =  -7.4046669347026E+00
(PID.TID 0000.0001) %MON forcing_qnet_sd              =   2.1709214257932E+02
(PID.TID 0000.0001) %MON forcing_qnet_del2            =   3.8566335358671E+00
(PID.TID 0000.0001) %MON forcing_qsw_max              =   0.0000000000000E+00
(PID.TID 0000.0001) %MON forcing_qsw_min              =  -1.0709853019563E+02
(PID.TID 0000.0001) %MON forcing_qsw_mean             =  -1.5563040254053E+01
(PID.TID 0000.0001) %MON forcing_qsw_sd               =   2.7640474140746E+01
(PID.TID 0000.0001) %MON forcing_qsw_del2             =   2.3052820930575E-01
(PID.TID 0000.0001) %MON forcing_empmr_max            =   5.6576244533062E-03
(PID.TID 0000.0001) %MON forcing_empmr_min            =  -8.1330977380276E-02
(PID.TID 0000.0001) %MON forcing_empmr_mean           =  -2.4912499172262E-04
(PID.TID 0000.0001) %MON forcing_empmr_sd             =   3.5840422132033E-03
(PID.TID 0000.0001) %MON forcing_empmr_del2           =   1.4130714615908E-04
(PID.TID 0000.0001) %MON forcing_fu_max               =   3.5663337441703E-01
(PID.TID 0000.0001) %MON forcing_fu_min               =  -3.7306528993513E-01
(PID.TID 0000.0001) %MON forcing_fu_mean              =  -3.3092175717925E-03
(PID.TID 0000.0001) %MON forcing_fu_sd                =   6.2490217206358E-02
(PID.TID 0000.0001) %MON forcing_fu_del2              =   6.1692890683664E-04
(PID.TID 0000.0001) %MON forcing_fv_max               =   3.1334110002119E-01
(PID.TID 0000.0001) %MON forcing_fv_min               =  -2.6022575408976E-01
(PID.TID 0000.0001) %MON forcing_fv_mean              =  -1.5131647478583E-02
(PID.TID 0000.0001) %MON forcing_fv_sd                =   6.1517236913378E-02
(PID.TID 0000.0001) %MON forcing_fv_del2              =   5.3549628999320E-04
(PID.TID 0000.0001) %MON trAdv_CFL_u_max              =   2.4006863234518E-03
(PID.TID 0000.0001) %MON trAdv_CFL_v_max              =   1.7759938404355E-03
(PID.TID 0000.0001) %MON trAdv_CFL_w_max              =   1.8827127847872E-03
(PID.TID 0000.0001) %MON advcfl_uvel_max              =   2.3829322807077E-03
(PID.TID 0000.0001) %MON advcfl_vvel_max              =   1.7677937538253E-03
(PID.TID 0000.0001) %MON advcfl_wvel_max              =   2.8289035610531E-03
(PID.TID 0000.0001) %MON advcfl_W_hf_max              =   1.8827127847872E-03
(PID.TID 0000.0001) %MON pe_b_mean                    =   4.9909553330623E-04
(PID.TID 0000.0001) %MON ke_max                       =   2.6335796827538E-01
(PID.TID 0000.0001) %MON ke_mean                      =   1.6673980104593E-04
(PID.TID 0000.0001) %MON ke_vol                       =   1.3398134674345E+18
(PID.TID 0000.0001) %MON vort_r_min                   =  -4.6093831855065E-06
(PID.TID 0000.0001) %MON vort_r_max                   =   2.6369026532763E-06
(PID.TID 0000.0001) %MON vort_a_mean                  =  -2.0549865324846E-05
(PID.TID 0000.0001) %MON vort_a_sd                    =   7.5259740677408E-05
(PID.TID 0000.0001) %MON vort_p_mean                  =  -2.4783263053765E-05
(PID.TID 0000.0001) %MON vort_p_sd                    =   1.2811914522951E-04
(PID.TID 0000.0001) %MON surfExpan_theta_mean         =  -6.5114232676886E-06
(PID.TID 0000.0001) %MON surfExpan_salt_mean          =   1.3222914739071E-06
(PID.TID 0000.0001) // =======================================================
(PID.TID 0000.0001) // End MONITOR dynamic field statistics
(PID.TID 0000.0001) // =======================================================
 cg2d: Sum(rhs),rhsMax =  -7.26362929285118E+01  3.63973223621763E+01
(PID.TID 0000.0001)      cg2d_init_res =   2.61027468216231E-01
(PID.TID 0000.0001)      cg2d_iters(min,last) =      -1      10
(PID.TID 0000.0001)      cg2d_last_res =   5.73456120056819E-08
(PID.TID 0000.0001) // =======================================================
(PID.TID 0000.0001) // Begin MONITOR dynamic field statistics
(PID.TID 0000.0001) // =======================================================
(PID.TID 0000.0001) %MON time_tsnumber                =                 72067
(PID.TID 0000.0001) %MON time_secondsf                =   6.4860300000000E+07
(PID.TID 0000.0001) %MON dynstat_eta_max              =   1.0467343351923E+00
(PID.TID 0000.0001) %MON dynstat_eta_min              =  -1.5717725860793E+00
(PID.TID 0000.0001) %MON dynstat_eta_mean             =   3.0720217044838E-02
(PID.TID 0000.0001) %MON dynstat_eta_sd               =   6.1135644095865E-01
(PID.TID 0000.0001) %MON dynstat_eta_del2             =   1.4607821031313E-03
(PID.TID 0000.0001) %MON dynstat_uvel_max             =   5.5293749217892E-01
(PID.TID 0000.0001) %MON dynstat_uvel_min             =  -8.2188002487709E-01
(PID.TID 0000.0001) %MON dynstat_uvel_mean            =  -2.8504948264918E-04
(PID.TID 0000.0001) %MON dynstat_uvel_sd              =   1.3123393843176E-02
(PID.TID 0000.0001) %MON dynstat_uvel_del2            =   9.3736418333367E-05
(PID.TID 0000.0001) %MON dynstat_vvel_max             =   3.6433859005475E-01
(PID.TID 0000.0001) %MON dynstat_vvel_min             =  -5.8410734616984E-01
(PID.TID 0000.0001) %MON dynstat_vvel_mean            =   5.2401413307348E-04
(PID.TID 0000.0001) %MON dynstat_vvel_sd              =   1.3713026411842E-02
(PID.TID 0000.0001) %MON dynstat_vvel_del2            =   9.4952889673460E-05
(PID.TID 0000.0001) %MON dynstat_wvel_max             =   1.0639835866692E-04
(PID.TID 0000.0001) %MON dynstat_wvel_min             =  -1.9117233140791E-04
(PID.TID 0000.0001) %MON dynstat_wvel_mean            =  -2.1220861653886E-07
(PID.TID 0000.0001) %MON dynstat_wvel_sd              =   7.8466022601288E-06
(PID.TID 0000.0001) %MON dynstat_wvel_del2            =   7.1125529060073E-08
(PID.TID 0000.0001) %MON dynstat_theta_max            =   3.0925758342046E+01
(PID.TID 0000.0001) %MON dynstat_theta_min            =  -3.0079687255272E+00
(PID.TID 0000.0001) %MON dynstat_theta_mean           =   3.9091635509469E+00
(PID.TID 0000.0001) %MON dynstat_theta_sd             =   4.5715006991118E+00
(PID.TID 0000.0001) %MON dynstat_theta_del2           =   2.6405619526902E-03
(PID.TID 0000.0001) %MON dynstat_salt_max             =   4.1347430175735E+01
(PID.TID 0000.0001) %MON dynstat_salt_min             =   1.8519053033307E+01
(PID.TID 0000.0001) %MON dynstat_salt_mean            =   3.4771927039232E+01
(PID.TID 0000.0001) %MON dynstat_salt_sd              =   5.3206076871115E-01
(PID.TID 0000.0001) %MON dynstat_salt_del2            =   1.0874927792978E-03
(PID.TID 0000.0001) %MON dynstat_sst_max              =   3.0925758342046E+01
(PID.TID 0000.0001) %MON dynstat_sst_min              =  -1.8988513855883E+00
(PID.TID 0000.0001) %MON dynstat_sst_mean             =   1.8107811471834E+01
(PID.TID 0000.0001) %MON dynstat_sst_sd               =   9.8120093674101E+00
(PID.TID 0000.0001) %MON dynstat_sst_del2             =   1.5007218936406E-02
(PID.TID 0000.0001) %MON dynstat_sss_max              =   4.1347430175735E+01
(PID.TID 0000.0001) %MON dynstat_sss_min              =   1.8752165297507E+01
(PID.TID 0000.0001) %MON dynstat_sss_mean             =   3.4622546355360E+01
(PID.TID 0000.0001) %MON dynstat_sss_sd               =   1.4852099529354E+00
(PID.TID 0000.0001) %MON dynstat_sss_del2             =   1.2212135704730E-02
(PID.TID 0000.0001) %MON forcing_qnet_max             =   1.7949196777344E+03
(PID.TID 0000.0001) %MON forcing_qnet_min             =  -1.7148074951172E+03
(PID.TID 0000.0001) %MON forcing_qnet_mean            =  -9.1729277264576E+00
(PID.TID 0000.0001) %MON forcing_qnet_sd              =   2.1885239052320E+02
(PID.TID 0000.0001) %MON forcing_qnet_del2            =   3.8509621420396E+00
(PID.TID 0000.0001) %MON forcing_qsw_max              =   0.0000000000000E+00
(PID.TID 0000.0001) %MON forcing_qsw_min              =  -1.0765200941680E+02
(PID.TID 0000.0001) %MON forcing_qsw_mean             =  -1.5681748982950E+01
(PID.TID 0000.0001) %MON forcing_qsw_sd               =   2.7819032814867E+01
(PID.TID 0000.0001) %MON forcing_qsw_del2             =   2.3317264448505E-01
(PID.TID 0000.0001) %MON forcing_empmr_max            =   5.5992705747485E-03
(PID.TID 0000.0001) %MON forcing_empmr_min            =  -8.0493561923504E-02
(PID.TID 0000.0001) %MON forcing_empmr_mean           =  -2.4580651891514E-04
(PID.TID 0000.0001) %MON forcing_empmr_sd             =   3.5473764260360E-03
(PID.TID 0000.0001) %MON forcing_empmr_del2           =   1.3988638253212E-04
(PID.TID 0000.0001) %MON forcing_fu_max               =   3.5033860117520E-01
(PID.TID 0000.0001) %MON forcing_fu_min               =  -3.7206194443401E-01
(PID.TID 0000.0001) %MON forcing_fu_mean              =  -3.3007084078818E-03
(PID.TID 0000.0001) %MON forcing_fu_sd                =   6.2412553972383E-02
(PID.TID 0000.0001) %MON forcing_fu_del2              =   6.1477413827493E-04
(PID.TID 0000.0001) %MON forcing_fv_max               =   2.9381649677329E-01
(PID.TID 0000.0001) %MON forcing_fv_min               =  -2.5817387255431E-01
(PID.TID 0000.0001) %MON forcing_fv_mean              =  -1.5163221250952E-02
(PID.TID 0000.0001) %MON forcing_fv_sd                =   6.1308173242087E-02
(PID.TID 0000.0001) %MON forcing_fv_del2              =   5.3220666017790E-04
(PID.TID 0000.0001) %MON trAdv_CFL_u_max              =   2.4085046663722E-03
(PID.TID 0000.0001) %MON trAdv_CFL_v_max              =   1.7179536809540E-03
(PID.TID 0000.0001) %MON trAdv_CFL_w_max              =   1.8685084844874E-03
(PID.TID 0000.0001) %MON advcfl_uvel_max              =   2.3883908760915E-03
(PID.TID 0000.0001) %MON advcfl_vvel_max              =   1.7077582895055E-03
(PID.TID 0000.0001) %MON advcfl_wvel_max              =   2.7997760669045E-03
(PID.TID 0000.0001) %MON advcfl_W_hf_max              =   1.8685084844874E-03
(PID.TID 0000.0001) %MON pe_b_mean                    =   4.9916607962253E-04
(PID.TID 0000.0001) %MON ke_max                       =   2.5882547721811E-01
(PID.TID 0000.0001) %MON ke_mean                      =   1.6652846955716E-04
(PID.TID 0000.0001) %MON ke_vol                       =   1.3398135462634E+18
(PID.TID 0000.0001) %MON vort_r_min                   =  -4.5492712052824E-06
(PID.TID 0000.0001) %MON vort_r_max                   =   2.4827180001845E-06
(PID.TID 0000.0001) %MON vort_a_mean                  =  -2.0549865324846E-05
(PID.TID 0000.0001) %MON vort_a_sd                    =   7.5259739454997E-05
(PID.TID 0000.0001) %MON vort_p_mean                  =  -2.4783261356921E-05
(PID.TID 0000.0001) %MON vort_p_sd                    =   1.2811916697084E-04
(PID.TID 0000.0001) %MON surfExpan_theta_mean         =  -6.4075373669060E-06
(PID.TID 0000.0001) %MON surfExpan_salt_mean          =   1.3116014238741E-06
(PID.TID 0000.0001) // =======================================================
(PID.TID 0000.0001) // End MONITOR dynamic field statistics
(PID.TID 0000.0001) // =======================================================
 Computing Diagnostic #     81  oceTAUX      Counter:       1   Parms: UU      U1      
           Vector  Mate for  oceTAUX      Diagnostic #     82  oceTAUY  exists 
 Computing Diagnostic #     82  oceTAUY      Counter:       1   Parms: VV      U1      
           Vector  Mate for  oceTAUY      Diagnostic #     81  oceTAUX  exists 
 Computing Diagnostic #     85  oceFWflx     Counter:       1   Parms: SM      U1      
 Computing Diagnostic #     86  oceSflux     Counter:       1   Parms: SM      U1      
 Computing Diagnostic #     87  oceQnet      Counter:       1   Parms: SM      U1      
 Computing Diagnostic #     88  oceQsw       Counter:       1   Parms: SM      U1      
 Computing Diagnostic #     27  SALT         Counter:       1   Parms: SMR     MR      
 Computing Diagnostic #     26  THETA        Counter:       1   Parms: SMR     MR      
 Computing Diagnostic #     45  UVELMASS     Counter:       1   Parms: UUr     MR      
           Vector  Mate for  UVELMASS     Diagnostic #     46  VVELMASS exists 
 Computing Diagnostic #     46  VVELMASS     Counter:       1   Parms: VVr     MR      
           Vector  Mate for  VVELMASS     Diagnostic #     45  UVELMASS exists 
 Computing Diagnostic #     83  atmPload     Counter:       1   Parms: SM      U1      
 cg2d: Sum(rhs),rhsMax =  -7.32352720299960E+01  3.63475059377694E+01
(PID.TID 0000.0001)      cg2d_init_res =   2.49844508636892E-01
(PID.TID 0000.0001)      cg2d_iters(min,last) =      -1      10
(PID.TID 0000.0001)      cg2d_last_res =   4.85366754980925E-08
(PID.TID 0000.0001) // =======================================================
(PID.TID 0000.0001) // Begin MONITOR dynamic field statistics
(PID.TID 0000.0001) // =======================================================
(PID.TID 0000.0001) %MON time_tsnumber                =                 72068
(PID.TID 0000.0001) %MON time_secondsf                =   6.4861200000000E+07
(PID.TID 0000.0001) %MON dynstat_eta_max              =   1.0856400350145E+00
(PID.TID 0000.0001) %MON dynstat_eta_min              =  -1.6871216318801E+00
(PID.TID 0000.0001) %MON dynstat_eta_mean             =   3.0931151522816E-02
(PID.TID 0000.0001) %MON dynstat_eta_sd               =   6.1140855264559E-01
(PID.TID 0000.0001) %MON dynstat_eta_del2             =   1.5097916476606E-03
(PID.TID 0000.0001) %MON dynstat_uvel_max             =   5.4394233267150E-01
(PID.TID 0000.0001) %MON dynstat_uvel_min             =  -8.2055064434995E-01
(PID.TID 0000.0001) %MON dynstat_uvel_mean            =  -2.8260604634043E-04
(PID.TID 0000.0001) %MON dynstat_uvel_sd              =   1.3130654611036E-02
(PID.TID 0000.0001) %MON dynstat_uvel_del2            =   9.2741565731637E-05
(PID.TID 0000.0001) %MON dynstat_vvel_max             =   3.5162599748810E-01
(PID.TID 0000.0001) %MON dynstat_vvel_min             =  -5.6046193037933E-01
(PID.TID 0000.0001) %MON dynstat_vvel_mean            =   5.1146050345072E-04
(PID.TID 0000.0001) %MON dynstat_vvel_sd              =   1.3687968685117E-02
(PID.TID 0000.0001) %MON dynstat_vvel_del2            =   9.2882247449488E-05
(PID.TID 0000.0001) %MON dynstat_wvel_max             =   1.0460551344717E-04
(PID.TID 0000.0001) %MON dynstat_wvel_min             =  -1.9119765807678E-04
(PID.TID 0000.0001) %MON dynstat_wvel_mean            =  -1.9778650223814E-07
(PID.TID 0000.0001) %MON dynstat_wvel_sd              =   7.8248325063072E-06
(PID.TID 0000.0001) %MON dynstat_wvel_del2            =   7.0611058423199E-08
(PID.TID 0000.0001) %MON dynstat_theta_max            =   3.0925674993996E+01
(PID.TID 0000.0001) %MON dynstat_theta_min            =  -3.0081885005920E+00
(PID.TID 0000.0001) %MON dynstat_theta_mean           =   3.9091654775465E+00
(PID.TID 0000.0001) %MON dynstat_theta_sd             =   4.5715068767399E+00
(PID.TID 0000.0001) %MON dynstat_theta_del2           =   2.6404448240333E-03
(PID.TID 0000.0001) %MON dynstat_salt_max             =   4.1347360887562E+01
(PID.TID 0000.0001) %MON dynstat_salt_min             =   1.8519063216739E+01
(PID.TID 0000.0001) %MON dynstat_salt_mean            =   3.4771925031016E+01
(PID.TID 0000.0001) %MON dynstat_salt_sd              =   5.3207391438980E-01
(PID.TID 0000.0001) %MON dynstat_salt_del2            =   1.0905895487480E-03
(PID.TID 0000.0001) %MON dynstat_sst_max              =   3.0925674993996E+01
(PID.TID 0000.0001) %MON dynstat_sst_min              =  -1.8989589475179E+00
(PID.TID 0000.0001) %MON dynstat_sst_mean             =   1.8107854336245E+01
(PID.TID 0000.0001) %MON dynstat_sst_sd               =   9.8120848767888E+00
(PID.TID 0000.0001) %MON dynstat_sst_del2             =   1.5005282791789E-02
(PID.TID 0000.0001) %MON dynstat_sss_max              =   4.1347360887562E+01
(PID.TID 0000.0001) %MON dynstat_sss_min              =   1.8752184265185E+01
(PID.TID 0000.0001) %MON dynstat_sss_mean             =   3.4622394955086E+01
(PID.TID 0000.0001) %MON dynstat_sss_sd               =   1.4855477414506E+00
(PID.TID 0000.0001) %MON dynstat_sss_del2             =   1.2255711706565E-02
(PID.TID 0000.0001) %MON forcing_qnet_max             =   1.7738165283203E+03
(PID.TID 0000.0001) %MON forcing_qnet_min             =  -1.0528326416016E+03
(PID.TID 0000.0001) %MON forcing_qnet_mean            =  -1.0375452079578E+01
(PID.TID 0000.0001) %MON forcing_qnet_sd              =   2.1780070947375E+02
(PID.TID 0000.0001) %MON forcing_qnet_del2            =   3.6865386432192E+00
(PID.TID 0000.0001) %MON forcing_qsw_max              =   0.0000000000000E+00
(PID.TID 0000.0001) %MON forcing_qsw_min              =  -1.0812632126179E+02
(PID.TID 0000.0001) %MON forcing_qsw_mean             =  -1.5772496226599E+01
(PID.TID 0000.0001) %MON forcing_qsw_sd               =   2.7926781173905E+01
(PID.TID 0000.0001) %MON forcing_qsw_del2             =   2.3530340738649E-01
(PID.TID 0000.0001) %MON forcing_empmr_max            =   5.5416058748960E-03
(PID.TID 0000.0001) %MON forcing_empmr_min            =  -7.9664543271065E-02
(PID.TID 0000.0001) %MON forcing_empmr_mean           =  -2.4257464967546E-04
(PID.TID 0000.0001) %MON forcing_empmr_sd             =   3.5092220654352E-03
(PID.TID 0000.0001) %MON forcing_empmr_del2           =   1.3843441737339E-04
(PID.TID 0000.0001) %MON forcing_fu_max               =   3.4575775185936E-01
(PID.TID 0000.0001) %MON forcing_fu_min               =  -3.7109748208946E-01
(PID.TID 0000.0001) %MON forcing_fu_mean              =  -3.2890010069649E-03
(PID.TID 0000.0001) %MON forcing_fu_sd                =   6.2405594931028E-02
(PID.TID 0000.0001) %MON forcing_fu_del2              =   6.1321472657729E-04
(PID.TID 0000.0001) %MON forcing_fv_max               =   2.7822278431284E-01
(PID.TID 0000.0001) %MON forcing_fv_min               =  -2.5663556344129E-01
(PID.TID 0000.0001) %MON forcing_fv_mean              =  -1.5161665407062E-02
(PID.TID 0000.0001) %MON forcing_fv_sd                =   6.1116416471987E-02
(PID.TID 0000.0001) %MON forcing_fv_del2              =   5.3033395838677E-04
(PID.TID 0000.0001) %MON trAdv_CFL_u_max              =   2.4069912141229E-03
(PID.TID 0000.0001) %MON trAdv_CFL_v_max              =   1.6504505322525E-03
(PID.TID 0000.0001) %MON trAdv_CFL_w_max              =   1.8491347099629E-03
(PID.TID 0000.0001) %MON advcfl_uvel_max              =   2.3845276841100E-03
(PID.TID 0000.0001) %MON advcfl_vvel_max              =   1.6386260399458E-03
(PID.TID 0000.0001) %MON advcfl_wvel_max              =   2.7709406355153E-03
(PID.TID 0000.0001) %MON advcfl_W_hf_max              =   1.8491347099629E-03
(PID.TID 0000.0001) %MON pe_b_mean                    =   4.9926826133197E-04
(PID.TID 0000.0001) %MON ke_max                       =   2.5234358326045E-01
(PID.TID 0000.0001) %MON ke_mean                      =   1.6629084993359E-04
(PID.TID 0000.0001) %MON ke_vol                       =   1.3398136240423E+18
(PID.TID 0000.0001) %MON vort_r_min                   =  -4.4687222631056E-06
(PID.TID 0000.0001) %MON vort_r_max                   =   2.3055235397544E-06
(PID.TID 0000.0001) %MON vort_a_mean                  =  -2.0549865324846E-05
(PID.TID 0000.0001) %MON vort_a_sd                    =   7.5259737592803E-05
(PID.TID 0000.0001) %MON vort_p_mean                  =  -2.4783259706439E-05
(PID.TID 0000.0001) %MON vort_p_sd                    =   1.2811918403276E-04
(PID.TID 0000.0001) %MON surfExpan_theta_mean         =  -6.3280025739934E-06
(PID.TID 0000.0001) %MON surfExpan_salt_mean          =   1.2973981503256E-06
(PID.TID 0000.0001) // =======================================================
(PID.TID 0000.0001) // End MONITOR dynamic field statistics
(PID.TID 0000.0001) // =======================================================
 cg2d: Sum(rhs),rhsMax =  -7.38253859089662E+01  3.62999511793649E+01
(PID.TID 0000.0001)      cg2d_init_res =   2.38465446855177E-01
(PID.TID 0000.0001)      cg2d_iters(min,last) =      -1      10
(PID.TID 0000.0001)      cg2d_last_res =   6.13310661475329E-08
(PID.TID 0000.0001) // =======================================================
(PID.TID 0000.0001) // Begin MONITOR dynamic field statistics
(PID.TID 0000.0001) // =======================================================
(PID.TID 0000.0001) %MON time_tsnumber                =                 72069
(PID.TID 0000.0001) %MON time_secondsf                =   6.4862100000000E+07
(PID.TID 0000.0001) %MON dynstat_eta_max              =   1.1341247767537E+00
(PID.TID 0000.0001) %MON dynstat_eta_min              =  -1.8339834125278E+00
(PID.TID 0000.0001) %MON dynstat_eta_mean             =   3.1139593577308E-02
(PID.TID 0000.0001) %MON dynstat_eta_sd               =   6.1147288411104E-01
(PID.TID 0000.0001) %MON dynstat_eta_del2             =   1.5599312274117E-03
(PID.TID 0000.0001) %MON dynstat_uvel_max             =   5.2837365034176E-01
(PID.TID 0000.0001) %MON dynstat_uvel_min             =  -8.1589966624266E-01
(PID.TID 0000.0001) %MON dynstat_uvel_mean            =  -2.8219674237542E-04
(PID.TID 0000.0001) %MON dynstat_uvel_sd              =   1.3133222646644E-02
(PID.TID 0000.0001) %MON dynstat_uvel_del2            =   9.1719900433207E-05
(PID.TID 0000.0001) %MON dynstat_vvel_max             =   3.3783146417107E-01
(PID.TID 0000.0001) %MON dynstat_vvel_min             =  -5.3385329561273E-01
(PID.TID 0000.0001) %MON dynstat_vvel_mean            =   4.9690585902620E-04
(PID.TID 0000.0001) %MON dynstat_vvel_sd              =   1.3666529258980E-02
(PID.TID 0000.0001) %MON dynstat_vvel_del2            =   9.0816475667965E-05
(PID.TID 0000.0001) %MON dynstat_wvel_max             =   1.0441853720794E-04
(PID.TID 0000.0001) %MON dynstat_wvel_min             =  -1.9121555497375E-04
(PID.TID 0000.0001) %MON dynstat_wvel_mean            =  -1.8609759303260E-07
(PID.TID 0000.0001) %MON dynstat_wvel_sd              =   7.8054674574033E-06
(PID.TID 0000.0001) %MON dynstat_wvel_del2            =   7.0176045086380E-08
(PID.TID 0000.0001) %MON dynstat_theta_max            =   3.0925585328684E+01
(PID.TID 0000.0001) %MON dynstat_theta_min            =  -3.0084286139793E+00
(PID.TID 0000.0001) %MON dynstat_theta_mean           =   3.9091675994691E+00
(PID.TID 0000.0001) %MON dynstat_theta_sd             =   4.5715139242947E+00
(PID.TID 0000.0001) %MON dynstat_theta_del2           =   2.6403279612512E-03
(PID.TID 0000.0001) %MON dynstat_salt_max             =   4.1347299731152E+01
(PID.TID 0000.0001) %MON dynstat_salt_min             =   1.8519073379175E+01
(PID.TID 0000.0001) %MON dynstat_salt_mean            =   3.4771923052745E+01
(PID.TID 0000.0001) %MON dynstat_salt_sd              =   5.3208686762210E-01
(PID.TID 0000.0001) %MON dynstat_salt_del2            =   1.0936245277676E-03
(PID.TID 0000.0001) %MON dynstat_sst_max              =   3.0925585328684E+01
(PID.TID 0000.0001) %MON dynstat_sst_min              =  -1.8990539079201E+00
(PID.TID 0000.0001) %MON dynstat_sst_mean             =   1.8107910570953E+01
(PID.TID 0000.0001) %MON dynstat_sst_sd               =   9.8121704834626E+00
(PID.TID 0000.0001) %MON dynstat_sst_del2             =   1.5003329765050E-02
(PID.TID 0000.0001) %MON dynstat_sss_max              =   4.1347299731152E+01
(PID.TID 0000.0001) %MON dynstat_sss_min              =   1.8752202897630E+01
(PID.TID 0000.0001) %MON dynstat_sss_mean             =   3.4622245340357E+01
(PID.TID 0000.0001) %MON dynstat_sss_sd               =   1.4858805954080E+00
(PID.TID 0000.0001) %MON dynstat_sss_del2             =   1.2298389158617E-02
(PID.TID 0000.0001) %MON forcing_qnet_max             =   1.7529700927734E+03
(PID.TID 0000.0001) %MON forcing_qnet_min             =  -1.0387082519531E+03
(PID.TID 0000.0001) %MON forcing_qnet_mean            =  -1.3775533944286E+01
(PID.TID 0000.0001) %MON forcing_qnet_sd              =   2.1755609309763E+02
(PID.TID 0000.0001) %MON forcing_qnet_del2            =   3.6469980200623E+00
(PID.TID 0000.0001) %MON forcing_qsw_max              =   0.0000000000000E+00
(PID.TID 0000.0001) %MON forcing_qsw_min              =  -1.0821932608093E+02
(PID.TID 0000.0001) %MON forcing_qsw_mean             =  -1.6052752553232E+01
(PID.TID 0000.0001) %MON forcing_qsw_sd               =   2.8000974108433E+01
(PID.TID 0000.0001) %MON forcing_qsw_del2             =   2.3783660572733E-01
(PID.TID 0000.0001) %MON forcing_empmr_max            =   5.4845316335559E-03
(PID.TID 0000.0001) %MON forcing_empmr_min            =  -7.8843921422958E-02
(PID.TID 0000.0001) %MON forcing_empmr_mean           =  -2.3970836266583E-04
(PID.TID 0000.0001) %MON forcing_empmr_sd             =   3.4719929313690E-03
(PID.TID 0000.0001) %MON forcing_empmr_del2           =   1.3698897377750E-04
(PID.TID 0000.0001) %MON forcing_fu_max               =   3.4328757774808E-01
(PID.TID 0000.0001) %MON forcing_fu_min               =  -3.6993203664520E-01
(PID.TID 0000.0001) %MON forcing_fu_mean              =  -3.2977314649546E-03
(PID.TID 0000.0001) %MON forcing_fu_sd                =   6.2442321288214E-02
(PID.TID 0000.0001) %MON forcing_fu_del2              =   6.1266523993916E-04
(PID.TID 0000.0001) %MON forcing_fv_max               =   2.7011692816324E-01
(PID.TID 0000.0001) %MON forcing_fv_min               =  -2.5523233335793E-01
(PID.TID 0000.0001) %MON forcing_fv_mean              =  -1.5126975736902E-02
(PID.TID 0000.0001) %MON forcing_fv_sd                =   6.1013083801614E-02
(PID.TID 0000.0001) %MON forcing_fv_del2              =   5.2913493560991E-04
(PID.TID 0000.0001) %MON trAdv_CFL_u_max              =   2.3957531478149E-03
(PID.TID 0000.0001) %MON trAdv_CFL_v_max              =   1.5738938410276E-03
(PID.TID 0000.0001) %MON trAdv_CFL_w_max              =   1.8246924303235E-03
(PID.TID 0000.0001) %MON advcfl_uvel_max              =   2.3710118991534E-03
(PID.TID 0000.0001) %MON advcfl_vvel_max              =   1.5608302085921E-03
(PID.TID 0000.0001) %MON advcfl_wvel_max              =   2.7423972668855E-03
(PID.TID 0000.0001) %MON advcfl_W_hf_max              =   1.8246924303235E-03
(PID.TID 0000.0001) %MON pe_b_mean                    =   4.9939027036724E-04
(PID.TID 0000.0001) %MON ke_max                       =   2.4395918316868E-01
(PID.TID 0000.0001) %MON ke_mean                      =   1.6604285769781E-04
(PID.TID 0000.0001) %MON ke_vol                       =   1.3398137007986E+18
(PID.TID 0000.0001) %MON vort_r_min                   =  -4.3678448231576E-06
(PID.TID 0000.0001) %MON vort_r_max                   =   2.2100536670361E-06
(PID.TID 0000.0001) %MON vort_a_mean                  =  -2.0549865324846E-05
(PID.TID 0000.0001) %MON vort_a_sd                    =   7.5259735148580E-05
(PID.TID 0000.0001) %MON vort_p_mean                  =  -2.4783258089073E-05
(PID.TID 0000.0001) %MON vort_p_sd                    =   1.2811919636842E-04
(PID.TID 0000.0001) %MON surfExpan_theta_mean         =  -6.2856444759104E-06
(PID.TID 0000.0001) %MON surfExpan_salt_mean          =   1.2810999387284E-06
(PID.TID 0000.0001) // =======================================================
(PID.TID 0000.0001) // End MONITOR dynamic field statistics
(PID.TID 0000.0001) // =======================================================
 cg2d: Sum(rhs),rhsMax =  -7.44045487696241E+01  3.62554275435769E+01
(PID.TID 0000.0001)      cg2d_init_res =   2.27330131822451E-01
(PID.TID 0000.0001)      cg2d_iters(min,last) =      -1      10
(PID.TID 0000.0001)      cg2d_last_res =   7.30202179813011E-08
(PID.TID 0000.0001) // =======================================================
(PID.TID 0000.0001) // Begin MONITOR dynamic field statistics
(PID.TID 0000.0001) // =======================================================
(PID.TID 0000.0001) %MON time_tsnumber                =                 72070
(PID.TID 0000.0001) %MON time_secondsf                =   6.4863000000000E+07
(PID.TID 0000.0001) %MON dynstat_eta_max              =   1.1781033630898E+00
(PID.TID 0000.0001) %MON dynstat_eta_min              =  -1.9484012800058E+00
(PID.TID 0000.0001) %MON dynstat_eta_mean             =   3.1345390987246E-02
(PID.TID 0000.0001) %MON dynstat_eta_sd               =   6.1154198431243E-01
(PID.TID 0000.0001) %MON dynstat_eta_del2             =   1.6070363510525E-03
(PID.TID 0000.0001) %MON dynstat_uvel_max             =   5.0663731886589E-01
(PID.TID 0000.0001) %MON dynstat_uvel_min             =  -8.0785546022579E-01
(PID.TID 0000.0001) %MON dynstat_uvel_mean            =  -2.8369281225180E-04
(PID.TID 0000.0001) %MON dynstat_uvel_sd              =   1.3131559472252E-02
(PID.TID 0000.0001) %MON dynstat_uvel_del2            =   9.0697385147721E-05
(PID.TID 0000.0001) %MON dynstat_vvel_max             =   3.2308085726075E-01
(PID.TID 0000.0001) %MON dynstat_vvel_min             =  -5.0445416602088E-01
(PID.TID 0000.0001) %MON dynstat_vvel_mean            =   4.8062279323386E-04
(PID.TID 0000.0001) %MON dynstat_vvel_sd              =   1.3649227367692E-02
(PID.TID 0000.0001) %MON dynstat_vvel_del2            =   8.8875939983073E-05
(PID.TID 0000.0001) %MON dynstat_wvel_max             =   1.0425394958446E-04
(PID.TID 0000.0001) %MON dynstat_wvel_min             =  -1.9122917728279E-04
(PID.TID 0000.0001) %MON dynstat_wvel_mean            =  -1.7533876430053E-07
(PID.TID 0000.0001) %MON dynstat_wvel_sd              =   7.7891747821277E-06
(PID.TID 0000.0001) %MON dynstat_wvel_del2            =   6.9821865780284E-08
(PID.TID 0000.0001) %MON dynstat_theta_max            =   3.0925487945402E+01
(PID.TID 0000.0001) %MON dynstat_theta_min            =  -3.0086923078114E+00
(PID.TID 0000.0001) %MON dynstat_theta_mean           =   3.9091698380399E+00
(PID.TID 0000.0001) %MON dynstat_theta_sd             =   4.5715214695701E+00
(PID.TID 0000.0001) %MON dynstat_theta_del2           =   2.6402163085513E-03
(PID.TID 0000.0001) %MON dynstat_salt_max             =   4.1347245253069E+01
(PID.TID 0000.0001) %MON dynstat_salt_min             =   1.8519083520248E+01
(PID.TID 0000.0001) %MON dynstat_salt_mean            =   3.4771921122078E+01
(PID.TID 0000.0001) %MON dynstat_salt_sd              =   5.3209965255809E-01
(PID.TID 0000.0001) %MON dynstat_salt_del2            =   1.0966006314771E-03
(PID.TID 0000.0001) %MON dynstat_sst_max              =   3.0925487945402E+01
(PID.TID 0000.0001) %MON dynstat_sst_min              =  -1.8991348718752E+00
(PID.TID 0000.0001) %MON dynstat_sst_mean             =   1.8107975578945E+01
(PID.TID 0000.0001) %MON dynstat_sst_sd               =   9.8122610873415E+00
(PID.TID 0000.0001) %MON dynstat_sst_del2             =   1.5001498566484E-02
(PID.TID 0000.0001) %MON dynstat_sss_max              =   4.1347245253069E+01
(PID.TID 0000.0001) %MON dynstat_sss_min              =   1.8752221138740E+01
(PID.TID 0000.0001) %MON dynstat_sss_mean             =   3.4622098908677E+01
(PID.TID 0000.0001) %MON dynstat_sss_sd               =   1.4862092234404E+00
(PID.TID 0000.0001) %MON dynstat_sss_del2             =   1.2340210518364E-02
(PID.TID 0000.0001) %MON forcing_qnet_max             =   1.7333546142578E+03
(PID.TID 0000.0001) %MON forcing_qnet_min             =  -2.1365114746094E+03
(PID.TID 0000.0001) %MON forcing_qnet_mean            =  -1.6108992031476E+01
(PID.TID 0000.0001) %MON forcing_qnet_sd              =   2.2002589077513E+02
(PID.TID 0000.0001) %MON forcing_qnet_del2            =   3.9514532718528E+00
(PID.TID 0000.0001) %MON forcing_qsw_max              =   0.0000000000000E+00
(PID.TID 0000.0001) %MON forcing_qsw_min              =  -1.0781991245092E+02
(PID.TID 0000.0001) %MON forcing_qsw_mean             =  -1.6238008496252E+01
(PID.TID 0000.0001) %MON forcing_qsw_sd               =   2.8063918003636E+01
(PID.TID 0000.0001) %MON forcing_qsw_del2             =   2.3988444801899E-01
(PID.TID 0000.0001) %MON forcing_empmr_max            =   5.4280483163893E-03
(PID.TID 0000.0001) %MON forcing_empmr_min            =  -7.8031688928604E-02
(PID.TID 0000.0001) %MON forcing_empmr_mean           =  -2.3666702142798E-04
(PID.TID 0000.0001) %MON forcing_empmr_sd             =   3.4364239678193E-03
(PID.TID 0000.0001) %MON forcing_empmr_del2           =   1.3557997829431E-04
(PID.TID 0000.0001) %MON forcing_fu_max               =   3.4070414313541E-01
(PID.TID 0000.0001) %MON forcing_fu_min               =  -3.6851299028252E-01
(PID.TID 0000.0001) %MON forcing_fu_mean              =  -3.3091295216411E-03
(PID.TID 0000.0001) %MON forcing_fu_sd                =   6.2365752236534E-02
(PID.TID 0000.0001) %MON forcing_fu_del2              =   6.1163662102725E-04
(PID.TID 0000.0001) %MON forcing_fv_max               =   2.6179653588124E-01
(PID.TID 0000.0001) %MON forcing_fv_min               =  -2.5290144695734E-01
(PID.TID 0000.0001) %MON forcing_fv_mean              =  -1.5074900178904E-02
(PID.TID 0000.0001) %MON forcing_fv_sd                =   6.0786053458728E-02
(PID.TID 0000.0001) %MON forcing_fv_del2              =   5.2530505140467E-04
(PID.TID 0000.0001) %MON trAdv_CFL_u_max              =   2.3745179348804E-03
(PID.TID 0000.0001) %MON trAdv_CFL_v_max              =   1.4887762496982E-03
(PID.TID 0000.0001) %MON trAdv_CFL_w_max              =   1.7953449566687E-03
(PID.TID 0000.0001) %MON advcfl_uvel_max              =   2.3476353628287E-03
(PID.TID 0000.0001) %MON advcfl_vvel_max              =   1.4748757901210E-03
(PID.TID 0000.0001) %MON advcfl_wvel_max              =   2.7141457018645E-03
(PID.TID 0000.0001) %MON advcfl_W_hf_max              =   1.7953449566687E-03
(PID.TID 0000.0001) %MON pe_b_mean                    =   4.9951995559485E-04
(PID.TID 0000.0001) %MON ke_max                       =   2.3378658481901E-01
(PID.TID 0000.0001) %MON ke_mean                      =   1.6579655391165E-04
(PID.TID 0000.0001) %MON ke_vol                       =   1.3398137766479E+18
(PID.TID 0000.0001) %MON vort_r_min                   =  -4.2469634220709E-06
(PID.TID 0000.0001) %MON vort_r_max                   =   2.1661954252982E-06
(PID.TID 0000.0001) %MON vort_a_mean                  =  -2.0549865324846E-05
(PID.TID 0000.0001) %MON vort_a_sd                    =   7.5259732179478E-05
(PID.TID 0000.0001) %MON vort_p_mean                  =  -2.4783256492649E-05
(PID.TID 0000.0001) %MON vort_p_sd                    =   1.2811920441596E-04
(PID.TID 0000.0001) %MON surfExpan_theta_mean         =  -6.2315336002133E-06
(PID.TID 0000.0001) %MON surfExpan_salt_mean          =   1.2650155009661E-06
(PID.TID 0000.0001) // =======================================================
(PID.TID 0000.0001) // End MONITOR dynamic field statistics
(PID.TID 0000.0001) // =======================================================
 cg2d: Sum(rhs),rhsMax =  -7.49722289719612E+01  3.62149100225427E+01
(PID.TID 0000.0001)      cg2d_init_res =   2.17090303804078E-01
(PID.TID 0000.0001)      cg2d_iters(min,last) =      -1      10
(PID.TID 0000.0001)      cg2d_last_res =   8.24231345782839E-08
(PID.TID 0000.0001) // =======================================================
(PID.TID 0000.0001) // Begin MONITOR dynamic field statistics
(PID.TID 0000.0001) // =======================================================
(PID.TID 0000.0001) %MON time_tsnumber                =                 72071
(PID.TID 0000.0001) %MON time_secondsf                =   6.4863900000000E+07
(PID.TID 0000.0001) %MON dynstat_eta_max              =   1.2171325821864E+00
(PID.TID 0000.0001) %MON dynstat_eta_min              =  -2.0300742451475E+00
(PID.TID 0000.0001) %MON dynstat_eta_mean             =   3.1549247612565E-02
(PID.TID 0000.0001) %MON dynstat_eta_sd               =   6.1160858718451E-01
(PID.TID 0000.0001) %MON dynstat_eta_del2             =   1.6478664178138E-03
(PID.TID 0000.0001) %MON dynstat_uvel_max             =   4.7921283552090E-01
(PID.TID 0000.0001) %MON dynstat_uvel_min             =  -7.9639100916907E-01
(PID.TID 0000.0001) %MON dynstat_uvel_mean            =  -2.8701177905054E-04
(PID.TID 0000.0001) %MON dynstat_uvel_sd              =   1.3126118565262E-02
(PID.TID 0000.0001) %MON dynstat_uvel_del2            =   8.9698537446209E-05
(PID.TID 0000.0001) %MON dynstat_vvel_max             =   3.0751021017487E-01
(PID.TID 0000.0001) %MON dynstat_vvel_min             =  -4.7246113928856E-01
(PID.TID 0000.0001) %MON dynstat_vvel_mean            =   4.6286269053243E-04
(PID.TID 0000.0001) %MON dynstat_vvel_sd              =   1.3636426534501E-02
(PID.TID 0000.0001) %MON dynstat_vvel_del2            =   8.7171586186948E-05
(PID.TID 0000.0001) %MON dynstat_wvel_max             =   1.0410742800374E-04
(PID.TID 0000.0001) %MON dynstat_wvel_min             =  -1.9123131631058E-04
(PID.TID 0000.0001) %MON dynstat_wvel_mean            =  -1.6582148735728E-07
(PID.TID 0000.0001) %MON dynstat_wvel_sd              =   7.7764951280262E-06
(PID.TID 0000.0001) %MON dynstat_wvel_del2            =   6.9539767785982E-08
(PID.TID 0000.0001) %MON dynstat_theta_max            =   3.0925383786143E+01
(PID.TID 0000.0001) %MON dynstat_theta_min            =  -3.0089819996288E+00
(PID.TID 0000.0001) %MON dynstat_theta_mean           =   3.9091721752075E+00
(PID.TID 0000.0001) %MON dynstat_theta_sd             =   4.5715294265663E+00
(PID.TID 0000.0001) %MON dynstat_theta_del2           =   2.6401096706533E-03
(PID.TID 0000.0001) %MON dynstat_salt_max             =   4.1347196039121E+01
(PID.TID 0000.0001) %MON dynstat_salt_min             =   1.8519093640200E+01
(PID.TID 0000.0001) %MON dynstat_salt_mean            =   3.4771919229647E+01
(PID.TID 0000.0001) %MON dynstat_salt_sd              =   5.3211226856740E-01
(PID.TID 0000.0001) %MON dynstat_salt_del2            =   1.0995194227752E-03
(PID.TID 0000.0001) %MON dynstat_sst_max              =   3.0925383786143E+01
(PID.TID 0000.0001) %MON dynstat_sst_min              =  -1.8992006636120E+00
(PID.TID 0000.0001) %MON dynstat_sst_mean             =   1.8108047535228E+01
(PID.TID 0000.0001) %MON dynstat_sst_sd               =   9.8123558805652E+00
(PID.TID 0000.0001) %MON dynstat_sst_del2             =   1.4999786156407E-02
(PID.TID 0000.0001) %MON dynstat_sss_max              =   4.1347196039121E+01
(PID.TID 0000.0001) %MON dynstat_sss_min              =   1.8752239076577E+01
(PID.TID 0000.0001) %MON dynstat_sss_mean             =   3.4621954975572E+01
(PID.TID 0000.0001) %MON dynstat_sss_sd               =   1.4865334731309E+00
(PID.TID 0000.0001) %MON dynstat_sss_del2             =   1.2381199512620E-02
(PID.TID 0000.0001) %MON forcing_qnet_max             =   1.7130032958984E+03
(PID.TID 0000.0001) %MON forcing_qnet_min             =  -3.6434377441406E+03
(PID.TID 0000.0001) %MON forcing_qnet_mean            =  -1.7992684947431E+01
(PID.TID 0000.0001) %MON forcing_qnet_sd              =   2.2481616970025E+02
(PID.TID 0000.0001) %MON forcing_qnet_del2            =   4.5618147593705E+00
(PID.TID 0000.0001) %MON forcing_qsw_max              =   0.0000000000000E+00
(PID.TID 0000.0001) %MON forcing_qsw_min              =  -1.0698513872995E+02
(PID.TID 0000.0001) %MON forcing_qsw_mean             =  -1.6393203558562E+01
(PID.TID 0000.0001) %MON forcing_qsw_sd               =   2.8058575720579E+01
(PID.TID 0000.0001) %MON forcing_qsw_del2             =   2.4128884574663E-01
(PID.TID 0000.0001) %MON forcing_empmr_max            =   5.3721549920738E-03
(PID.TID 0000.0001) %MON forcing_empmr_min            =  -7.7228680253029E-02
(PID.TID 0000.0001) %MON forcing_empmr_mean           =  -2.3443511911786E-04
(PID.TID 0000.0001) %MON forcing_empmr_sd             =   3.4012783689287E-03
(PID.TID 0000.0001) %MON forcing_empmr_del2           =   1.3419320576497E-04
(PID.TID 0000.0001) %MON forcing_fu_max               =   3.3266779775843E-01
(PID.TID 0000.0001) %MON forcing_fu_min               =  -3.7016204029421E-01
(PID.TID 0000.0001) %MON forcing_fu_mean              =  -3.3730250110048E-03
(PID.TID 0000.0001) %MON forcing_fu_sd                =   6.2084525346545E-02
(PID.TID 0000.0001) %MON forcing_fu_del2              =   6.0870915075220E-04
(PID.TID 0000.0001) %MON forcing_fv_max               =   2.5879155257653E-01
(PID.TID 0000.0001) %MON forcing_fv_min               =  -2.5172156656565E-01
(PID.TID 0000.0001) %MON forcing_fv_mean              =  -1.5034268696441E-02
(PID.TID 0000.0001) %MON forcing_fv_sd                =   6.0650786368621E-02
(PID.TID 0000.0001) %MON forcing_fv_del2              =   5.2406547783433E-04
(PID.TID 0000.0001) %MON trAdv_CFL_u_max              =   2.3431432439409E-03
(PID.TID 0000.0001) %MON trAdv_CFL_v_max              =   1.3956715109946E-03
(PID.TID 0000.0001) %MON trAdv_CFL_w_max              =   1.7612835202081E-03
(PID.TID 0000.0001) %MON advcfl_uvel_max              =   2.3143195631080E-03
(PID.TID 0000.0001) %MON advcfl_vvel_max              =   1.3813375784091E-03
(PID.TID 0000.0001) %MON advcfl_wvel_max              =   2.6862149653227E-03
(PID.TID 0000.0001) %MON advcfl_W_hf_max              =   1.7612835202081E-03
(PID.TID 0000.0001) %MON pe_b_mean                    =   4.9964553408674E-04
(PID.TID 0000.0001) %MON ke_max                       =   2.2671364380716E-01
(PID.TID 0000.0001) %MON ke_mean                      =   1.6556199894705E-04
(PID.TID 0000.0001) %MON ke_vol                       =   1.3398138515348E+18
(PID.TID 0000.0001) %MON vort_r_min                   =  -4.1066242849018E-06
(PID.TID 0000.0001) %MON vort_r_max                   =   2.1217069570190E-06
(PID.TID 0000.0001) %MON vort_a_mean                  =  -2.0549865324846E-05
(PID.TID 0000.0001) %MON vort_a_sd                    =   7.5259728745132E-05
(PID.TID 0000.0001) %MON vort_p_mean                  =  -2.4783254917316E-05
(PID.TID 0000.0001) %MON vort_p_sd                    =   1.2811920884660E-04
(PID.TID 0000.0001) %MON surfExpan_theta_mean         =  -6.1893632596983E-06
(PID.TID 0000.0001) %MON surfExpan_salt_mean          =   1.2475364742547E-06
(PID.TID 0000.0001) // =======================================================
(PID.TID 0000.0001) // End MONITOR dynamic field statistics
(PID.TID 0000.0001) // =======================================================
 Computing Diagnostic #     81  oceTAUX      Counter:       1   Parms: UU      U1      
           Vector  Mate for  oceTAUX      Diagnostic #     82  oceTAUY  exists 
 Computing Diagnostic #     82  oceTAUY      Counter:       1   Parms: VV      U1      
           Vector  Mate for  oceTAUY      Diagnostic #     81  oceTAUX  exists 
 Computing Diagnostic #     85  oceFWflx     Counter:       1   Parms: SM      U1      
 Computing Diagnostic #     86  oceSflux     Counter:       1   Parms: SM      U1      
 Computing Diagnostic #     87  oceQnet      Counter:       1   Parms: SM      U1      
 Computing Diagnostic #     88  oceQsw       Counter:       1   Parms: SM      U1      
 Computing Diagnostic #     27  SALT         Counter:       1   Parms: SMR     MR      
 Computing Diagnostic #     26  THETA        Counter:       1   Parms: SMR     MR      
 Computing Diagnostic #     45  UVELMASS     Counter:       1   Parms: UUr     MR      
           Vector  Mate for  UVELMASS     Diagnostic #     46  VVELMASS exists 
 Computing Diagnostic #     46  VVELMASS     Counter:       1   Parms: VVr     MR      
           Vector  Mate for  VVELMASS     Diagnostic #     45  UVELMASS exists 
 Computing Diagnostic #     83  atmPload     Counter:       1   Parms: SM      U1      
 cg2d: Sum(rhs),rhsMax =  -7.40464320829249E+01  3.69028552851886E+01
(PID.TID 0000.0001)      cg2d_init_res =   2.04078669483955E-01
(PID.TID 0000.0001)      cg2d_iters(min,last) =      -1      10
(PID.TID 0000.0001)      cg2d_last_res =   8.58235907792905E-08
(PID.TID 0000.0001) // =======================================================
(PID.TID 0000.0001) // Begin MONITOR dynamic field statistics
(PID.TID 0000.0001) // =======================================================
(PID.TID 0000.0001) %MON time_tsnumber                =                 72072
(PID.TID 0000.0001) %MON time_secondsf                =   6.4864800000000E+07
(PID.TID 0000.0001) %MON dynstat_eta_max              =   1.2507941627393E+00
(PID.TID 0000.0001) %MON dynstat_eta_min              =  -2.0792190397391E+00
(PID.TID 0000.0001) %MON dynstat_eta_mean             =   3.1751575546163E-02
(PID.TID 0000.0001) %MON dynstat_eta_sd               =   6.1166702027773E-01
(PID.TID 0000.0001) %MON dynstat_eta_del2             =   1.6800426514839E-03
(PID.TID 0000.0001) %MON dynstat_uvel_max             =   4.4664581527631E-01
(PID.TID 0000.0001) %MON dynstat_uvel_min             =  -7.8152471403684E-01
(PID.TID 0000.0001) %MON dynstat_uvel_mean            =  -2.9206310290058E-04
(PID.TID 0000.0001) %MON dynstat_uvel_sd              =   1.3117382271482E-02
(PID.TID 0000.0001) %MON dynstat_uvel_del2            =   8.8747376627643E-05
(PID.TID 0000.0001) %MON dynstat_vvel_max             =   2.9126331358397E-01
(PID.TID 0000.0001) %MON dynstat_vvel_min             =  -4.3809351121628E-01
(PID.TID 0000.0001) %MON dynstat_vvel_mean            =   4.4388859128590E-04
(PID.TID 0000.0001) %MON dynstat_vvel_sd              =   1.3628475342063E-02
(PID.TID 0000.0001) %MON dynstat_vvel_del2            =   8.5794535225739E-05
(PID.TID 0000.0001) %MON dynstat_wvel_max             =   1.0398541888487E-04
(PID.TID 0000.0001) %MON dynstat_wvel_min             =  -1.9123124360143E-04
(PID.TID 0000.0001) %MON dynstat_wvel_mean            =  -1.5734708219441E-07
(PID.TID 0000.0001) %MON dynstat_wvel_sd              =   7.7661757711880E-06
(PID.TID 0000.0001) %MON dynstat_wvel_del2            =   6.9320822895494E-08
(PID.TID 0000.0001) %MON dynstat_theta_max            =   3.0925272610931E+01
(PID.TID 0000.0001) %MON dynstat_theta_min            =  -3.0092992247019E+00
(PID.TID 0000.0001) %MON dynstat_theta_mean           =   3.9091745118850E+00
(PID.TID 0000.0001) %MON dynstat_theta_sd             =   4.5715374596298E+00
(PID.TID 0000.0001) %MON dynstat_theta_del2           =   2.6399952438918E-03
(PID.TID 0000.0001) %MON dynstat_salt_max             =   4.1347151036495E+01
(PID.TID 0000.0001) %MON dynstat_salt_min             =   1.8519103739573E+01
(PID.TID 0000.0001) %MON dynstat_salt_mean            =   3.4771917343162E+01
(PID.TID 0000.0001) %MON dynstat_salt_sd              =   5.3212470613444E-01
(PID.TID 0000.0001) %MON dynstat_salt_del2            =   1.1023777163775E-03
(PID.TID 0000.0001) %MON dynstat_sst_max              =   3.0925272610931E+01
(PID.TID 0000.0001) %MON dynstat_sst_min              =  -1.8992503431161E+00
(PID.TID 0000.0001) %MON dynstat_sst_mean             =   1.8108122904939E+01
(PID.TID 0000.0001) %MON dynstat_sst_sd               =   9.8124542138782E+00
(PID.TID 0000.0001) %MON dynstat_sst_del2             =   1.4997797834065E-02
(PID.TID 0000.0001) %MON dynstat_sss_max              =   4.1347151036495E+01
(PID.TID 0000.0001) %MON dynstat_sss_min              =   1.8752256801636E+01
(PID.TID 0000.0001) %MON dynstat_sss_mean             =   3.4621812457407E+01
(PID.TID 0000.0001) %MON dynstat_sss_sd               =   1.4868529489928E+00
(PID.TID 0000.0001) %MON dynstat_sss_del2             =   1.2421302716356E-02
(PID.TID 0000.0001) %MON forcing_qnet_max             =   1.6928991699219E+03
(PID.TID 0000.0001) %MON forcing_qnet_min             =  -1.0178849487305E+03
(PID.TID 0000.0001) %MON forcing_qnet_mean            =  -1.8167228598050E+01
(PID.TID 0000.0001) %MON forcing_qnet_sd              =   2.1715026594852E+02
(PID.TID 0000.0001) %MON forcing_qnet_del2            =   3.6242049660971E+00
(PID.TID 0000.0001) %MON forcing_qsw_max              =   0.0000000000000E+00
(PID.TID 0000.0001) %MON forcing_qsw_min              =  -1.0741919211306E+02
(PID.TID 0000.0001) %MON forcing_qsw_mean             =  -1.6516635562553E+01
(PID.TID 0000.0001) %MON forcing_qsw_sd               =   2.7984887347194E+01
(PID.TID 0000.0001) %MON forcing_qsw_del2             =   2.4201614025223E-01
(PID.TID 0000.0001) %MON forcing_empmr_max            =   5.3167534060776E-03
(PID.TID 0000.0001) %MON forcing_empmr_min            =  -7.6433226466179E-02
(PID.TID 0000.0001) %MON forcing_empmr_mean           =  -2.3267712363661E-04
(PID.TID 0000.0001) %MON forcing_empmr_sd             =   3.3666192844212E-03
(PID.TID 0000.0001) %MON forcing_empmr_del2           =   1.3282102021388E-04
(PID.TID 0000.0001) %MON forcing_fu_max               =   3.2288124893267E-01
(PID.TID 0000.0001) %MON forcing_fu_min               =  -3.6760019873084E-01
(PID.TID 0000.0001) %MON forcing_fu_mean              =  -3.4646305962011E-03
(PID.TID 0000.0001) %MON forcing_fu_sd                =   6.1645876626642E-02
(PID.TID 0000.0001) %MON forcing_fu_del2              =   6.0553269172282E-04
(PID.TID 0000.0001) %MON forcing_fv_max               =   2.6428937448920E-01
(PID.TID 0000.0001) %MON forcing_fv_min               =  -2.5115616007522E-01
(PID.TID 0000.0001) %MON forcing_fv_mean              =  -1.4928492908379E-02
(PID.TID 0000.0001) %MON forcing_fv_sd                =   6.0783292898367E-02
(PID.TID 0000.0001) %MON forcing_fv_del2              =   5.2484783443774E-04
(PID.TID 0000.0001) %MON trAdv_CFL_u_max              =   2.3016223189545E-03
(PID.TID 0000.0001) %MON trAdv_CFL_v_max              =   1.2952306455615E-03
(PID.TID 0000.0001) %MON trAdv_CFL_w_max              =   1.7227500048031E-03
(PID.TID 0000.0001) %MON advcfl_uvel_max              =   2.2711179733620E-03
(PID.TID 0000.0001) %MON advcfl_vvel_max              =   1.2808567299556E-03
(PID.TID 0000.0001) %MON advcfl_wvel_max              =   2.6585470075193E-03
(PID.TID 0000.0001) %MON advcfl_W_hf_max              =   1.7227500048031E-03
(PID.TID 0000.0001) %MON pe_b_mean                    =   4.9975779172372E-04
(PID.TID 0000.0001) %MON ke_max                       =   2.2644543167313E-01
(PID.TID 0000.0001) %MON ke_mean                      =   1.6534948355155E-04
(PID.TID 0000.0001) %MON ke_vol                       =   1.3398139257155E+18
(PID.TID 0000.0001) %MON vort_r_min                   =  -3.9475941463087E-06
(PID.TID 0000.0001) %MON vort_r_max                   =   2.0766200592663E-06
(PID.TID 0000.0001) %MON vort_a_mean                  =  -2.0549865324846E-05
(PID.TID 0000.0001) %MON vort_a_sd                    =   7.5259724909557E-05
(PID.TID 0000.0001) %MON vort_p_mean                  =  -2.4783253356771E-05
(PID.TID 0000.0001) %MON vort_p_sd                    =   1.2811921039469E-04
(PID.TID 0000.0001) %MON surfExpan_theta_mean         =  -6.1559881721998E-06
(PID.TID 0000.0001) %MON surfExpan_salt_mean          =   1.2304718638548E-06
(PID.TID 0000.0001) // =======================================================
(PID.TID 0000.0001) // End MONITOR dynamic field statistics
(PID.TID 0000.0001) // =======================================================
 cg2d: Sum(rhs),rhsMax =  -7.39081824557236E+01  3.72055433183514E+01
(PID.TID 0000.0001)      cg2d_init_res =   1.94921460798644E-01
(PID.TID 0000.0001)      cg2d_iters(min,last) =      -1      10
(PID.TID 0000.0001)      cg2d_last_res =   8.76314411301803E-08
(PID.TID 0000.0001) // =======================================================
(PID.TID 0000.0001) // Begin MONITOR dynamic field statistics
(PID.TID 0000.0001) // =======================================================
(PID.TID 0000.0001) %MON time_tsnumber                =                 72073
(PID.TID 0000.0001) %MON time_secondsf                =   6.4865700000000E+07
(PID.TID 0000.0001) %MON dynstat_eta_max              =   1.2786964373635E+00
(PID.TID 0000.0001) %MON dynstat_eta_min              =  -2.0964871247923E+00
(PID.TID 0000.0001) %MON dynstat_eta_mean             =   3.1952242713282E-02
(PID.TID 0000.0001) %MON dynstat_eta_sd               =   6.1171169829354E-01
(PID.TID 0000.0001) %MON dynstat_eta_del2             =   1.7019319909139E-03
(PID.TID 0000.0001) %MON dynstat_uvel_max             =   4.0954099573713E-01
(PID.TID 0000.0001) %MON dynstat_uvel_min             =  -7.6332025394291E-01
(PID.TID 0000.0001) %MON dynstat_uvel_mean            =  -2.9872798513962E-04
(PID.TID 0000.0001) %MON dynstat_uvel_sd              =   1.3106254671535E-02
(PID.TID 0000.0001) %MON dynstat_uvel_del2            =   8.7865828908609E-05
(PID.TID 0000.0001) %MON dynstat_vvel_max             =   2.7449040346840E-01
(PID.TID 0000.0001) %MON dynstat_vvel_min             =  -4.0159046599861E-01
(PID.TID 0000.0001) %MON dynstat_vvel_mean            =   4.2390536372201E-04
(PID.TID 0000.0001) %MON dynstat_vvel_sd              =   1.3625140654614E-02
(PID.TID 0000.0001) %MON dynstat_vvel_del2            =   8.4805210709150E-05
(PID.TID 0000.0001) %MON dynstat_wvel_max             =   1.0563326831860E-04
(PID.TID 0000.0001) %MON dynstat_wvel_min             =  -1.9123192905441E-04
(PID.TID 0000.0001) %MON dynstat_wvel_mean            =  -1.4867657750362E-07
(PID.TID 0000.0001) %MON dynstat_wvel_sd              =   7.7571831358743E-06
(PID.TID 0000.0001) %MON dynstat_wvel_del2            =   6.9143241498185E-08
(PID.TID 0000.0001) %MON dynstat_theta_max            =   3.0925154183476E+01
(PID.TID 0000.0001) %MON dynstat_theta_min            =  -3.0096446212242E+00
(PID.TID 0000.0001) %MON dynstat_theta_mean           =   3.9091769982089E+00
(PID.TID 0000.0001) %MON dynstat_theta_sd             =   4.5715462046740E+00
(PID.TID 0000.0001) %MON dynstat_theta_del2           =   2.6398821881571E-03
(PID.TID 0000.0001) %MON dynstat_salt_max             =   4.1347108991488E+01
(PID.TID 0000.0001) %MON dynstat_salt_min             =   1.8519113819831E+01
(PID.TID 0000.0001) %MON dynstat_salt_mean            =   3.4771915478872E+01
(PID.TID 0000.0001) %MON dynstat_salt_sd              =   5.3213699105822E-01
(PID.TID 0000.0001) %MON dynstat_salt_del2            =   1.1051766796946E-03
(PID.TID 0000.0001) %MON dynstat_sst_max              =   3.0925154183476E+01
(PID.TID 0000.0001) %MON dynstat_sst_min              =  -1.8992820904608E+00
(PID.TID 0000.0001) %MON dynstat_sst_mean             =   1.8108206061580E+01
(PID.TID 0000.0001) %MON dynstat_sst_sd               =   9.8125609953406E+00
(PID.TID 0000.0001) %MON dynstat_sst_del2             =   1.4995867121554E-02
(PID.TID 0000.0001) %MON dynstat_sss_max              =   4.1347108991488E+01
(PID.TID 0000.0001) %MON dynstat_sss_min              =   1.8752274105436E+01
(PID.TID 0000.0001) %MON dynstat_sss_mean             =   3.4621670334492E+01
(PID.TID 0000.0001) %MON dynstat_sss_sd               =   1.4871680936770E+00
(PID.TID 0000.0001) %MON dynstat_sss_del2             =   1.2460558012544E-02
(PID.TID 0000.0001) %MON forcing_qnet_max             =   1.6749456787109E+03
(PID.TID 0000.0001) %MON forcing_qnet_min             =  -1.0766357421875E+03
(PID.TID 0000.0001) %MON forcing_qnet_mean            =  -2.0970081662299E+01
(PID.TID 0000.0001) %MON forcing_qnet_sd              =   2.1632157180784E+02
(PID.TID 0000.0001) %MON forcing_qnet_del2            =   3.6751081117341E+00
(PID.TID 0000.0001) %MON forcing_qsw_max              =   0.0000000000000E+00
(PID.TID 0000.0001) %MON forcing_qsw_min              =  -1.0670859944227E+02
(PID.TID 0000.0001) %MON forcing_qsw_mean             =  -1.6948872238650E+01
(PID.TID 0000.0001) %MON forcing_qsw_sd               =   2.7991797013951E+01
(PID.TID 0000.0001) %MON forcing_qsw_del2             =   2.4726708852155E-01
(PID.TID 0000.0001) %MON forcing_empmr_max            =   5.2620409987867E-03
(PID.TID 0000.0001) %MON forcing_empmr_min            =  -7.5646162033081E-02
(PID.TID 0000.0001) %MON forcing_empmr_mean           =  -2.3076724218834E-04
(PID.TID 0000.0001) %MON forcing_empmr_sd             =   3.3324361176918E-03
(PID.TID 0000.0001) %MON forcing_empmr_del2           =   1.3145576918831E-04
(PID.TID 0000.0001) %MON forcing_fu_max               =   3.1956045616963E-01
(PID.TID 0000.0001) %MON forcing_fu_min               =  -3.6896375374948E-01
(PID.TID 0000.0001) %MON forcing_fu_mean              =  -3.4794028399268E-03
(PID.TID 0000.0001) %MON forcing_fu_sd                =   6.1547070229268E-02
(PID.TID 0000.0001) %MON forcing_fu_del2              =   6.0465711888664E-04
(PID.TID 0000.0001) %MON forcing_fv_max               =   2.6681484206263E-01
(PID.TID 0000.0001) %MON forcing_fv_min               =  -2.5027667894871E-01
(PID.TID 0000.0001) %MON forcing_fv_mean              =  -1.4837282276474E-02
(PID.TID 0000.0001) %MON forcing_fv_sd                =   6.0893330984985E-02
(PID.TID 0000.0001) %MON forcing_fv_del2              =   5.2485013483961E-04
(PID.TID 0000.0001) %MON trAdv_CFL_u_max              =   2.2500862607884E-03
(PID.TID 0000.0001) %MON trAdv_CFL_v_max              =   1.1881729464430E-03
(PID.TID 0000.0001) %MON trAdv_CFL_w_max              =   1.6800261555647E-03
(PID.TID 0000.0001) %MON advcfl_uvel_max              =   2.2182156456786E-03
(PID.TID 0000.0001) %MON advcfl_vvel_max              =   1.1741325490813E-03
(PID.TID 0000.0001) %MON advcfl_wvel_max              =   2.6311708533246E-03
(PID.TID 0000.0001) %MON advcfl_W_hf_max              =   1.6800261555647E-03
(PID.TID 0000.0001) %MON pe_b_mean                    =   4.9984760789230E-04
(PID.TID 0000.0001) %MON ke_max                       =   2.2506620878143E-01
(PID.TID 0000.0001) %MON ke_mean                      =   1.6516705459066E-04
(PID.TID 0000.0001) %MON ke_vol                       =   1.3398139993400E+18
(PID.TID 0000.0001) %MON vort_r_min                   =  -3.7708507375945E-06
(PID.TID 0000.0001) %MON vort_r_max                   =   2.1397268389729E-06
(PID.TID 0000.0001) %MON vort_a_mean                  =  -2.0549865324846E-05
(PID.TID 0000.0001) %MON vort_a_sd                    =   7.5259720739794E-05
(PID.TID 0000.0001) %MON vort_p_mean                  =  -2.4783251809580E-05
(PID.TID 0000.0001) %MON vort_p_sd                    =   1.2811920986040E-04
(PID.TID 0000.0001) %MON surfExpan_theta_mean         =  -6.1120972059675E-06
(PID.TID 0000.0001) %MON surfExpan_salt_mean          =   1.2136223145010E-06
(PID.TID 0000.0001) // =======================================================
(PID.TID 0000.0001) // End MONITOR dynamic field statistics
(PID.TID 0000.0001) // =======================================================
 cg2d: Sum(rhs),rhsMax =  -7.48550459723898E+01  3.69625513637735E+01
(PID.TID 0000.0001)      cg2d_init_res =   1.90125562541135E-01
(PID.TID 0000.0001)      cg2d_iters(min,last) =      -1      10
(PID.TID 0000.0001)      cg2d_last_res =   8.89706478754744E-08
(PID.TID 0000.0001) // =======================================================
(PID.TID 0000.0001) // Begin MONITOR dynamic field statistics
(PID.TID 0000.0001) // =======================================================
(PID.TID 0000.0001) %MON time_tsnumber                =                 72074
(PID.TID 0000.0001) %MON time_secondsf                =   6.4866600000000E+07
(PID.TID 0000.0001) %MON dynstat_eta_max              =   1.3004876922123E+00
(PID.TID 0000.0001) %MON dynstat_eta_min              =  -2.0830287480425E+00
(PID.TID 0000.0001) %MON dynstat_eta_mean             =   3.2150238255110E-02
(PID.TID 0000.0001) %MON dynstat_eta_sd               =   6.1173825552881E-01
(PID.TID 0000.0001) %MON dynstat_eta_del2             =   1.7125734738552E-03
(PID.TID 0000.0001) %MON dynstat_uvel_max             =   3.6855024714908E-01
(PID.TID 0000.0001) %MON dynstat_uvel_min             =  -7.4188550596158E-01
(PID.TID 0000.0001) %MON dynstat_uvel_mean            =  -3.0692365803779E-04
(PID.TID 0000.0001) %MON dynstat_uvel_sd              =   1.3093194329971E-02
(PID.TID 0000.0001) %MON dynstat_uvel_del2            =   8.7071749124945E-05
(PID.TID 0000.0001) %MON dynstat_vvel_max             =   2.7183449465371E-01
(PID.TID 0000.0001) %MON dynstat_vvel_min             =  -3.6321267145230E-01
(PID.TID 0000.0001) %MON dynstat_vvel_mean            =   4.0310880204979E-04
(PID.TID 0000.0001) %MON dynstat_vvel_sd              =   1.3626083652877E-02
(PID.TID 0000.0001) %MON dynstat_vvel_del2            =   8.4229285280430E-05
(PID.TID 0000.0001) %MON dynstat_wvel_max             =   1.1160062699988E-04
(PID.TID 0000.0001) %MON dynstat_wvel_min             =  -1.9122351572918E-04
(PID.TID 0000.0001) %MON dynstat_wvel_mean            =  -1.3965694467948E-07
(PID.TID 0000.0001) %MON dynstat_wvel_sd              =   7.7494172423464E-06
(PID.TID 0000.0001) %MON dynstat_wvel_del2            =   6.9003851786391E-08
(PID.TID 0000.0001) %MON dynstat_theta_max            =   3.0925028264294E+01
(PID.TID 0000.0001) %MON dynstat_theta_min            =  -3.0100179933241E+00
(PID.TID 0000.0001) %MON dynstat_theta_mean           =   3.9091795692313E+00
(PID.TID 0000.0001) %MON dynstat_theta_sd             =   4.5715553199037E+00
(PID.TID 0000.0001) %MON dynstat_theta_del2           =   2.6397704857774E-03
(PID.TID 0000.0001) %MON dynstat_salt_max             =   4.1347069070129E+01
(PID.TID 0000.0001) %MON dynstat_salt_min             =   1.8519123883343E+01
(PID.TID 0000.0001) %MON dynstat_salt_mean            =   3.4771913652592E+01
(PID.TID 0000.0001) %MON dynstat_salt_sd              =   5.3214909218564E-01
(PID.TID 0000.0001) %MON dynstat_salt_del2            =   1.1079176987562E-03
(PID.TID 0000.0001) %MON dynstat_sst_max              =   3.0925028264294E+01
(PID.TID 0000.0001) %MON dynstat_sst_min              =  -1.8992966028310E+00
(PID.TID 0000.0001) %MON dynstat_sst_mean             =   1.8108295517925E+01
(PID.TID 0000.0001) %MON dynstat_sst_sd               =   9.8126713796488E+00
(PID.TID 0000.0001) %MON dynstat_sst_del2             =   1.4993967535130E-02
(PID.TID 0000.0001) %MON dynstat_sss_max              =   4.1347069070129E+01
(PID.TID 0000.0001) %MON dynstat_sss_min              =   1.8752291199550E+01
(PID.TID 0000.0001) %MON dynstat_sss_mean             =   3.4621530672783E+01
(PID.TID 0000.0001) %MON dynstat_sss_sd               =   1.4874782578629E+00
(PID.TID 0000.0001) %MON dynstat_sss_del2             =   1.2498979193590E-02
(PID.TID 0000.0001) %MON forcing_qnet_max             =   1.6553109130859E+03
(PID.TID 0000.0001) %MON forcing_qnet_min             =  -1.1640834960938E+03
(PID.TID 0000.0001) %MON forcing_qnet_mean            =  -2.2837315155098E+01
(PID.TID 0000.0001) %MON forcing_qnet_sd              =   2.1505881579126E+02
(PID.TID 0000.0001) %MON forcing_qnet_del2            =   3.7007012224422E+00
(PID.TID 0000.0001) %MON forcing_qsw_max              =   0.0000000000000E+00
(PID.TID 0000.0001) %MON forcing_qsw_min              =  -1.0628415394805E+02
(PID.TID 0000.0001) %MON forcing_qsw_mean             =  -1.7150862616822E+01
(PID.TID 0000.0001) %MON forcing_qsw_sd               =   2.7942553703379E+01
(PID.TID 0000.0001) %MON forcing_qsw_del2             =   2.4739210016716E-01
(PID.TID 0000.0001) %MON forcing_empmr_max            =   5.2078207954764E-03
(PID.TID 0000.0001) %MON forcing_empmr_min            =  -7.4867486953735E-02
(PID.TID 0000.0001) %MON forcing_empmr_mean           =  -2.2769487310104E-04
(PID.TID 0000.0001) %MON forcing_empmr_sd             =   3.2984869877293E-03
(PID.TID 0000.0001) %MON forcing_empmr_del2           =   1.3009599887675E-04
(PID.TID 0000.0001) %MON forcing_fu_max               =   3.1357484813832E-01
(PID.TID 0000.0001) %MON forcing_fu_min               =  -3.6655407958656E-01
(PID.TID 0000.0001) %MON forcing_fu_mean              =  -3.5315113237914E-03
(PID.TID 0000.0001) %MON forcing_fu_sd                =   6.1361127386488E-02
(PID.TID 0000.0001) %MON forcing_fu_del2              =   6.0278264955688E-04
(PID.TID 0000.0001) %MON forcing_fv_max               =   2.6499230272821E-01
(PID.TID 0000.0001) %MON forcing_fv_min               =  -2.4947693574100E-01
(PID.TID 0000.0001) %MON forcing_fv_mean              =  -1.4802803954017E-02
(PID.TID 0000.0001) %MON forcing_fv_sd                =   6.0874847246894E-02
(PID.TID 0000.0001) %MON forcing_fv_del2              =   5.2329629362623E-04
(PID.TID 0000.0001) %MON trAdv_CFL_u_max              =   2.1888032288251E-03
(PID.TID 0000.0001) %MON trAdv_CFL_v_max              =   1.1758331326709E-03
(PID.TID 0000.0001) %MON trAdv_CFL_w_max              =   1.6334282787774E-03
(PID.TID 0000.0001) %MON advcfl_uvel_max              =   2.1559260718231E-03
(PID.TID 0000.0001) %MON advcfl_vvel_max              =   1.1190679209387E-03
(PID.TID 0000.0001) %MON advcfl_wvel_max              =   2.6040865027386E-03
(PID.TID 0000.0001) %MON advcfl_W_hf_max              =   1.6334282787774E-03
(PID.TID 0000.0001) %MON pe_b_mean                    =   4.9990777283822E-04
(PID.TID 0000.0001) %MON ke_max                       =   2.2265203745088E-01
(PID.TID 0000.0001) %MON ke_mean                      =   1.6501611007692E-04
(PID.TID 0000.0001) %MON ke_vol                       =   1.3398140723601E+18
(PID.TID 0000.0001) %MON vort_r_min                   =  -3.5775844260680E-06
(PID.TID 0000.0001) %MON vort_r_max                   =   2.2346196772098E-06
(PID.TID 0000.0001) %MON vort_a_mean                  =  -2.0549865324846E-05
(PID.TID 0000.0001) %MON vort_a_sd                    =   7.5259716295703E-05
(PID.TID 0000.0001) %MON vort_p_mean                  =  -2.4783250280090E-05
(PID.TID 0000.0001) %MON vort_p_sd                    =   1.2811920791292E-04
(PID.TID 0000.0001) %MON surfExpan_theta_mean         =  -6.0333835616648E-06
(PID.TID 0000.0001) %MON surfExpan_salt_mean          =   1.1958949554487E-06
(PID.TID 0000.0001) // =======================================================
(PID.TID 0000.0001) // End MONITOR dynamic field statistics
(PID.TID 0000.0001) // =======================================================
 cg2d: Sum(rhs),rhsMax =  -7.69001822796027E+01  3.61995358971761E+01
(PID.TID 0000.0001)      cg2d_init_res =   1.89566695654057E-01
(PID.TID 0000.0001)      cg2d_iters(min,last) =      -1      10
(PID.TID 0000.0001)      cg2d_last_res =   9.03027389596306E-08
(PID.TID 0000.0001) // =======================================================
(PID.TID 0000.0001) // Begin MONITOR dynamic field statistics
(PID.TID 0000.0001) // =======================================================
(PID.TID 0000.0001) %MON time_tsnumber                =                 72075
(PID.TID 0000.0001) %MON time_secondsf                =   6.4867500000000E+07
(PID.TID 0000.0001) %MON dynstat_eta_max              =   1.3158576832897E+00
(PID.TID 0000.0001) %MON dynstat_eta_min              =  -2.0402863889852E+00
(PID.TID 0000.0001) %MON dynstat_eta_mean             =   3.2346816518020E-02
(PID.TID 0000.0001) %MON dynstat_eta_sd               =   6.1174527314258E-01
(PID.TID 0000.0001) %MON dynstat_eta_del2             =   1.7116026262025E-03
(PID.TID 0000.0001) %MON dynstat_uvel_max             =   3.2436440585330E-01
(PID.TID 0000.0001) %MON dynstat_uvel_min             =  -7.1737163077631E-01
(PID.TID 0000.0001) %MON dynstat_uvel_mean            =  -3.1653827752647E-04
(PID.TID 0000.0001) %MON dynstat_uvel_sd              =   1.3078572775757E-02
(PID.TID 0000.0001) %MON dynstat_uvel_del2            =   8.6378906819630E-05
(PID.TID 0000.0001) %MON dynstat_vvel_max             =   2.6746182247166E-01
(PID.TID 0000.0001) %MON dynstat_vvel_min             =  -3.2323902401551E-01
(PID.TID 0000.0001) %MON dynstat_vvel_mean            =   3.8171761310125E-04
(PID.TID 0000.0001) %MON dynstat_vvel_sd              =   1.3630844602383E-02
(PID.TID 0000.0001) %MON dynstat_vvel_del2            =   8.4055376520853E-05
(PID.TID 0000.0001) %MON dynstat_wvel_max             =   1.1638334007455E-04
(PID.TID 0000.0001) %MON dynstat_wvel_min             =  -1.9122251595801E-04
(PID.TID 0000.0001) %MON dynstat_wvel_mean            =  -1.3089272336603E-07
(PID.TID 0000.0001) %MON dynstat_wvel_sd              =   7.7411441189971E-06
(PID.TID 0000.0001) %MON dynstat_wvel_del2            =   6.8882380734000E-08
(PID.TID 0000.0001) %MON dynstat_theta_max            =   3.0924894652201E+01
(PID.TID 0000.0001) %MON dynstat_theta_min            =  -3.0104184380245E+00
(PID.TID 0000.0001) %MON dynstat_theta_mean           =   3.9091821998163E+00
(PID.TID 0000.0001) %MON dynstat_theta_sd             =   4.5715647232267E+00
(PID.TID 0000.0001) %MON dynstat_theta_del2           =   2.6396658863387E-03
(PID.TID 0000.0001) %MON dynstat_salt_max             =   4.1347030282869E+01
(PID.TID 0000.0001) %MON dynstat_salt_min             =   1.8519133932570E+01
(PID.TID 0000.0001) %MON dynstat_salt_mean            =   3.4771911845831E+01
(PID.TID 0000.0001) %MON dynstat_salt_sd              =   5.3216103952751E-01
(PID.TID 0000.0001) %MON dynstat_salt_del2            =   1.1106046166741E-03
(PID.TID 0000.0001) %MON dynstat_sst_max              =   3.0924894652201E+01
(PID.TID 0000.0001) %MON dynstat_sst_min              =  -1.8992925818869E+00
(PID.TID 0000.0001) %MON dynstat_sst_mean             =   1.8108390826751E+01
(PID.TID 0000.0001) %MON dynstat_sst_sd               =   9.8127862433371E+00
(PID.TID 0000.0001) %MON dynstat_sst_del2             =   1.4992215178297E-02
(PID.TID 0000.0001) %MON dynstat_sss_max              =   4.1347030282869E+01
(PID.TID 0000.0001) %MON dynstat_sss_min              =   1.8752307867518E+01
(PID.TID 0000.0001) %MON dynstat_sss_mean             =   3.4621392867460E+01
(PID.TID 0000.0001) %MON dynstat_sss_sd               =   1.4877840337206E+00
(PID.TID 0000.0001) %MON dynstat_sss_del2             =   1.2536623188576E-02
(PID.TID 0000.0001) %MON forcing_qnet_max             =   1.6368518066406E+03
(PID.TID 0000.0001) %MON forcing_qnet_min             =  -1.3820197753906E+03
(PID.TID 0000.0001) %MON forcing_qnet_mean            =  -2.4072524033486E+01
(PID.TID 0000.0001) %MON forcing_qnet_sd              =   2.1361141028018E+02
(PID.TID 0000.0001) %MON forcing_qnet_del2            =   3.7396471597095E+00
(PID.TID 0000.0001) %MON forcing_qsw_max              =   0.0000000000000E+00
(PID.TID 0000.0001) %MON forcing_qsw_min              =  -1.0615281347776E+02
(PID.TID 0000.0001) %MON forcing_qsw_mean             =  -1.7314011905453E+01
(PID.TID 0000.0001) %MON forcing_qsw_sd               =   2.7845286852630E+01
(PID.TID 0000.0001) %MON forcing_qsw_del2             =   2.4686990164202E-01
(PID.TID 0000.0001) %MON forcing_empmr_max            =   5.1541905850172E-03
(PID.TID 0000.0001) %MON forcing_empmr_min            =  -7.4096366763115E-02
(PID.TID 0000.0001) %MON forcing_empmr_mean           =  -2.2606500234671E-04
(PID.TID 0000.0001) %MON forcing_empmr_sd             =   3.2649003888787E-03
(PID.TID 0000.0001) %MON forcing_empmr_del2           =   1.2874225080260E-04
(PID.TID 0000.0001) %MON forcing_fu_max               =   3.0636555116574E-01
(PID.TID 0000.0001) %MON forcing_fu_min               =  -3.5043627148863E-01
(PID.TID 0000.0001) %MON forcing_fu_mean              =  -3.5992990836218E-03
(PID.TID 0000.0001) %MON forcing_fu_sd                =   6.0950110143960E-02
(PID.TID 0000.0001) %MON forcing_fu_del2              =   5.9848472711385E-04
(PID.TID 0000.0001) %MON forcing_fv_max               =   2.6155522870669E-01
(PID.TID 0000.0001) %MON forcing_fv_min               =  -2.4894850287125E-01
(PID.TID 0000.0001) %MON forcing_fv_mean              =  -1.4760398596731E-02
(PID.TID 0000.0001) %MON forcing_fv_sd                =   6.0875739467466E-02
(PID.TID 0000.0001) %MON forcing_fv_del2              =   5.2225983230730E-04
(PID.TID 0000.0001) %MON trAdv_CFL_u_max              =   2.1181780736761E-03
(PID.TID 0000.0001) %MON trAdv_CFL_v_max              =   1.1781667059391E-03
(PID.TID 0000.0001) %MON trAdv_CFL_w_max              =   1.5833043279573E-03
(PID.TID 0000.0001) %MON advcfl_uvel_max              =   2.0846885261255E-03
(PID.TID 0000.0001) %MON advcfl_vvel_max              =   1.1277637428217E-03
(PID.TID 0000.0001) %MON advcfl_wvel_max              =   2.5772649308910E-03
(PID.TID 0000.0001) %MON advcfl_W_hf_max              =   1.5833043279573E-03
(PID.TID 0000.0001) %MON pe_b_mean                    =   4.9993607415708E-04
(PID.TID 0000.0001) %MON ke_max                       =   2.1929908601005E-01
(PID.TID 0000.0001) %MON ke_mean                      =   1.6489550660346E-04
(PID.TID 0000.0001) %MON ke_vol                       =   1.3398141444081E+18
(PID.TID 0000.0001) %MON vort_r_min                   =  -3.3691847544158E-06
(PID.TID 0000.0001) %MON vort_r_max                   =   2.3239571185662E-06
(PID.TID 0000.0001) %MON vort_a_mean                  =  -2.0549865324846E-05
(PID.TID 0000.0001) %MON vort_a_sd                    =   7.5259711638121E-05
(PID.TID 0000.0001) %MON vort_p_mean                  =  -2.4783248778598E-05
(PID.TID 0000.0001) %MON vort_p_sd                    =   1.2811920517551E-04
(PID.TID 0000.0001) %MON surfExpan_theta_mean         =  -5.9670052781194E-06
(PID.TID 0000.0001) %MON surfExpan_salt_mean          =   1.1805205456017E-06
(PID.TID 0000.0001) // =======================================================
(PID.TID 0000.0001) // End MONITOR dynamic field statistics
(PID.TID 0000.0001) // =======================================================
 Computing Diagnostic #     81  oceTAUX      Counter:       1   Parms: UU      U1      
           Vector  Mate for  oceTAUX      Diagnostic #     82  oceTAUY  exists 
 Computing Diagnostic #     82  oceTAUY      Counter:       1   Parms: VV      U1      
           Vector  Mate for  oceTAUY      Diagnostic #     81  oceTAUX  exists 
 Computing Diagnostic #     85  oceFWflx     Counter:       1   Parms: SM      U1      
 Computing Diagnostic #     86  oceSflux     Counter:       1   Parms: SM      U1      
 Computing Diagnostic #     87  oceQnet      Counter:       1   Parms: SM      U1      
 Computing Diagnostic #     88  oceQsw       Counter:       1   Parms: SM      U1      
 Computing Diagnostic #     27  SALT         Counter:       1   Parms: SMR     MR      
 Computing Diagnostic #     26  THETA        Counter:       1   Parms: SMR     MR      
 Computing Diagnostic #     45  UVELMASS     Counter:       1   Parms: UUr     MR      
           Vector  Mate for  UVELMASS     Diagnostic #     46  VVELMASS exists 
 Computing Diagnostic #     46  VVELMASS     Counter:       1   Parms: VVr     MR      
           Vector  Mate for  VVELMASS     Diagnostic #     45  UVELMASS exists 
 Computing Diagnostic #     83  atmPload     Counter:       1   Parms: SM      U1      
 cg2d: Sum(rhs),rhsMax =  -7.75406329972641E+01  3.61162376877569E+01
(PID.TID 0000.0001)      cg2d_init_res =   1.87092176526034E-01
(PID.TID 0000.0001)      cg2d_iters(min,last) =      -1      10
(PID.TID 0000.0001)      cg2d_last_res =   8.89922767702466E-08
(PID.TID 0000.0001) // =======================================================
(PID.TID 0000.0001) // Begin MONITOR dynamic field statistics
(PID.TID 0000.0001) // =======================================================
(PID.TID 0000.0001) %MON time_tsnumber                =                 72076
(PID.TID 0000.0001) %MON time_secondsf                =   6.4868400000000E+07
(PID.TID 0000.0001) %MON dynstat_eta_max              =   1.3245348586272E+00
(PID.TID 0000.0001) %MON dynstat_eta_min              =  -1.9702217142433E+00
(PID.TID 0000.0001) %MON dynstat_eta_mean             =   3.2541159066387E-02
(PID.TID 0000.0001) %MON dynstat_eta_sd               =   6.1173177567961E-01
(PID.TID 0000.0001) %MON dynstat_eta_del2             =   1.6992452131193E-03
(PID.TID 0000.0001) %MON dynstat_uvel_max             =   3.1366651445575E-01
(PID.TID 0000.0001) %MON dynstat_uvel_min             =  -6.8996926458651E-01
(PID.TID 0000.0001) %MON dynstat_uvel_mean            =  -3.2741714609638E-04
(PID.TID 0000.0001) %MON dynstat_uvel_sd              =   1.3063027259759E-02
(PID.TID 0000.0001) %MON dynstat_uvel_del2            =   8.5798537076329E-05
(PID.TID 0000.0001) %MON dynstat_vvel_max             =   2.6117143705373E-01
(PID.TID 0000.0001) %MON dynstat_vvel_min             =  -3.1436216048483E-01
(PID.TID 0000.0001) %MON dynstat_vvel_mean            =   3.5991628959314E-04
(PID.TID 0000.0001) %MON dynstat_vvel_sd              =   1.3638838893860E-02
(PID.TID 0000.0001) %MON dynstat_vvel_del2            =   8.4237501877546E-05
(PID.TID 0000.0001) %MON dynstat_wvel_max             =   1.1996874202019E-04
(PID.TID 0000.0001) %MON dynstat_wvel_min             =  -1.9122546626100E-04
(PID.TID 0000.0001) %MON dynstat_wvel_mean            =  -1.2135308524910E-07
(PID.TID 0000.0001) %MON dynstat_wvel_sd              =   7.7325942278667E-06
(PID.TID 0000.0001) %MON dynstat_wvel_del2            =   6.8767488146723E-08
(PID.TID 0000.0001) %MON dynstat_theta_max            =   3.0924754292311E+01
(PID.TID 0000.0001) %MON dynstat_theta_min            =  -3.0108444723775E+00
(PID.TID 0000.0001) %MON dynstat_theta_mean           =   3.9091848675444E+00
(PID.TID 0000.0001) %MON dynstat_theta_sd             =   4.5715743192437E+00
(PID.TID 0000.0001) %MON dynstat_theta_del2           =   2.6395549324523E-03
(PID.TID 0000.0001) %MON dynstat_salt_max             =   4.1346992188161E+01
(PID.TID 0000.0001) %MON dynstat_salt_min             =   1.8519143970275E+01
(PID.TID 0000.0001) %MON dynstat_salt_mean            =   3.4771910071726E+01
(PID.TID 0000.0001) %MON dynstat_salt_sd              =   5.3217280236083E-01
(PID.TID 0000.0001) %MON dynstat_salt_del2            =   1.1132338550306E-03
(PID.TID 0000.0001) %MON dynstat_sst_max              =   3.0924754292311E+01
(PID.TID 0000.0001) %MON dynstat_sst_min              =  -1.8992723809054E+00
(PID.TID 0000.0001) %MON dynstat_sst_mean             =   1.8108488520161E+01
(PID.TID 0000.0001) %MON dynstat_sst_sd               =   9.8129029420293E+00
(PID.TID 0000.0001) %MON dynstat_sst_del2             =   1.4990302328716E-02
(PID.TID 0000.0001) %MON dynstat_sss_max              =   4.1346992188161E+01
(PID.TID 0000.0001) %MON dynstat_sss_min              =   1.8752324347962E+01
(PID.TID 0000.0001) %MON dynstat_sss_mean             =   3.4621256936300E+01
(PID.TID 0000.0001) %MON dynstat_sss_sd               =   1.4880847362372E+00
(PID.TID 0000.0001) %MON dynstat_sss_del2             =   1.2573436063061E-02
(PID.TID 0000.0001) %MON forcing_qnet_max             =   1.6176831054688E+03
(PID.TID 0000.0001) %MON forcing_qnet_min             =  -1.9161638183594E+03
(PID.TID 0000.0001) %MON forcing_qnet_mean            =  -2.5101356691021E+01
(PID.TID 0000.0001) %MON forcing_qnet_sd              =   2.1380685904016E+02
(PID.TID 0000.0001) %MON forcing_qnet_del2            =   4.0300728186616E+00
(PID.TID 0000.0001) %MON forcing_qsw_max              =   0.0000000000000E+00
(PID.TID 0000.0001) %MON forcing_qsw_min              =  -1.0563579584793E+02
(PID.TID 0000.0001) %MON forcing_qsw_mean             =  -1.7427095827202E+01
(PID.TID 0000.0001) %MON forcing_qsw_sd               =   2.7708697389258E+01
(PID.TID 0000.0001) %MON forcing_qsw_del2             =   2.4571494961133E-01
(PID.TID 0000.0001) %MON forcing_empmr_max            =   5.1011508330703E-03
(PID.TID 0000.0001) %MON forcing_empmr_min            =  -7.3333643376827E-02
(PID.TID 0000.0001) %MON forcing_empmr_mean           =  -2.2349393062282E-04
(PID.TID 0000.0001) %MON forcing_empmr_sd             =   3.2315809805621E-03
(PID.TID 0000.0001) %MON forcing_empmr_del2           =   1.2740266522987E-04
(PID.TID 0000.0001) %MON forcing_fu_max               =   3.0066125666985E-01
(PID.TID 0000.0001) %MON forcing_fu_min               =  -3.5122332218982E-01
(PID.TID 0000.0001) %MON forcing_fu_mean              =  -3.6333818006742E-03
(PID.TID 0000.0001) %MON forcing_fu_sd                =   6.0692792006284E-02
(PID.TID 0000.0001) %MON forcing_fu_del2              =   5.9682729755417E-04
(PID.TID 0000.0001) %MON forcing_fv_max               =   2.6726110998318E-01
(PID.TID 0000.0001) %MON forcing_fv_min               =  -2.4817736461922E-01
(PID.TID 0000.0001) %MON forcing_fv_mean              =  -1.4768369059532E-02
(PID.TID 0000.0001) %MON forcing_fv_sd                =   6.0943450796127E-02
(PID.TID 0000.0001) %MON forcing_fv_del2              =   5.2197773276074E-04
(PID.TID 0000.0001) %MON trAdv_CFL_u_max              =   2.0387427513807E-03
(PID.TID 0000.0001) %MON trAdv_CFL_v_max              =   1.1801975155922E-03
(PID.TID 0000.0001) %MON trAdv_CFL_w_max              =   1.5300287563132E-03
(PID.TID 0000.0001) %MON advcfl_uvel_max              =   2.0050569991264E-03
(PID.TID 0000.0001) %MON advcfl_vvel_max              =   1.1362451800282E-03
(PID.TID 0000.0001) %MON advcfl_wvel_max              =   2.5507354218027E-03
(PID.TID 0000.0001) %MON advcfl_W_hf_max              =   1.5300287563132E-03
(PID.TID 0000.0001) %MON pe_b_mean                    =   4.9993084753897E-04
(PID.TID 0000.0001) %MON ke_max                       =   2.1511773945210E-01
(PID.TID 0000.0001) %MON ke_mean                      =   1.6480569565966E-04
(PID.TID 0000.0001) %MON ke_vol                       =   1.3398142159403E+18
(PID.TID 0000.0001) %MON vort_r_min                   =  -3.1472211693597E-06
(PID.TID 0000.0001) %MON vort_r_max                   =   2.4070064957148E-06
(PID.TID 0000.0001) %MON vort_a_mean                  =  -2.0549865324846E-05
(PID.TID 0000.0001) %MON vort_a_sd                    =   7.5259706836009E-05
(PID.TID 0000.0001) %MON vort_p_mean                  =  -2.4783247300220E-05
(PID.TID 0000.0001) %MON vort_p_sd                    =   1.2811920207496E-04
(PID.TID 0000.0001) %MON surfExpan_theta_mean         =  -5.8687166757041E-06
(PID.TID 0000.0001) %MON surfExpan_salt_mean          =   1.1636245954010E-06
(PID.TID 0000.0001) // =======================================================
(PID.TID 0000.0001) // End MONITOR dynamic field statistics
(PID.TID 0000.0001) // =======================================================
 cg2d: Sum(rhs),rhsMax =  -7.79318258902944E+01  3.61481162319113E+01
(PID.TID 0000.0001)      cg2d_init_res =   1.85700464182312E-01
(PID.TID 0000.0001)      cg2d_iters(min,last) =      -1      10
(PID.TID 0000.0001)      cg2d_last_res =   8.57584286172514E-08
(PID.TID 0000.0001) // =======================================================
(PID.TID 0000.0001) // Begin MONITOR dynamic field statistics
(PID.TID 0000.0001) // =======================================================
(PID.TID 0000.0001) %MON time_tsnumber                =                 72077
(PID.TID 0000.0001) %MON time_secondsf                =   6.4869300000000E+07
(PID.TID 0000.0001) %MON dynstat_eta_max              =   1.3263288715385E+00
(PID.TID 0000.0001) %MON dynstat_eta_min              =  -1.8751064911039E+00
(PID.TID 0000.0001) %MON dynstat_eta_mean             =   3.2734197235841E-02
(PID.TID 0000.0001) %MON dynstat_eta_sd               =   6.1169992523286E-01
(PID.TID 0000.0001) %MON dynstat_eta_del2             =   1.6762835734191E-03
(PID.TID 0000.0001) %MON dynstat_uvel_max             =   3.3662388454317E-01
(PID.TID 0000.0001) %MON dynstat_uvel_min             =  -6.5990566618241E-01
(PID.TID 0000.0001) %MON dynstat_uvel_mean            =  -3.3941618030428E-04
(PID.TID 0000.0001) %MON dynstat_uvel_sd              =   1.3046992412080E-02
(PID.TID 0000.0001) %MON dynstat_uvel_del2            =   8.5335969048043E-05
(PID.TID 0000.0001) %MON dynstat_vvel_max             =   2.5301006538022E-01
(PID.TID 0000.0001) %MON dynstat_vvel_min             =  -3.1606633154940E-01
(PID.TID 0000.0001) %MON dynstat_vvel_mean            =   3.3794884613500E-04
(PID.TID 0000.0001) %MON dynstat_vvel_sd              =   1.3649270707807E-02
(PID.TID 0000.0001) %MON dynstat_vvel_del2            =   8.4702729093430E-05
(PID.TID 0000.0001) %MON dynstat_wvel_max             =   1.2233682931664E-04
(PID.TID 0000.0001) %MON dynstat_wvel_min             =  -1.9123318941069E-04
(PID.TID 0000.0001) %MON dynstat_wvel_mean            =  -1.1249390238692E-07
(PID.TID 0000.0001) %MON dynstat_wvel_sd              =   7.7229515709520E-06
(PID.TID 0000.0001) %MON dynstat_wvel_del2            =   6.8645971014472E-08
(PID.TID 0000.0001) %MON dynstat_theta_max            =   3.0924605818750E+01
(PID.TID 0000.0001) %MON dynstat_theta_min            =  -3.0112942113982E+00
(PID.TID 0000.0001) %MON dynstat_theta_mean           =   3.9091877632089E+00
(PID.TID 0000.0001) %MON dynstat_theta_sd             =   4.5715847919504E+00
(PID.TID 0000.0001) %MON dynstat_theta_del2           =   2.6394343302245E-03
(PID.TID 0000.0001) %MON dynstat_salt_max             =   4.1346954320386E+01
(PID.TID 0000.0001) %MON dynstat_salt_min             =   1.8519153999477E+01
(PID.TID 0000.0001) %MON dynstat_salt_mean            =   3.4771908333849E+01
(PID.TID 0000.0001) %MON dynstat_salt_sd              =   5.3218441701683E-01
(PID.TID 0000.0001) %MON dynstat_salt_del2            =   1.1158091155511E-03
(PID.TID 0000.0001) %MON dynstat_sst_max              =   3.0924605818750E+01
(PID.TID 0000.0001) %MON dynstat_sst_min              =  -1.8992340935851E+00
(PID.TID 0000.0001) %MON dynstat_sst_mean             =   1.8108602722940E+01
(PID.TID 0000.0001) %MON dynstat_sst_sd               =   9.8130255165892E+00
(PID.TID 0000.0001) %MON dynstat_sst_del2             =   1.4988114582119E-02
(PID.TID 0000.0001) %MON dynstat_sss_max              =   4.1346954320386E+01
(PID.TID 0000.0001) %MON dynstat_sss_min              =   1.8752340505364E+01
(PID.TID 0000.0001) %MON dynstat_sss_mean             =   3.4621123604441E+01
(PID.TID 0000.0001) %MON dynstat_sss_sd               =   1.4883812774832E+00
(PID.TID 0000.0001) %MON dynstat_sss_del2             =   1.2609473217271E-02
(PID.TID 0000.0001) %MON forcing_qnet_max             =   1.5996687011719E+03
(PID.TID 0000.0001) %MON forcing_qnet_min             =  -3.7138049316406E+03
(PID.TID 0000.0001) %MON forcing_qnet_mean            =  -2.9147817166066E+01
(PID.TID 0000.0001) %MON forcing_qnet_sd              =   2.2172767738049E+02
(PID.TID 0000.0001) %MON forcing_qnet_del2            =   5.3173566391537E+00
(PID.TID 0000.0001) %MON forcing_qsw_max              =   0.0000000000000E+00
(PID.TID 0000.0001) %MON forcing_qsw_min              =  -1.0523111020902E+02
(PID.TID 0000.0001) %MON forcing_qsw_mean             =  -1.7768476572594E+01
(PID.TID 0000.0001) %MON forcing_qsw_sd               =   2.7617863113360E+01
(PID.TID 0000.0001) %MON forcing_qsw_del2             =   2.4321032651628E-01
(PID.TID 0000.0001) %MON forcing_empmr_max            =   5.0486037507653E-03
(PID.TID 0000.0001) %MON forcing_empmr_min            =  -7.2578467428684E-02
(PID.TID 0000.0001) %MON forcing_empmr_mean           =  -2.2199389487104E-04
(PID.TID 0000.0001) %MON forcing_empmr_sd             =   3.1985358208818E-03
(PID.TID 0000.0001) %MON forcing_empmr_del2           =   1.2609489808806E-04
(PID.TID 0000.0001) %MON forcing_fu_max               =   2.9398623926502E-01
(PID.TID 0000.0001) %MON forcing_fu_min               =  -3.5706523322571E-01
(PID.TID 0000.0001) %MON forcing_fu_mean              =  -3.7410074332988E-03
(PID.TID 0000.0001) %MON forcing_fu_sd                =   6.0506707917913E-02
(PID.TID 0000.0001) %MON forcing_fu_del2              =   5.9560638080606E-04
(PID.TID 0000.0001) %MON forcing_fv_max               =   2.8268000374181E-01
(PID.TID 0000.0001) %MON forcing_fv_min               =  -2.4640733062281E-01
(PID.TID 0000.0001) %MON forcing_fv_mean              =  -1.4719298522706E-02
(PID.TID 0000.0001) %MON forcing_fv_sd                =   6.1081441503603E-02
(PID.TID 0000.0001) %MON forcing_fv_del2              =   5.2305715632113E-04
(PID.TID 0000.0001) %MON trAdv_CFL_u_max              =   1.9511490274130E-03
(PID.TID 0000.0001) %MON trAdv_CFL_v_max              =   1.1819531442895E-03
(PID.TID 0000.0001) %MON trAdv_CFL_w_max              =   1.4740298113033E-03
(PID.TID 0000.0001) %MON advcfl_uvel_max              =   1.9176919069506E-03
(PID.TID 0000.0001) %MON advcfl_vvel_max              =   1.1443969444891E-03
(PID.TID 0000.0001) %MON advcfl_wvel_max              =   2.5244684323021E-03
(PID.TID 0000.0001) %MON advcfl_W_hf_max              =   1.4740298113033E-03
(PID.TID 0000.0001) %MON pe_b_mean                    =   4.9989569679649E-04
(PID.TID 0000.0001) %MON ke_max                       =   2.1022786286532E-01
(PID.TID 0000.0001) %MON ke_mean                      =   1.6474201392563E-04
(PID.TID 0000.0001) %MON ke_vol                       =   1.3398142866590E+18
(PID.TID 0000.0001) %MON vort_r_min                   =  -2.9134338002821E-06
(PID.TID 0000.0001) %MON vort_r_max                   =   2.4830863668173E-06
(PID.TID 0000.0001) %MON vort_a_mean                  =  -2.0549865324846E-05
(PID.TID 0000.0001) %MON vort_a_sd                    =   7.5259701959129E-05
(PID.TID 0000.0001) %MON vort_p_mean                  =  -2.4783245854562E-05
(PID.TID 0000.0001) %MON vort_p_sd                    =   1.2811919905886E-04
(PID.TID 0000.0001) %MON surfExpan_theta_mean         =  -5.7811703520901E-06
(PID.TID 0000.0001) %MON surfExpan_salt_mean          =   1.1484503233431E-06
(PID.TID 0000.0001) // =======================================================
(PID.TID 0000.0001) // End MONITOR dynamic field statistics
(PID.TID 0000.0001) // =======================================================
 cg2d: Sum(rhs),rhsMax =  -7.83273238957553E+01  3.61754993691800E+01
(PID.TID 0000.0001)      cg2d_init_res =   1.85733843743539E-01
(PID.TID 0000.0001)      cg2d_iters(min,last) =      -1      10
(PID.TID 0000.0001)      cg2d_last_res =   8.21752456637724E-08
(PID.TID 0000.0001) // =======================================================
(PID.TID 0000.0001) // Begin MONITOR dynamic field statistics
(PID.TID 0000.0001) // =======================================================
(PID.TID 0000.0001) %MON time_tsnumber                =                 72078
(PID.TID 0000.0001) %MON time_secondsf                =   6.4870200000000E+07
(PID.TID 0000.0001) %MON dynstat_eta_max              =   1.3210851538056E+00
(PID.TID 0000.0001) %MON dynstat_eta_min              =  -1.7573903346201E+00
(PID.TID 0000.0001) %MON dynstat_eta_mean             =   3.2925243609817E-02
(PID.TID 0000.0001) %MON dynstat_eta_sd               =   6.1165155250998E-01
(PID.TID 0000.0001) %MON dynstat_eta_del2             =   1.6439912959763E-03
(PID.TID 0000.0001) %MON dynstat_uvel_max             =   3.5821159520718E-01
(PID.TID 0000.0001) %MON dynstat_uvel_min             =  -6.5745795037690E-01
(PID.TID 0000.0001) %MON dynstat_uvel_mean            =  -3.5233350166592E-04
(PID.TID 0000.0001) %MON dynstat_uvel_sd              =   1.3030496628573E-02
(PID.TID 0000.0001) %MON dynstat_uvel_del2            =   8.4989508217481E-05
(PID.TID 0000.0001) %MON dynstat_vvel_max             =   2.4304968792244E-01
(PID.TID 0000.0001) %MON dynstat_vvel_min             =  -3.2551997431332E-01
(PID.TID 0000.0001) %MON dynstat_vvel_mean            =   3.1601806276359E-04
(PID.TID 0000.0001) %MON dynstat_vvel_sd              =   1.3661241363714E-02
(PID.TID 0000.0001) %MON dynstat_vvel_del2            =   8.5361856415695E-05
(PID.TID 0000.0001) %MON dynstat_wvel_max             =   1.2351663376355E-04
(PID.TID 0000.0001) %MON dynstat_wvel_min             =  -1.9125116966738E-04
(PID.TID 0000.0001) %MON dynstat_wvel_mean            =  -1.0325542580599E-07
(PID.TID 0000.0001) %MON dynstat_wvel_sd              =   7.7120092858887E-06
(PID.TID 0000.0001) %MON dynstat_wvel_del2            =   6.8506599310350E-08
(PID.TID 0000.0001) %MON dynstat_theta_max            =   3.0924449045992E+01
(PID.TID 0000.0001) %MON dynstat_theta_min            =  -3.0117655481922E+00
(PID.TID 0000.0001) %MON dynstat_theta_mean           =   3.9091906806917E+00
(PID.TID 0000.0001) %MON dynstat_theta_sd             =   4.5715952961766E+00
(PID.TID 0000.0001) %MON dynstat_theta_del2           =   2.6392686233327E-03
(PID.TID 0000.0001) %MON dynstat_salt_max             =   4.1346916548448E+01
(PID.TID 0000.0001) %MON dynstat_salt_min             =   1.8519164023279E+01
(PID.TID 0000.0001) %MON dynstat_salt_mean            =   3.4771906616059E+01
(PID.TID 0000.0001) %MON dynstat_salt_sd              =   5.3219582568425E-01
(PID.TID 0000.0001) %MON dynstat_salt_del2            =   1.1183252192630E-03
(PID.TID 0000.0001) %MON dynstat_sst_max              =   3.0924449045992E+01
(PID.TID 0000.0001) %MON dynstat_sst_min              =  -1.8991783187779E+00
(PID.TID 0000.0001) %MON dynstat_sst_mean             =   1.8108718999726E+01
(PID.TID 0000.0001) %MON dynstat_sst_sd               =   9.8131465998091E+00
(PID.TID 0000.0001) %MON dynstat_sst_del2             =   1.4984670006565E-02
(PID.TID 0000.0001) %MON dynstat_sss_max              =   4.1346916548448E+01
(PID.TID 0000.0001) %MON dynstat_sss_min              =   1.8752356503656E+01
(PID.TID 0000.0001) %MON dynstat_sss_mean             =   3.4620991731705E+01
(PID.TID 0000.0001) %MON dynstat_sss_sd               =   1.4886719521015E+00
(PID.TID 0000.0001) %MON dynstat_sss_del2             =   1.2644664607716E-02
(PID.TID 0000.0001) %MON forcing_qnet_max             =   1.5809542236328E+03
(PID.TID 0000.0001) %MON forcing_qnet_min             =  -6.7880493164062E+03
(PID.TID 0000.0001) %MON forcing_qnet_mean            =  -2.9840043371898E+01
(PID.TID 0000.0001) %MON forcing_qnet_sd              =   2.2722915499968E+02
(PID.TID 0000.0001) %MON forcing_qnet_del2            =   6.1276835181372E+00
(PID.TID 0000.0001) %MON forcing_qsw_max              =   0.0000000000000E+00
(PID.TID 0000.0001) %MON forcing_qsw_min              =  -1.0384819161715E+02
(PID.TID 0000.0001) %MON forcing_qsw_mean             =  -1.7950044704269E+01
(PID.TID 0000.0001) %MON forcing_qsw_sd               =   2.7595654474406E+01
(PID.TID 0000.0001) %MON forcing_qsw_del2             =   2.4222739477504E-01
(PID.TID 0000.0001) %MON forcing_empmr_max            =   4.9965479411185E-03
(PID.TID 0000.0001) %MON forcing_empmr_min            =  -7.1831673383713E-02
(PID.TID 0000.0001) %MON forcing_empmr_mean           =  -2.1970333007240E-04
(PID.TID 0000.0001) %MON forcing_empmr_sd             =   3.1658925873995E-03
(PID.TID 0000.0001) %MON forcing_empmr_del2           =   1.2479962494664E-04
(PID.TID 0000.0001) %MON forcing_fu_max               =   2.8446842318008E-01
(PID.TID 0000.0001) %MON forcing_fu_min               =  -3.4177546419448E-01
(PID.TID 0000.0001) %MON forcing_fu_mean              =  -3.8478803186542E-03
(PID.TID 0000.0001) %MON forcing_fu_sd                =   5.9930313831232E-02
(PID.TID 0000.0001) %MON forcing_fu_del2              =   5.9081782476575E-04
(PID.TID 0000.0001) %MON forcing_fv_max               =   2.8939042163418E-01
(PID.TID 0000.0001) %MON forcing_fv_min               =  -2.4498743773441E-01
(PID.TID 0000.0001) %MON forcing_fv_mean              =  -1.4692712130890E-02
(PID.TID 0000.0001) %MON forcing_fv_sd                =   6.1008847344789E-02
(PID.TID 0000.0001) %MON forcing_fv_del2              =   5.2083317431158E-04
(PID.TID 0000.0001) %MON trAdv_CFL_u_max              =   1.8968518375985E-03
(PID.TID 0000.0001) %MON trAdv_CFL_v_max              =   1.1834435523670E-03
(PID.TID 0000.0001) %MON trAdv_CFL_w_max              =   1.4157466488622E-03
(PID.TID 0000.0001) %MON advcfl_uvel_max              =   1.8966610197640E-03
(PID.TID 0000.0001) %MON advcfl_vvel_max              =   1.1521024334832E-03
(PID.TID 0000.0001) %MON advcfl_wvel_max              =   2.4984929872596E-03
(PID.TID 0000.0001) %MON advcfl_W_hf_max              =   1.4157466488622E-03
(PID.TID 0000.0001) %MON pe_b_mean                    =   4.9983354757449E-04
(PID.TID 0000.0001) %MON ke_max                       =   2.0475409601917E-01
(PID.TID 0000.0001) %MON ke_mean                      =   1.6469354280431E-04
(PID.TID 0000.0001) %MON ke_vol                       =   1.3398143569030E+18
(PID.TID 0000.0001) %MON vort_r_min                   =  -2.6697053349005E-06
(PID.TID 0000.0001) %MON vort_r_max                   =   2.5515747898027E-06
(PID.TID 0000.0001) %MON vort_a_mean                  =  -2.0549865324846E-05
(PID.TID 0000.0001) %MON vort_a_sd                    =   7.5259697062202E-05
(PID.TID 0000.0001) %MON vort_p_mean                  =  -2.4783244436360E-05
(PID.TID 0000.0001) %MON vort_p_sd                    =   1.2811919640557E-04
(PID.TID 0000.0001) %MON surfExpan_theta_mean         =  -5.6702986384922E-06
(PID.TID 0000.0001) %MON surfExpan_salt_mean          =   1.1319796121865E-06
(PID.TID 0000.0001) // =======================================================
(PID.TID 0000.0001) // End MONITOR dynamic field statistics
(PID.TID 0000.0001) // =======================================================
 cg2d: Sum(rhs),rhsMax =  -7.87309667503331E+01  3.61977605962069E+01
(PID.TID 0000.0001)      cg2d_init_res =   1.86822914217399E-01
(PID.TID 0000.0001)      cg2d_iters(min,last) =      -1      10
(PID.TID 0000.0001)      cg2d_last_res =   7.59707919584056E-08
(PID.TID 0000.0001) // =======================================================
(PID.TID 0000.0001) // Begin MONITOR dynamic field statistics
(PID.TID 0000.0001) // =======================================================
(PID.TID 0000.0001) %MON time_tsnumber                =                 72079
(PID.TID 0000.0001) %MON time_secondsf                =   6.4871100000000E+07
(PID.TID 0000.0001) %MON dynstat_eta_max              =   1.3087279693819E+00
(PID.TID 0000.0001) %MON dynstat_eta_min              =  -1.6199107766808E+00
(PID.TID 0000.0001) %MON dynstat_eta_mean             =   3.3115282239437E-02
(PID.TID 0000.0001) %MON dynstat_eta_sd               =   6.1159044323238E-01
(PID.TID 0000.0001) %MON dynstat_eta_del2             =   1.6041011980607E-03
(PID.TID 0000.0001) %MON dynstat_uvel_max             =   3.7763354713440E-01
(PID.TID 0000.0001) %MON dynstat_uvel_min             =  -6.7074136338747E-01
(PID.TID 0000.0001) %MON dynstat_uvel_mean            =  -3.6591928418224E-04
(PID.TID 0000.0001) %MON dynstat_uvel_sd              =   1.3014173319639E-02
(PID.TID 0000.0001) %MON dynstat_uvel_del2            =   8.4755328095300E-05
(PID.TID 0000.0001) %MON dynstat_vvel_max             =   2.3138169553689E-01
(PID.TID 0000.0001) %MON dynstat_vvel_min             =  -3.6170326864766E-01
(PID.TID 0000.0001) %MON dynstat_vvel_mean            =   2.9434694282211E-04
(PID.TID 0000.0001) %MON dynstat_vvel_sd              =   1.3673955912668E-02
(PID.TID 0000.0001) %MON dynstat_vvel_del2            =   8.6120371489238E-05
(PID.TID 0000.0001) %MON dynstat_wvel_max             =   1.2352833457540E-04
(PID.TID 0000.0001) %MON dynstat_wvel_min             =  -1.9127706238242E-04
(PID.TID 0000.0001) %MON dynstat_wvel_mean            =  -9.5134889460664E-08
(PID.TID 0000.0001) %MON dynstat_wvel_sd              =   7.7001987712428E-06
(PID.TID 0000.0001) %MON dynstat_wvel_del2            =   6.8345307081464E-08
(PID.TID 0000.0001) %MON dynstat_theta_max            =   3.0924284994096E+01
(PID.TID 0000.0001) %MON dynstat_theta_min            =  -3.0122562644865E+00
(PID.TID 0000.0001) %MON dynstat_theta_mean           =   3.9091935597258E+00
(PID.TID 0000.0001) %MON dynstat_theta_sd             =   4.5716060117336E+00
(PID.TID 0000.0001) %MON dynstat_theta_del2           =   2.6391696626346E-03
(PID.TID 0000.0001) %MON dynstat_salt_max             =   4.1346878886876E+01
(PID.TID 0000.0001) %MON dynstat_salt_min             =   1.8519174044657E+01
(PID.TID 0000.0001) %MON dynstat_salt_mean            =   3.4771904908570E+01
(PID.TID 0000.0001) %MON dynstat_salt_sd              =   5.3220710568568E-01
(PID.TID 0000.0001) %MON dynstat_salt_del2            =   1.1207915525063E-03
(PID.TID 0000.0001) %MON dynstat_sst_max              =   3.0924284994096E+01
(PID.TID 0000.0001) %MON dynstat_sst_min              =  -1.8991081577423E+00
(PID.TID 0000.0001) %MON dynstat_sst_mean             =   1.8108832310545E+01
(PID.TID 0000.0001) %MON dynstat_sst_sd               =   9.8132792403335E+00
(PID.TID 0000.0001) %MON dynstat_sst_del2             =   1.4983080563594E-02
(PID.TID 0000.0001) %MON dynstat_sss_max              =   4.1346878886876E+01
(PID.TID 0000.0001) %MON dynstat_sss_min              =   1.8752372350178E+01
(PID.TID 0000.0001) %MON dynstat_sss_mean             =   3.4620860677181E+01
(PID.TID 0000.0001) %MON dynstat_sss_sd               =   1.4889586871607E+00
(PID.TID 0000.0001) %MON dynstat_sss_del2             =   1.2679142729441E-02
(PID.TID 0000.0001) %MON forcing_qnet_max             =   1.5633737792969E+03
(PID.TID 0000.0001) %MON forcing_qnet_min             =  -1.1155279541016E+03
(PID.TID 0000.0001) %MON forcing_qnet_mean            =  -2.9302678183298E+01
(PID.TID 0000.0001) %MON forcing_qnet_sd              =   2.0344801960336E+02
(PID.TID 0000.0001) %MON forcing_qnet_del2            =   3.5113973761170E+00
(PID.TID 0000.0001) %MON forcing_qsw_max              =   0.0000000000000E+00
(PID.TID 0000.0001) %MON forcing_qsw_min              =  -1.0247096929707E+02
(PID.TID 0000.0001) %MON forcing_qsw_mean             =  -1.8080363693746E+01
(PID.TID 0000.0001) %MON forcing_qsw_sd               =   2.7552483945706E+01
(PID.TID 0000.0001) %MON forcing_qsw_del2             =   2.4080768265414E-01
(PID.TID 0000.0001) %MON forcing_empmr_max            =   4.9450825899839E-03
(PID.TID 0000.0001) %MON forcing_empmr_min            =  -7.1091599762440E-02
(PID.TID 0000.0001) %MON forcing_empmr_mean           =  -2.1854442406341E-04
(PID.TID 0000.0001) %MON forcing_empmr_sd             =   3.1334743249195E-03
(PID.TID 0000.0001) %MON forcing_empmr_del2           =   1.2350593534561E-04
(PID.TID 0000.0001) %MON forcing_fu_max               =   2.8031348461792E-01
(PID.TID 0000.0001) %MON forcing_fu_min               =  -3.4524575589110E-01
(PID.TID 0000.0001) %MON forcing_fu_mean              =  -3.9034711990457E-03
(PID.TID 0000.0001) %MON forcing_fu_sd                =   5.9642536532828E-02
(PID.TID 0000.0001) %MON forcing_fu_del2              =   5.8901827929063E-04
(PID.TID 0000.0001) %MON forcing_fv_max               =   2.8951529288925E-01
(PID.TID 0000.0001) %MON forcing_fv_min               =  -2.4496744685134E-01
(PID.TID 0000.0001) %MON forcing_fv_mean              =  -1.4695157478088E-02
(PID.TID 0000.0001) %MON forcing_fv_sd                =   6.1019823085538E-02
(PID.TID 0000.0001) %MON forcing_fv_del2              =   5.2012670305270E-04
(PID.TID 0000.0001) %MON trAdv_CFL_u_max              =   1.9360507454867E-03
(PID.TID 0000.0001) %MON trAdv_CFL_v_max              =   1.1846695224240E-03
(PID.TID 0000.0001) %MON trAdv_CFL_w_max              =   1.3556193625168E-03
(PID.TID 0000.0001) %MON advcfl_uvel_max              =   1.9349815414828E-03
(PID.TID 0000.0001) %MON advcfl_vvel_max              =   1.1803697041871E-03
(PID.TID 0000.0001) %MON advcfl_wvel_max              =   2.4727512960849E-03
(PID.TID 0000.0001) %MON advcfl_W_hf_max              =   1.3556193625168E-03
(PID.TID 0000.0001) %MON pe_b_mean                    =   4.9975065890934E-04
(PID.TID 0000.0001) %MON ke_max                       =   1.9881902308360E-01
(PID.TID 0000.0001) %MON ke_mean                      =   1.6465784965859E-04
(PID.TID 0000.0001) %MON ke_vol                       =   1.3398144264222E+18
(PID.TID 0000.0001) %MON vort_r_min                   =  -2.4180474335944E-06
(PID.TID 0000.0001) %MON vort_r_max                   =   2.6119089586721E-06
(PID.TID 0000.0001) %MON vort_a_mean                  =  -2.0549865324846E-05
(PID.TID 0000.0001) %MON vort_a_sd                    =   7.5259692216525E-05
(PID.TID 0000.0001) %MON vort_p_mean                  =  -2.4783243050976E-05
(PID.TID 0000.0001) %MON vort_p_sd                    =   1.2811919442692E-04
(PID.TID 0000.0001) %MON surfExpan_theta_mean         =  -5.5750901060027E-06
(PID.TID 0000.0001) %MON surfExpan_salt_mean          =   1.1154113450868E-06
(PID.TID 0000.0001) // =======================================================
(PID.TID 0000.0001) // End MONITOR dynamic field statistics
(PID.TID 0000.0001) // =======================================================
 Computing Diagnostic #     81  oceTAUX      Counter:       1   Parms: UU      U1      
           Vector  Mate for  oceTAUX      Diagnostic #     82  oceTAUY  exists 
 Computing Diagnostic #     82  oceTAUY      Counter:       1   Parms: VV      U1      
           Vector  Mate for  oceTAUY      Diagnostic #     81  oceTAUX  exists 
 Computing Diagnostic #     85  oceFWflx     Counter:       1   Parms: SM      U1      
 Computing Diagnostic #     86  oceSflux     Counter:       1   Parms: SM      U1      
 Computing Diagnostic #     87  oceQnet      Counter:       1   Parms: SM      U1      
 Computing Diagnostic #     88  oceQsw       Counter:       1   Parms: SM      U1      
 Computing Diagnostic #     27  SALT         Counter:       1   Parms: SMR     MR      
 Computing Diagnostic #     26  THETA        Counter:       1   Parms: SMR     MR      
 Computing Diagnostic #     45  UVELMASS     Counter:       1   Parms: UUr     MR      
           Vector  Mate for  UVELMASS     Diagnostic #     46  VVELMASS exists 
 Computing Diagnostic #     46  VVELMASS     Counter:       1   Parms: VVr     MR      
           Vector  Mate for  VVELMASS     Diagnostic #     45  UVELMASS exists 
 Computing Diagnostic #     83  atmPload     Counter:       1   Parms: SM      U1      
 cg2d: Sum(rhs),rhsMax =  -7.91405930241899E+01  3.62145377174696E+01
(PID.TID 0000.0001)      cg2d_init_res =   1.88482464143479E-01
(PID.TID 0000.0001)      cg2d_iters(min,last) =      -1      10
(PID.TID 0000.0001)      cg2d_last_res =   6.96528677993422E-08
(PID.TID 0000.0001) // =======================================================
(PID.TID 0000.0001) // Begin MONITOR dynamic field statistics
(PID.TID 0000.0001) // =======================================================
(PID.TID 0000.0001) %MON time_tsnumber                =                 72080
(PID.TID 0000.0001) %MON time_secondsf                =   6.4872000000000E+07
(PID.TID 0000.0001) %MON dynstat_eta_max              =   1.2892461696139E+00
(PID.TID 0000.0001) %MON dynstat_eta_min              =  -1.5619826162530E+00
(PID.TID 0000.0001) %MON dynstat_eta_mean             =   3.3303004743223E-02
(PID.TID 0000.0001) %MON dynstat_eta_sd               =   6.1151893842340E-01
(PID.TID 0000.0001) %MON dynstat_eta_del2             =   1.5587071086139E-03
(PID.TID 0000.0001) %MON dynstat_uvel_max             =   3.9389275265962E-01
(PID.TID 0000.0001) %MON dynstat_uvel_min             =  -6.8240536519487E-01
(PID.TID 0000.0001) %MON dynstat_uvel_mean            =  -3.7992789673997E-04
(PID.TID 0000.0001) %MON dynstat_uvel_sd              =   1.2998333864291E-02
(PID.TID 0000.0001) %MON dynstat_uvel_del2            =   8.4623882778366E-05
(PID.TID 0000.0001) %MON dynstat_vvel_max             =   2.4770255475225E-01
(PID.TID 0000.0001) %MON dynstat_vvel_min             =  -3.9127499192239E-01
(PID.TID 0000.0001) %MON dynstat_vvel_mean            =   2.7317175516461E-04
(PID.TID 0000.0001) %MON dynstat_vvel_sd              =   1.3686516002305E-02
(PID.TID 0000.0001) %MON dynstat_vvel_del2            =   8.6887298633011E-05
(PID.TID 0000.0001) %MON dynstat_wvel_max             =   1.2240302441761E-04
(PID.TID 0000.0001) %MON dynstat_wvel_min             =  -1.9131594354588E-04
(PID.TID 0000.0001) %MON dynstat_wvel_mean            =  -8.6629180609428E-08
(PID.TID 0000.0001) %MON dynstat_wvel_sd              =   7.6870333205709E-06
(PID.TID 0000.0001) %MON dynstat_wvel_del2            =   6.8155457866217E-08
(PID.TID 0000.0001) %MON dynstat_theta_max            =   3.0924112333487E+01
(PID.TID 0000.0001) %MON dynstat_theta_min            =  -3.0127642742825E+00
(PID.TID 0000.0001) %MON dynstat_theta_mean           =   3.9091964725095E+00
(PID.TID 0000.0001) %MON dynstat_theta_sd             =   4.5716169841420E+00
(PID.TID 0000.0001) %MON dynstat_theta_del2           =   2.6390706607468E-03
(PID.TID 0000.0001) %MON dynstat_salt_max             =   4.1346841394865E+01
(PID.TID 0000.0001) %MON dynstat_salt_min             =   1.8519184066348E+01
(PID.TID 0000.0001) %MON dynstat_salt_mean            =   3.4771903237312E+01
(PID.TID 0000.0001) %MON dynstat_salt_sd              =   5.3221821822866E-01
(PID.TID 0000.0001) %MON dynstat_salt_del2            =   1.1232047598694E-03
(PID.TID 0000.0001) %MON dynstat_sst_max              =   3.0924112333487E+01
(PID.TID 0000.0001) %MON dynstat_sst_min              =  -1.8990224132388E+00
(PID.TID 0000.0001) %MON dynstat_sst_mean             =   1.8108949198540E+01
(PID.TID 0000.0001) %MON dynstat_sst_sd               =   9.8134166408161E+00
(PID.TID 0000.0001) %MON dynstat_sst_del2             =   1.4981500059840E-02
(PID.TID 0000.0001) %MON dynstat_sss_max              =   4.1346841394865E+01
(PID.TID 0000.0001) %MON dynstat_sss_min              =   1.8752387976776E+01
(PID.TID 0000.0001) %MON dynstat_sss_mean             =   3.4620732343349E+01
(PID.TID 0000.0001) %MON dynstat_sss_sd               =   1.4892406414148E+00
(PID.TID 0000.0001) %MON dynstat_sss_del2             =   1.2712862143942E-02
(PID.TID 0000.0001) %MON forcing_qnet_max             =   1.5451030273438E+03
(PID.TID 0000.0001) %MON forcing_qnet_min             =  -2.4231904296875E+03
(PID.TID 0000.0001) %MON forcing_qnet_mean            =  -3.0230785968748E+01
(PID.TID 0000.0001) %MON forcing_qnet_sd              =   2.0450416999239E+02
(PID.TID 0000.0001) %MON forcing_qnet_del2            =   3.8673000808731E+00
(PID.TID 0000.0001) %MON forcing_qsw_max              =   0.0000000000000E+00
(PID.TID 0000.0001) %MON forcing_qsw_min              =  -1.0238845888264E+02
(PID.TID 0000.0001) %MON forcing_qsw_mean             =  -1.8156490294246E+01
(PID.TID 0000.0001) %MON forcing_qsw_sd               =   2.7491246638221E+01
(PID.TID 0000.0001) %MON forcing_qsw_del2             =   2.3898541811047E-01
(PID.TID 0000.0001) %MON forcing_empmr_max            =   4.8941094428301E-03
(PID.TID 0000.0001) %MON forcing_empmr_min            =  -7.0359915494919E-02
(PID.TID 0000.0001) %MON forcing_empmr_mean           =  -2.1588087935403E-04
(PID.TID 0000.0001) %MON forcing_empmr_sd             =   3.1014624411647E-03
(PID.TID 0000.0001) %MON forcing_empmr_del2           =   1.2222098520368E-04
(PID.TID 0000.0001) %MON forcing_fu_max               =   2.7603631319827E-01
(PID.TID 0000.0001) %MON forcing_fu_min               =  -3.5346256891979E-01
(PID.TID 0000.0001) %MON forcing_fu_mean              =  -3.9679986220134E-03
(PID.TID 0000.0001) %MON forcing_fu_sd                =   5.9512213863846E-02
(PID.TID 0000.0001) %MON forcing_fu_del2              =   5.8779598146576E-04
(PID.TID 0000.0001) %MON forcing_fv_max               =   2.9047663824913E-01
(PID.TID 0000.0001) %MON forcing_fv_min               =  -2.4554176376070E-01
(PID.TID 0000.0001) %MON forcing_fv_mean              =  -1.4708232004719E-02
(PID.TID 0000.0001) %MON forcing_fv_sd                =   6.1019103487148E-02
(PID.TID 0000.0001) %MON forcing_fv_del2              =   5.1937940771971E-04
(PID.TID 0000.0001) %MON trAdv_CFL_u_max              =   1.9706864719177E-03
(PID.TID 0000.0001) %MON trAdv_CFL_v_max              =   1.2734799423081E-03
(PID.TID 0000.0001) %MON trAdv_CFL_w_max              =   1.2941310688009E-03
(PID.TID 0000.0001) %MON advcfl_uvel_max              =   1.9686303209216E-03
(PID.TID 0000.0001) %MON advcfl_vvel_max              =   1.2768730241173E-03
(PID.TID 0000.0001) %MON advcfl_wvel_max              =   2.4473014085189E-03
(PID.TID 0000.0001) %MON advcfl_W_hf_max              =   1.3189878446206E-03
(PID.TID 0000.0001) %MON pe_b_mean                    =   4.9965073348199E-04
(PID.TID 0000.0001) %MON ke_max                       =   1.9253894217012E-01
(PID.TID 0000.0001) %MON ke_mean                      =   1.6462724650255E-04
(PID.TID 0000.0001) %MON ke_vol                       =   1.3398144955748E+18
(PID.TID 0000.0001) %MON vort_r_min                   =  -2.1964743902516E-06
(PID.TID 0000.0001) %MON vort_r_max                   =   2.6635945547542E-06
(PID.TID 0000.0001) %MON vort_a_mean                  =  -2.0549865324846E-05
(PID.TID 0000.0001) %MON vort_a_sd                    =   7.5259687486553E-05
(PID.TID 0000.0001) %MON vort_p_mean                  =  -2.4783241690869E-05
(PID.TID 0000.0001) %MON vort_p_sd                    =   1.2811919335185E-04
(PID.TID 0000.0001) %MON surfExpan_theta_mean         =  -5.4439399061350E-06
(PID.TID 0000.0001) %MON surfExpan_salt_mean          =   1.0973865619110E-06
(PID.TID 0000.0001) // =======================================================
(PID.TID 0000.0001) // End MONITOR dynamic field statistics
(PID.TID 0000.0001) // =======================================================
 cg2d: Sum(rhs),rhsMax =  -7.95568327863891E+01  3.62259149213542E+01
(PID.TID 0000.0001)      cg2d_init_res =   1.90338109347852E-01
(PID.TID 0000.0001)      cg2d_iters(min,last) =      -1      10
(PID.TID 0000.0001)      cg2d_last_res =   6.13285168354734E-08
(PID.TID 0000.0001) // =======================================================
(PID.TID 0000.0001) // Begin MONITOR dynamic field statistics
(PID.TID 0000.0001) // =======================================================
(PID.TID 0000.0001) %MON time_tsnumber                =                 72081
(PID.TID 0000.0001) %MON time_secondsf                =   6.4872900000000E+07
(PID.TID 0000.0001) %MON dynstat_eta_max              =   1.2626969337251E+00
(PID.TID 0000.0001) %MON dynstat_eta_min              =  -1.5608720012326E+00
(PID.TID 0000.0001) %MON dynstat_eta_mean             =   3.3488679358711E-02
(PID.TID 0000.0001) %MON dynstat_eta_sd               =   6.1144047954851E-01
(PID.TID 0000.0001) %MON dynstat_eta_del2             =   1.5101747941318E-03
(PID.TID 0000.0001) %MON dynstat_uvel_max             =   4.0675141691484E-01
(PID.TID 0000.0001) %MON dynstat_uvel_min             =  -6.9232658737918E-01
(PID.TID 0000.0001) %MON dynstat_uvel_mean            =  -3.9411526251128E-04
(PID.TID 0000.0001) %MON dynstat_uvel_sd              =   1.2982935492259E-02
(PID.TID 0000.0001) %MON dynstat_uvel_del2            =   8.4581267661935E-05
(PID.TID 0000.0001) %MON dynstat_vvel_max             =   2.7243942673499E-01
(PID.TID 0000.0001) %MON dynstat_vvel_min             =  -4.1402814449360E-01
(PID.TID 0000.0001) %MON dynstat_vvel_mean            =   2.5274165496009E-04
(PID.TID 0000.0001) %MON dynstat_vvel_sd              =   1.3698200637917E-02
(PID.TID 0000.0001) %MON dynstat_vvel_del2            =   8.7582840540274E-05
(PID.TID 0000.0001) %MON dynstat_wvel_max             =   1.2019392682844E-04
(PID.TID 0000.0001) %MON dynstat_wvel_min             =  -1.9136460519973E-04
(PID.TID 0000.0001) %MON dynstat_wvel_mean            =  -7.8979096783751E-08
(PID.TID 0000.0001) %MON dynstat_wvel_sd              =   7.6724581539889E-06
(PID.TID 0000.0001) %MON dynstat_wvel_del2            =   6.7933756566509E-08
(PID.TID 0000.0001) %MON dynstat_theta_max            =   3.0923932123563E+01
(PID.TID 0000.0001) %MON dynstat_theta_min            =  -3.0132876722281E+00
(PID.TID 0000.0001) %MON dynstat_theta_mean           =   3.9091995653646E+00
(PID.TID 0000.0001) %MON dynstat_theta_sd             =   4.5716287550270E+00
(PID.TID 0000.0001) %MON dynstat_theta_del2           =   2.6389683713981E-03
(PID.TID 0000.0001) %MON dynstat_salt_max             =   4.1346804653646E+01
(PID.TID 0000.0001) %MON dynstat_salt_min             =   1.8519194090837E+01
(PID.TID 0000.0001) %MON dynstat_salt_mean            =   3.4771901595445E+01
(PID.TID 0000.0001) %MON dynstat_salt_sd              =   5.3222916974672E-01
(PID.TID 0000.0001) %MON dynstat_salt_del2            =   1.1255653417439E-03
(PID.TID 0000.0001) %MON dynstat_sst_max              =   3.0923932123563E+01
(PID.TID 0000.0001) %MON dynstat_sst_min              =  -1.8989245955328E+00
(PID.TID 0000.0001) %MON dynstat_sst_mean             =   1.8109079767255E+01
(PID.TID 0000.0001) %MON dynstat_sst_sd               =   9.8135621376996E+00
(PID.TID 0000.0001) %MON dynstat_sst_del2             =   1.4979809371867E-02
(PID.TID 0000.0001) %MON dynstat_sss_max              =   4.1346804653646E+01
(PID.TID 0000.0001) %MON dynstat_sss_min              =   1.8752403315080E+01
(PID.TID 0000.0001) %MON dynstat_sss_mean             =   3.4620606261352E+01
(PID.TID 0000.0001) %MON dynstat_sss_sd               =   1.4895178757949E+00
(PID.TID 0000.0001) %MON dynstat_sss_del2             =   1.2745830793097E-02
(PID.TID 0000.0001) %MON forcing_qnet_max             =   1.5279453125000E+03
(PID.TID 0000.0001) %MON forcing_qnet_min             =  -3.0464486212167E+03
(PID.TID 0000.0001) %MON forcing_qnet_mean            =  -3.3514115786145E+01
(PID.TID 0000.0001) %MON forcing_qnet_sd              =   2.0501100954610E+02
(PID.TID 0000.0001) %MON forcing_qnet_del2            =   4.1603947622276E+00
(PID.TID 0000.0001) %MON forcing_qsw_max              =   0.0000000000000E+00
(PID.TID 0000.0001) %MON forcing_qsw_min              =  -1.0396643244761E+02
(PID.TID 0000.0001) %MON forcing_qsw_mean             =  -1.8549890758757E+01
(PID.TID 0000.0001) %MON forcing_qsw_sd               =   2.7781543342274E+01
(PID.TID 0000.0001) %MON forcing_qsw_del2             =   2.3543059896766E-01
(PID.TID 0000.0001) %MON forcing_empmr_max            =   4.8437267541885E-03
(PID.TID 0000.0001) %MON forcing_empmr_min            =  -6.9635786116123E-02
(PID.TID 0000.0001) %MON forcing_empmr_mean           =  -2.1352580781099E-04
(PID.TID 0000.0001) %MON forcing_empmr_sd             =   3.0698226017544E-03
(PID.TID 0000.0001) %MON forcing_empmr_del2           =   1.2095185903972E-04
(PID.TID 0000.0001) %MON forcing_fu_max               =   2.6994294117190E-01
(PID.TID 0000.0001) %MON forcing_fu_min               =  -3.5339805163205E-01
(PID.TID 0000.0001) %MON forcing_fu_mean              =  -4.0778986334771E-03
(PID.TID 0000.0001) %MON forcing_fu_sd                =   5.9131344453231E-02
(PID.TID 0000.0001) %MON forcing_fu_del2              =   5.8459964920722E-04
(PID.TID 0000.0001) %MON forcing_fv_max               =   2.8992312682853E-01
(PID.TID 0000.0001) %MON forcing_fv_min               =  -2.4666935648327E-01
(PID.TID 0000.0001) %MON forcing_fv_mean              =  -1.4708272010953E-02
(PID.TID 0000.0001) %MON forcing_fv_sd                =   6.0957162726271E-02
(PID.TID 0000.0001) %MON forcing_fv_del2              =   5.1786739031761E-04
(PID.TID 0000.0001) %MON trAdv_CFL_u_max              =   2.0003989430726E-03
(PID.TID 0000.0001) %MON trAdv_CFL_v_max              =   1.3526141433028E-03
(PID.TID 0000.0001) %MON trAdv_CFL_w_max              =   1.2317852518479E-03
(PID.TID 0000.0001) %MON advcfl_uvel_max              =   1.9972514599231E-03
(PID.TID 0000.0001) %MON advcfl_vvel_max              =   1.3511248606302E-03
(PID.TID 0000.0001) %MON advcfl_wvel_max              =   2.4221142996912E-03
(PID.TID 0000.0001) %MON advcfl_W_hf_max              =   1.3192479818264E-03
(PID.TID 0000.0001) %MON pe_b_mean                    =   4.9953940430889E-04
(PID.TID 0000.0001) %MON ke_max                       =   1.8601987558288E-01
(PID.TID 0000.0001) %MON ke_mean                      =   1.6459198935198E-04
(PID.TID 0000.0001) %MON ke_vol                       =   1.3398145638845E+18
(PID.TID 0000.0001) %MON vort_r_min                   =  -2.2284080642221E-06
(PID.TID 0000.0001) %MON vort_r_max                   =   2.7062137211126E-06
(PID.TID 0000.0001) %MON vort_a_mean                  =  -2.0549865324846E-05
(PID.TID 0000.0001) %MON vort_a_sd                    =   7.5259682924578E-05
(PID.TID 0000.0001) %MON vort_p_mean                  =  -2.4783240363756E-05
(PID.TID 0000.0001) %MON vort_p_sd                    =   1.2811919336117E-04
(PID.TID 0000.0001) %MON surfExpan_theta_mean         =  -5.3135902532261E-06
(PID.TID 0000.0001) %MON surfExpan_salt_mean          =   1.0791790035110E-06
(PID.TID 0000.0001) // =======================================================
(PID.TID 0000.0001) // End MONITOR dynamic field statistics
(PID.TID 0000.0001) // =======================================================
 cg2d: Sum(rhs),rhsMax =  -7.99797325353918E+01  3.62323951559430E+01
(PID.TID 0000.0001)      cg2d_init_res =   1.92068035828190E-01
(PID.TID 0000.0001)      cg2d_iters(min,last) =      -1      10
(PID.TID 0000.0001)      cg2d_last_res =   5.19000535161993E-08
(PID.TID 0000.0001) // =======================================================
(PID.TID 0000.0001) // Begin MONITOR dynamic field statistics
(PID.TID 0000.0001) // =======================================================
(PID.TID 0000.0001) %MON time_tsnumber                =                 72082
(PID.TID 0000.0001) %MON time_secondsf                =   6.4873800000000E+07
(PID.TID 0000.0001) %MON dynstat_eta_max              =   1.2292057643261E+00
(PID.TID 0000.0001) %MON dynstat_eta_min              =  -1.5597408686342E+00
(PID.TID 0000.0001) %MON dynstat_eta_mean             =   3.3672717349362E-02
(PID.TID 0000.0001) %MON dynstat_eta_sd               =   6.1135828943631E-01
(PID.TID 0000.0001) %MON dynstat_eta_del2             =   1.4610188654906E-03
(PID.TID 0000.0001) %MON dynstat_uvel_max             =   4.1606474519668E-01
(PID.TID 0000.0001) %MON dynstat_uvel_min             =  -7.0039515145751E-01
(PID.TID 0000.0001) %MON dynstat_uvel_mean            =  -4.0822174097739E-04
(PID.TID 0000.0001) %MON dynstat_uvel_sd              =   1.2968207035641E-02
(PID.TID 0000.0001) %MON dynstat_uvel_del2            =   8.4612098644815E-05
(PID.TID 0000.0001) %MON dynstat_vvel_max             =   2.9324659277032E-01
(PID.TID 0000.0001) %MON dynstat_vvel_min             =  -4.2985993301196E-01
(PID.TID 0000.0001) %MON dynstat_vvel_mean            =   2.3327705690540E-04
(PID.TID 0000.0001) %MON dynstat_vvel_sd              =   1.3708398263490E-02
(PID.TID 0000.0001) %MON dynstat_vvel_del2            =   8.8144814289449E-05
(PID.TID 0000.0001) %MON dynstat_wvel_max             =   1.1696255164771E-04
(PID.TID 0000.0001) %MON dynstat_wvel_min             =  -1.9142568023103E-04
(PID.TID 0000.0001) %MON dynstat_wvel_mean            =  -7.2336445588959E-08
(PID.TID 0000.0001) %MON dynstat_wvel_sd              =   7.6575583642370E-06
(PID.TID 0000.0001) %MON dynstat_wvel_del2            =   6.7683000371004E-08
(PID.TID 0000.0001) %MON dynstat_theta_max            =   3.0923744281294E+01
(PID.TID 0000.0001) %MON dynstat_theta_min            =  -3.0138248705865E+00
(PID.TID 0000.0001) %MON dynstat_theta_mean           =   3.9092026905768E+00
(PID.TID 0000.0001) %MON dynstat_theta_sd             =   4.5716407526786E+00
(PID.TID 0000.0001) %MON dynstat_theta_del2           =   2.6388665620855E-03
(PID.TID 0000.0001) %MON dynstat_salt_max             =   4.1346769368662E+01
(PID.TID 0000.0001) %MON dynstat_salt_min             =   1.8519204120290E+01
(PID.TID 0000.0001) %MON dynstat_salt_mean            =   3.4771899976616E+01
(PID.TID 0000.0001) %MON dynstat_salt_sd              =   5.3223995750967E-01
(PID.TID 0000.0001) %MON dynstat_salt_del2            =   1.1278757109852E-03
(PID.TID 0000.0001) %MON dynstat_sst_max              =   3.0923744281294E+01
(PID.TID 0000.0001) %MON dynstat_sst_min              =  -1.8988150249607E+00
(PID.TID 0000.0001) %MON dynstat_sst_mean             =   1.8109213437020E+01
(PID.TID 0000.0001) %MON dynstat_sst_sd               =   9.8137117875394E+00
(PID.TID 0000.0001) %MON dynstat_sst_del2             =   1.4978131354884E-02
(PID.TID 0000.0001) %MON dynstat_sss_max              =   4.1346769368662E+01
(PID.TID 0000.0001) %MON dynstat_sss_min              =   1.8752418445099E+01
(PID.TID 0000.0001) %MON dynstat_sss_mean             =   3.4620481965888E+01
(PID.TID 0000.0001) %MON dynstat_sss_sd               =   1.4897902496351E+00
(PID.TID 0000.0001) %MON dynstat_sss_del2             =   1.2778084527805E-02
(PID.TID 0000.0001) %MON forcing_qnet_max             =   1.5109918212891E+03
(PID.TID 0000.0001) %MON forcing_qnet_min             =  -1.7691706670524E+03
(PID.TID 0000.0001) %MON forcing_qnet_mean            =  -3.4232892338342E+01
(PID.TID 0000.0001) %MON forcing_qnet_sd              =   1.9771048297634E+02
(PID.TID 0000.0001) %MON forcing_qnet_del2            =   3.5688118385652E+00
(PID.TID 0000.0001) %MON forcing_qsw_max              =   0.0000000000000E+00
(PID.TID 0000.0001) %MON forcing_qsw_min              =  -1.0407462149715E+02
(PID.TID 0000.0001) %MON forcing_qsw_mean             =  -1.8726693452776E+01
(PID.TID 0000.0001) %MON forcing_qsw_sd               =   2.7883034597159E+01
(PID.TID 0000.0001) %MON forcing_qsw_del2             =   2.3475378371972E-01
(PID.TID 0000.0001) %MON forcing_empmr_max            =   4.7938362695277E-03
(PID.TID 0000.0001) %MON forcing_empmr_min            =  -6.8918369710445E-02
(PID.TID 0000.0001) %MON forcing_empmr_mean           =  -2.1164368924901E-04
(PID.TID 0000.0001) %MON forcing_empmr_sd             =   3.0384439163701E-03
(PID.TID 0000.0001) %MON forcing_empmr_del2           =   1.1969610082954E-04
(PID.TID 0000.0001) %MON forcing_fu_max               =   2.6579102130084E-01
(PID.TID 0000.0001) %MON forcing_fu_min               =  -3.5430708053987E-01
(PID.TID 0000.0001) %MON forcing_fu_mean              =  -4.1611090605376E-03
(PID.TID 0000.0001) %MON forcing_fu_sd                =   5.8803527497319E-02
(PID.TID 0000.0001) %MON forcing_fu_del2              =   5.8204776334586E-04
(PID.TID 0000.0001) %MON forcing_fv_max               =   2.9000333106258E-01
(PID.TID 0000.0001) %MON forcing_fv_min               =  -2.4863301855024E-01
(PID.TID 0000.0001) %MON forcing_fv_mean              =  -1.4744663594810E-02
(PID.TID 0000.0001) %MON forcing_fv_sd                =   6.0863779830583E-02
(PID.TID 0000.0001) %MON forcing_fv_del2              =   5.1649777020811E-04
(PID.TID 0000.0001) %MON trAdv_CFL_u_max              =   2.0248641070881E-03
(PID.TID 0000.0001) %MON trAdv_CFL_v_max              =   1.4076792958293E-03
(PID.TID 0000.0001) %MON trAdv_CFL_w_max              =   1.1746821858173E-03
(PID.TID 0000.0001) %MON advcfl_uvel_max              =   2.0205279766404E-03
(PID.TID 0000.0001) %MON advcfl_vvel_max              =   1.4027897615310E-03
(PID.TID 0000.0001) %MON advcfl_wvel_max              =   2.3971606855807E-03
(PID.TID 0000.0001) %MON advcfl_W_hf_max              =   1.3160393883619E-03
(PID.TID 0000.0001) %MON pe_b_mean                    =   4.9942195912733E-04
(PID.TID 0000.0001) %MON ke_max                       =   1.7935710813552E-01
(PID.TID 0000.0001) %MON ke_mean                      =   1.6454689347608E-04
(PID.TID 0000.0001) %MON ke_vol                       =   1.3398146314490E+18
(PID.TID 0000.0001) %MON vort_r_min                   =  -2.2543785434534E-06
(PID.TID 0000.0001) %MON vort_r_max                   =   2.7394431989287E-06
(PID.TID 0000.0001) %MON vort_a_mean                  =  -2.0549865324846E-05
(PID.TID 0000.0001) %MON vort_a_sd                    =   7.5259678585513E-05
(PID.TID 0000.0001) %MON vort_p_mean                  =  -2.4783239066465E-05
(PID.TID 0000.0001) %MON vort_p_sd                    =   1.2811919452820E-04
(PID.TID 0000.0001) %MON surfExpan_theta_mean         =  -5.1912169987949E-06
(PID.TID 0000.0001) %MON surfExpan_salt_mean          =   1.0604814573744E-06
(PID.TID 0000.0001) // =======================================================
(PID.TID 0000.0001) // End MONITOR dynamic field statistics
(PID.TID 0000.0001) // =======================================================
 cg2d: Sum(rhs),rhsMax =  -8.04097343883806E+01  3.62347118080974E+01
(PID.TID 0000.0001)      cg2d_init_res =   1.93433784818811E-01
(PID.TID 0000.0001)      cg2d_iters(min,last) =      -1      10
(PID.TID 0000.0001)      cg2d_last_res =   4.46190240318547E-08
(PID.TID 0000.0001) // =======================================================
(PID.TID 0000.0001) // Begin MONITOR dynamic field statistics
(PID.TID 0000.0001) // =======================================================
(PID.TID 0000.0001) %MON time_tsnumber                =                 72083
(PID.TID 0000.0001) %MON time_secondsf                =   6.4874700000000E+07
(PID.TID 0000.0001) %MON dynstat_eta_max              =   1.1889684175477E+00
(PID.TID 0000.0001) %MON dynstat_eta_min              =  -1.5585970671005E+00
(PID.TID 0000.0001) %MON dynstat_eta_mean             =   3.3855919414685E-02
(PID.TID 0000.0001) %MON dynstat_eta_sd               =   6.1127434675496E-01
(PID.TID 0000.0001) %MON dynstat_eta_del2             =   1.4137516515166E-03
(PID.TID 0000.0001) %MON dynstat_uvel_max             =   4.2178249991680E-01
(PID.TID 0000.0001) %MON dynstat_uvel_min             =  -7.0651026218276E-01
(PID.TID 0000.0001) %MON dynstat_uvel_mean            =  -4.2203189287240E-04
(PID.TID 0000.0001) %MON dynstat_uvel_sd              =   1.2954356764993E-02
(PID.TID 0000.0001) %MON dynstat_uvel_del2            =   8.4699509369553E-05
(PID.TID 0000.0001) %MON dynstat_vvel_max             =   3.0993070587423E-01
(PID.TID 0000.0001) %MON dynstat_vvel_min             =  -4.3876779530011E-01
(PID.TID 0000.0001) %MON dynstat_vvel_mean            =   2.1502304552496E-04
(PID.TID 0000.0001) %MON dynstat_vvel_sd              =   1.3716654081377E-02
(PID.TID 0000.0001) %MON dynstat_vvel_del2            =   8.8529497090167E-05
(PID.TID 0000.0001) %MON dynstat_wvel_max             =   1.1276741633979E-04
(PID.TID 0000.0001) %MON dynstat_wvel_min             =  -1.9149953092611E-04
(PID.TID 0000.0001) %MON dynstat_wvel_mean            =  -6.6755480811462E-08
(PID.TID 0000.0001) %MON dynstat_wvel_sd              =   7.6428476742875E-06
(PID.TID 0000.0001) %MON dynstat_wvel_del2            =   6.7407581385159E-08
(PID.TID 0000.0001) %MON dynstat_theta_max            =   3.0923549611249E+01
(PID.TID 0000.0001) %MON dynstat_theta_min            =  -3.0143745937428E+00
(PID.TID 0000.0001) %MON dynstat_theta_mean           =   3.9092058509403E+00
(PID.TID 0000.0001) %MON dynstat_theta_sd             =   4.5716529700113E+00
(PID.TID 0000.0001) %MON dynstat_theta_del2           =   2.6387625749232E-03
(PID.TID 0000.0001) %MON dynstat_salt_max             =   4.1346736157743E+01
(PID.TID 0000.0001) %MON dynstat_salt_min             =   1.8519214156510E+01
(PID.TID 0000.0001) %MON dynstat_salt_mean            =   3.4771898380199E+01
(PID.TID 0000.0001) %MON dynstat_salt_sd              =   5.3225061069878E-01
(PID.TID 0000.0001) %MON dynstat_salt_del2            =   1.1301352445625E-03
(PID.TID 0000.0001) %MON dynstat_sst_max              =   3.0923549611249E+01
(PID.TID 0000.0001) %MON dynstat_sst_min              =  -1.8986964225155E+00
(PID.TID 0000.0001) %MON dynstat_sst_mean             =   1.8109350724204E+01
(PID.TID 0000.0001) %MON dynstat_sst_sd               =   9.8138648356793E+00
(PID.TID 0000.0001) %MON dynstat_sst_del2             =   1.4976396536259E-02
(PID.TID 0000.0001) %MON dynstat_sss_max              =   4.1346736157743E+01
(PID.TID 0000.0001) %MON dynstat_sss_min              =   1.8752433373705E+01
(PID.TID 0000.0001) %MON dynstat_sss_mean             =   3.4620359544459E+01
(PID.TID 0000.0001) %MON dynstat_sss_sd               =   1.4900585485963E+00
(PID.TID 0000.0001) %MON dynstat_sss_del2             =   1.2809615926860E-02
(PID.TID 0000.0001) %MON forcing_qnet_max             =   1.4933624267578E+03
(PID.TID 0000.0001) %MON forcing_qnet_min             =  -2.9878502883246E+03
(PID.TID 0000.0001) %MON forcing_qnet_mean            =  -3.4958670616532E+01
(PID.TID 0000.0001) %MON forcing_qnet_sd              =   1.9988924858927E+02
(PID.TID 0000.0001) %MON forcing_qnet_del2            =   4.0025768682983E+00
(PID.TID 0000.0001) %MON forcing_qsw_max              =   0.0000000000000E+00
(PID.TID 0000.0001) %MON forcing_qsw_min              =  -1.0394622688860E+02
(PID.TID 0000.0001) %MON forcing_qsw_mean             =  -1.8856134468618E+01
(PID.TID 0000.0001) %MON forcing_qsw_sd               =   2.7964602737677E+01
(PID.TID 0000.0001) %MON forcing_qsw_del2             =   2.3383502587477E-01
(PID.TID 0000.0001) %MON forcing_empmr_max            =   4.7444375231862E-03
(PID.TID 0000.0001) %MON forcing_empmr_min            =  -6.8208500742912E-02
(PID.TID 0000.0001) %MON forcing_empmr_mean           =  -2.1068237512139E-04
(PID.TID 0000.0001) %MON forcing_empmr_sd             =   3.0074774210590E-03
(PID.TID 0000.0001) %MON forcing_empmr_del2           =   1.1844579376940E-04
(PID.TID 0000.0001) %MON forcing_fu_max               =   2.6876655004792E-01
(PID.TID 0000.0001) %MON forcing_fu_min               =  -3.5078077888789E-01
(PID.TID 0000.0001) %MON forcing_fu_mean              =  -4.2435356213417E-03
(PID.TID 0000.0001) %MON forcing_fu_sd                =   5.8590674982621E-02
(PID.TID 0000.0001) %MON forcing_fu_del2              =   5.8056236579187E-04
(PID.TID 0000.0001) %MON forcing_fv_max               =   2.8640691565087E-01
(PID.TID 0000.0001) %MON forcing_fv_min               =  -2.4985137593255E-01
(PID.TID 0000.0001) %MON forcing_fv_mean              =  -1.4779060743834E-02
(PID.TID 0000.0001) %MON forcing_fv_sd                =   6.0809671478388E-02
(PID.TID 0000.0001) %MON forcing_fv_del2              =   5.1553183548169E-04
(PID.TID 0000.0001) %MON trAdv_CFL_u_max              =   2.0437810975708E-03
(PID.TID 0000.0001) %MON trAdv_CFL_v_max              =   1.4387239605693E-03
(PID.TID 0000.0001) %MON trAdv_CFL_w_max              =   1.1787188991704E-03
(PID.TID 0000.0001) %MON advcfl_uvel_max              =   2.0381690929087E-03
(PID.TID 0000.0001) %MON advcfl_vvel_max              =   1.4318593655003E-03
(PID.TID 0000.0001) %MON advcfl_wvel_max              =   2.3724695910578E-03
(PID.TID 0000.0001) %MON advcfl_W_hf_max              =   1.3096547489391E-03
(PID.TID 0000.0001) %MON pe_b_mean                    =   4.9930169269585E-04
(PID.TID 0000.0001) %MON ke_max                       =   1.7262928196046E-01
(PID.TID 0000.0001) %MON ke_mean                      =   1.6448848970374E-04
(PID.TID 0000.0001) %MON ke_vol                       =   1.3398146984180E+18
(PID.TID 0000.0001) %MON vort_r_min                   =  -2.2740613958849E-06
(PID.TID 0000.0001) %MON vort_r_max                   =   2.7630387442120E-06
(PID.TID 0000.0001) %MON vort_a_mean                  =  -2.0549865324846E-05
(PID.TID 0000.0001) %MON vort_a_sd                    =   7.5259674521921E-05
(PID.TID 0000.0001) %MON vort_p_mean                  =  -2.4783237794712E-05
(PID.TID 0000.0001) %MON vort_p_sd                    =   1.2811919685509E-04
(PID.TID 0000.0001) %MON surfExpan_theta_mean         =  -5.0764154290280E-06
(PID.TID 0000.0001) %MON surfExpan_salt_mean          =   1.0410966586428E-06
(PID.TID 0000.0001) // =======================================================
(PID.TID 0000.0001) // End MONITOR dynamic field statistics
(PID.TID 0000.0001) // =======================================================
 Computing Diagnostic #     81  oceTAUX      Counter:       1   Parms: UU      U1      
           Vector  Mate for  oceTAUX      Diagnostic #     82  oceTAUY  exists 
 Computing Diagnostic #     82  oceTAUY      Counter:       1   Parms: VV      U1      
           Vector  Mate for  oceTAUY      Diagnostic #     81  oceTAUX  exists 
 Computing Diagnostic #     85  oceFWflx     Counter:       1   Parms: SM      U1      
 Computing Diagnostic #     86  oceSflux     Counter:       1   Parms: SM      U1      
 Computing Diagnostic #     87  oceQnet      Counter:       1   Parms: SM      U1      
 Computing Diagnostic #     88  oceQsw       Counter:       1   Parms: SM      U1      
 Computing Diagnostic #     27  SALT         Counter:       1   Parms: SMR     MR      
 Computing Diagnostic #     26  THETA        Counter:       1   Parms: SMR     MR      
 Computing Diagnostic #     45  UVELMASS     Counter:       1   Parms: UUr     MR      
           Vector  Mate for  UVELMASS     Diagnostic #     46  VVELMASS exists 
 Computing Diagnostic #     46  VVELMASS     Counter:       1   Parms: VVr     MR      
           Vector  Mate for  VVELMASS     Diagnostic #     45  UVELMASS exists 
 Computing Diagnostic #     83  atmPload     Counter:       1   Parms: SM      U1      
 cg2d: Sum(rhs),rhsMax =  -8.08403796663401E+01  3.62339840725101E+01
(PID.TID 0000.0001)      cg2d_init_res =   1.94233209657775E-01
(PID.TID 0000.0001)      cg2d_iters(min,last) =      -1      10
(PID.TID 0000.0001)      cg2d_last_res =   4.05734334916975E-08
(PID.TID 0000.0001) // =======================================================
(PID.TID 0000.0001) // Begin MONITOR dynamic field statistics
(PID.TID 0000.0001) // =======================================================
(PID.TID 0000.0001) %MON time_tsnumber                =                 72084
(PID.TID 0000.0001) %MON time_secondsf                =   6.4875600000000E+07
(PID.TID 0000.0001) %MON dynstat_eta_max              =   1.1422449824589E+00
(PID.TID 0000.0001) %MON dynstat_eta_min              =  -1.5575072906598E+00
(PID.TID 0000.0001) %MON dynstat_eta_mean             =   3.4036555797912E-02
(PID.TID 0000.0001) %MON dynstat_eta_sd               =   6.1118847134219E-01
(PID.TID 0000.0001) %MON dynstat_eta_del2             =   1.3707086010365E-03
(PID.TID 0000.0001) %MON dynstat_uvel_max             =   4.2394782225660E-01
(PID.TID 0000.0001) %MON dynstat_uvel_min             =  -7.1056538834107E-01
(PID.TID 0000.0001) %MON dynstat_uvel_mean            =  -4.3536278866545E-04
(PID.TID 0000.0001) %MON dynstat_uvel_sd              =   1.2941395288089E-02
(PID.TID 0000.0001) %MON dynstat_uvel_del2            =   8.4825783453043E-05
(PID.TID 0000.0001) %MON dynstat_vvel_max             =   3.2237335421082E-01
(PID.TID 0000.0001) %MON dynstat_vvel_min             =  -4.4085161347305E-01
(PID.TID 0000.0001) %MON dynstat_vvel_mean            =   1.9820086896703E-04
(PID.TID 0000.0001) %MON dynstat_vvel_sd              =   1.3722576779935E-02
(PID.TID 0000.0001) %MON dynstat_vvel_del2            =   8.8713562320864E-05
(PID.TID 0000.0001) %MON dynstat_wvel_max             =   1.0770010891277E-04
(PID.TID 0000.0001) %MON dynstat_wvel_min             =  -1.9158306910637E-04
(PID.TID 0000.0001) %MON dynstat_wvel_mean            =  -6.1363763076729E-08
(PID.TID 0000.0001) %MON dynstat_wvel_sd              =   7.6284575920013E-06
(PID.TID 0000.0001) %MON dynstat_wvel_del2            =   6.7108852717487E-08
(PID.TID 0000.0001) %MON dynstat_theta_max            =   3.0923345688074E+01
(PID.TID 0000.0001) %MON dynstat_theta_min            =  -3.0149359887217E+00
(PID.TID 0000.0001) %MON dynstat_theta_mean           =   3.9092089641926E+00
(PID.TID 0000.0001) %MON dynstat_theta_sd             =   4.5716650650803E+00
(PID.TID 0000.0001) %MON dynstat_theta_del2           =   2.6386565472855E-03
(PID.TID 0000.0001) %MON dynstat_salt_max             =   4.1346705919448E+01
(PID.TID 0000.0001) %MON dynstat_salt_min             =   1.8519224200925E+01
(PID.TID 0000.0001) %MON dynstat_salt_mean            =   3.4771896798352E+01
(PID.TID 0000.0001) %MON dynstat_salt_sd              =   5.3226108451797E-01
(PID.TID 0000.0001) %MON dynstat_salt_del2            =   1.1323447664150E-03
(PID.TID 0000.0001) %MON dynstat_sst_max              =   3.0923345688074E+01
(PID.TID 0000.0001) %MON dynstat_sst_min              =  -1.8985704991281E+00
(PID.TID 0000.0001) %MON dynstat_sst_mean             =   1.8109486212926E+01
(PID.TID 0000.0001) %MON dynstat_sst_sd               =   9.8140181014186E+00
(PID.TID 0000.0001) %MON dynstat_sst_del2             =   1.4974589227844E-02
(PID.TID 0000.0001) %MON dynstat_sss_max              =   4.1346705919448E+01
(PID.TID 0000.0001) %MON dynstat_sss_min              =   1.8752448105698E+01
(PID.TID 0000.0001) %MON dynstat_sss_mean             =   3.4620238405283E+01
(PID.TID 0000.0001) %MON dynstat_sss_sd               =   1.4903215370247E+00
(PID.TID 0000.0001) %MON dynstat_sss_del2             =   1.2840437584275E-02
(PID.TID 0000.0001) %MON forcing_qnet_max             =   1.4768166503906E+03
(PID.TID 0000.0001) %MON forcing_qnet_min             =  -8.6838838425532E+02
(PID.TID 0000.0001) %MON forcing_qnet_mean            =  -3.4459865843420E+01
(PID.TID 0000.0001) %MON forcing_qnet_sd              =   1.9317093677835E+02
(PID.TID 0000.0001) %MON forcing_qnet_del2            =   3.2223425714446E+00
(PID.TID 0000.0001) %MON forcing_qsw_max              =   0.0000000000000E+00
(PID.TID 0000.0001) %MON forcing_qsw_min              =  -1.0410699809714E+02
(PID.TID 0000.0001) %MON forcing_qsw_mean             =  -1.8940566751592E+01
(PID.TID 0000.0001) %MON forcing_qsw_sd               =   2.8023012097219E+01
(PID.TID 0000.0001) %MON forcing_qsw_del2             =   2.3268126149358E-01
(PID.TID 0000.0001) %MON forcing_empmr_max            =   4.6955309808254E-03
(PID.TID 0000.0001) %MON forcing_empmr_min            =  -6.7506186664104E-02
(PID.TID 0000.0001) %MON forcing_empmr_mean           =  -2.0773184071162E-04
(PID.TID 0000.0001) %MON forcing_empmr_sd             =   2.9767667181795E-03
(PID.TID 0000.0001) %MON forcing_empmr_del2           =   1.1720674264529E-04
(PID.TID 0000.0001) %MON forcing_fu_max               =   2.6968355460262E-01
(PID.TID 0000.0001) %MON forcing_fu_min               =  -3.5039326661942E-01
(PID.TID 0000.0001) %MON forcing_fu_mean              =  -4.3471543682536E-03
(PID.TID 0000.0001) %MON forcing_fu_sd                =   5.8341194868124E-02
(PID.TID 0000.0001) %MON forcing_fu_del2              =   5.7805596612056E-04
(PID.TID 0000.0001) %MON forcing_fv_max               =   2.8153846360707E-01
(PID.TID 0000.0001) %MON forcing_fv_min               =  -2.4990021488482E-01
(PID.TID 0000.0001) %MON forcing_fv_mean              =  -1.4810722526505E-02
(PID.TID 0000.0001) %MON forcing_fv_sd                =   6.0710578890918E-02
(PID.TID 0000.0001) %MON forcing_fv_del2              =   5.1364947830996E-04
(PID.TID 0000.0001) %MON trAdv_CFL_u_max              =   2.0568292188184E-03
(PID.TID 0000.0001) %MON trAdv_CFL_v_max              =   1.4461925842433E-03
(PID.TID 0000.0001) %MON trAdv_CFL_w_max              =   1.1815204397977E-03
(PID.TID 0000.0001) %MON advcfl_uvel_max              =   2.0498674832168E-03
(PID.TID 0000.0001) %MON advcfl_vvel_max              =   1.4386596243135E-03
(PID.TID 0000.0001) %MON advcfl_wvel_max              =   2.3480412752732E-03
(PID.TID 0000.0001) %MON advcfl_W_hf_max              =   1.3004200823368E-03
(PID.TID 0000.0001) %MON pe_b_mean                    =   4.9917815461141E-04
(PID.TID 0000.0001) %MON ke_max                       =   1.7355547670891E-01
(PID.TID 0000.0001) %MON ke_mean                      =   1.6441173761417E-04
(PID.TID 0000.0001) %MON ke_vol                       =   1.3398147650828E+18
(PID.TID 0000.0001) %MON vort_r_min                   =  -2.2871137269629E-06
(PID.TID 0000.0001) %MON vort_r_max                   =   2.7767907194048E-06
(PID.TID 0000.0001) %MON vort_a_mean                  =  -2.0549865324846E-05
(PID.TID 0000.0001) %MON vort_a_sd                    =   7.5259670777080E-05
(PID.TID 0000.0001) %MON vort_p_mean                  =  -2.4783236542072E-05
(PID.TID 0000.0001) %MON vort_p_sd                    =   1.2811920021758E-04
(PID.TID 0000.0001) %MON surfExpan_theta_mean         =  -4.9363045453828E-06
(PID.TID 0000.0001) %MON surfExpan_salt_mean          =   1.0202753428082E-06
(PID.TID 0000.0001) // =======================================================
(PID.TID 0000.0001) // End MONITOR dynamic field statistics
(PID.TID 0000.0001) // =======================================================
 cg2d: Sum(rhs),rhsMax =  -8.12720099253093E+01  3.62308322379470E+01
(PID.TID 0000.0001)      cg2d_init_res =   1.94368542245096E-01
(PID.TID 0000.0001)      cg2d_iters(min,last) =      -1      10
(PID.TID 0000.0001)      cg2d_last_res =   3.99111199999887E-08
(PID.TID 0000.0001) // =======================================================
(PID.TID 0000.0001) // Begin MONITOR dynamic field statistics
(PID.TID 0000.0001) // =======================================================
(PID.TID 0000.0001) %MON time_tsnumber                =                 72085
(PID.TID 0000.0001) %MON time_secondsf                =   6.4876500000000E+07
(PID.TID 0000.0001) %MON dynstat_eta_max              =   1.0893565903672E+00
(PID.TID 0000.0001) %MON dynstat_eta_min              =  -1.5564766421127E+00
(PID.TID 0000.0001) %MON dynstat_eta_mean             =   3.4215310353854E-02
(PID.TID 0000.0001) %MON dynstat_eta_sd               =   6.1110129137386E-01
(PID.TID 0000.0001) %MON dynstat_eta_del2             =   1.3338527365915E-03
(PID.TID 0000.0001) %MON dynstat_uvel_max             =   4.2269347958292E-01
(PID.TID 0000.0001) %MON dynstat_uvel_min             =  -7.1249458382298E-01
(PID.TID 0000.0001) %MON dynstat_uvel_mean            =  -4.4807383309108E-04
(PID.TID 0000.0001) %MON dynstat_uvel_sd              =   1.2929173991163E-02
(PID.TID 0000.0001) %MON dynstat_uvel_del2            =   8.4974099893663E-05
(PID.TID 0000.0001) %MON dynstat_vvel_max             =   3.3052972883241E-01
(PID.TID 0000.0001) %MON dynstat_vvel_min             =  -4.3630628456836E-01
(PID.TID 0000.0001) %MON dynstat_vvel_mean            =   1.8299555771171E-04
(PID.TID 0000.0001) %MON dynstat_vvel_sd              =   1.3725928933627E-02
(PID.TID 0000.0001) %MON dynstat_vvel_del2            =   8.8692802392075E-05
(PID.TID 0000.0001) %MON dynstat_wvel_max             =   1.0485313129161E-04
(PID.TID 0000.0001) %MON dynstat_wvel_min             =  -1.9167997651191E-04
(PID.TID 0000.0001) %MON dynstat_wvel_mean            =  -5.6886056190990E-08
(PID.TID 0000.0001) %MON dynstat_wvel_sd              =   7.6156347800500E-06
(PID.TID 0000.0001) %MON dynstat_wvel_del2            =   6.6792670601676E-08
(PID.TID 0000.0001) %MON dynstat_theta_max            =   3.0923133553897E+01
(PID.TID 0000.0001) %MON dynstat_theta_min            =  -3.0155085394889E+00
(PID.TID 0000.0001) %MON dynstat_theta_mean           =   3.9092122069689E+00
(PID.TID 0000.0001) %MON dynstat_theta_sd             =   4.5716778371517E+00
(PID.TID 0000.0001) %MON dynstat_theta_del2           =   2.6385468147633E-03
(PID.TID 0000.0001) %MON dynstat_salt_max             =   4.1346679817780E+01
(PID.TID 0000.0001) %MON dynstat_salt_min             =   1.8519234254539E+01
(PID.TID 0000.0001) %MON dynstat_salt_mean            =   3.4771895240501E+01
(PID.TID 0000.0001) %MON dynstat_salt_sd              =   5.3227138651161E-01
(PID.TID 0000.0001) %MON dynstat_salt_del2            =   1.1345042472858E-03
(PID.TID 0000.0001) %MON dynstat_sst_max              =   3.0923133553897E+01
(PID.TID 0000.0001) %MON dynstat_sst_min              =  -1.8984390395621E+00
(PID.TID 0000.0001) %MON dynstat_sst_mean             =   1.8109632535947E+01
(PID.TID 0000.0001) %MON dynstat_sst_sd               =   9.8141801465746E+00
(PID.TID 0000.0001) %MON dynstat_sst_del2             =   1.4972710072729E-02
(PID.TID 0000.0001) %MON dynstat_sss_max              =   4.1346679817780E+01
(PID.TID 0000.0001) %MON dynstat_sss_min              =   1.8752462719993E+01
(PID.TID 0000.0001) %MON dynstat_sss_mean             =   3.4620119217969E+01
(PID.TID 0000.0001) %MON dynstat_sss_sd               =   1.4905794933080E+00
(PID.TID 0000.0001) %MON dynstat_sss_del2             =   1.2870551867889E-02
(PID.TID 0000.0001) %MON forcing_qnet_max             =   1.4604675292969E+03
(PID.TID 0000.0001) %MON forcing_qnet_min             =  -8.5693471639786E+02
(PID.TID 0000.0001) %MON forcing_qnet_mean            =  -3.6836293965773E+01
(PID.TID 0000.0001) %MON forcing_qnet_sd              =   1.9212986451005E+02
(PID.TID 0000.0001) %MON forcing_qnet_del2            =   3.2309534423811E+00
(PID.TID 0000.0001) %MON forcing_qsw_max              =   0.0000000000000E+00
(PID.TID 0000.0001) %MON forcing_qsw_min              =  -1.0478597904758E+02
(PID.TID 0000.0001) %MON forcing_qsw_mean             =  -1.9279517010124E+01
(PID.TID 0000.0001) %MON forcing_qsw_sd               =   2.8515062262521E+01
(PID.TID 0000.0001) %MON forcing_qsw_del2             =   2.3185652347297E-01
(PID.TID 0000.0001) %MON forcing_empmr_max            =   4.6472148969769E-03
(PID.TID 0000.0001) %MON forcing_empmr_min            =  -6.6811420023441E-02
(PID.TID 0000.0001) %MON forcing_empmr_mean           =  -2.0556773933307E-04
(PID.TID 0000.0001) %MON forcing_empmr_sd             =   2.9463021877979E-03
(PID.TID 0000.0001) %MON forcing_empmr_del2           =   1.1597505959392E-04
(PID.TID 0000.0001) %MON forcing_fu_max               =   2.5790802977519E-01
(PID.TID 0000.0001) %MON forcing_fu_min               =  -3.4640217644819E-01
(PID.TID 0000.0001) %MON forcing_fu_mean              =  -4.4921023520356E-03
(PID.TID 0000.0001) %MON forcing_fu_sd                =   5.7823607440588E-02
(PID.TID 0000.0001) %MON forcing_fu_del2              =   5.7442600579634E-04
(PID.TID 0000.0001) %MON forcing_fv_max               =   2.6296893295922E-01
(PID.TID 0000.0001) %MON forcing_fv_min               =  -2.5073317016075E-01
(PID.TID 0000.0001) %MON forcing_fv_mean              =  -1.4885630167828E-02
(PID.TID 0000.0001) %MON forcing_fv_sd                =   6.0392400469375E-02
(PID.TID 0000.0001) %MON forcing_fv_del2              =   5.0928156267473E-04
(PID.TID 0000.0001) %MON trAdv_CFL_u_max              =   2.0638020702183E-03
(PID.TID 0000.0001) %MON trAdv_CFL_v_max              =   1.4309043259873E-03
(PID.TID 0000.0001) %MON trAdv_CFL_w_max              =   1.2002259594774E-03
(PID.TID 0000.0001) %MON advcfl_uvel_max              =   2.0554329035878E-03
(PID.TID 0000.0001) %MON advcfl_vvel_max              =   1.4238265580967E-03
(PID.TID 0000.0001) %MON advcfl_wvel_max              =   2.3238754790762E-03
(PID.TID 0000.0001) %MON advcfl_W_hf_max              =   1.2886268720253E-03
(PID.TID 0000.0001) %MON pe_b_mean                    =   4.9905242785743E-04
(PID.TID 0000.0001) %MON ke_max                       =   1.7927175693714E-01
(PID.TID 0000.0001) %MON ke_mean                      =   1.6431166586827E-04
(PID.TID 0000.0001) %MON ke_vol                       =   1.3398148308140E+18
(PID.TID 0000.0001) %MON vort_r_min                   =  -2.2933232743756E-06
(PID.TID 0000.0001) %MON vort_r_max                   =   2.7806533975896E-06
(PID.TID 0000.0001) %MON vort_a_mean                  =  -2.0549865324846E-05
(PID.TID 0000.0001) %MON vort_a_sd                    =   7.5259667383467E-05
(PID.TID 0000.0001) %MON vort_p_mean                  =  -2.4783235318147E-05
(PID.TID 0000.0001) %MON vort_p_sd                    =   1.2811920446658E-04
(PID.TID 0000.0001) %MON surfExpan_theta_mean         =  -4.8084116447125E-06
(PID.TID 0000.0001) %MON surfExpan_salt_mean          =   9.9820034164881E-07
(PID.TID 0000.0001) // =======================================================
(PID.TID 0000.0001) // End MONITOR dynamic field statistics
(PID.TID 0000.0001) // =======================================================
 cg2d: Sum(rhs),rhsMax =  -8.16993356233710E+01  3.62274161220816E+01
(PID.TID 0000.0001)      cg2d_init_res =   1.93733564906435E-01
(PID.TID 0000.0001)      cg2d_iters(min,last) =      -1      10
(PID.TID 0000.0001)      cg2d_last_res =   4.17949764054934E-08
(PID.TID 0000.0001) // =======================================================
(PID.TID 0000.0001) // Begin MONITOR dynamic field statistics
(PID.TID 0000.0001) // =======================================================
(PID.TID 0000.0001) %MON time_tsnumber                =                 72086
(PID.TID 0000.0001) %MON time_secondsf                =   6.4877400000000E+07
(PID.TID 0000.0001) %MON dynstat_eta_max              =   1.0306949543857E+00
(PID.TID 0000.0001) %MON dynstat_eta_min              =  -1.5567030168947E+00
(PID.TID 0000.0001) %MON dynstat_eta_mean             =   3.4391970350630E-02
(PID.TID 0000.0001) %MON dynstat_eta_sd               =   6.1101151031185E-01
(PID.TID 0000.0001) %MON dynstat_eta_del2             =   1.3045883282234E-03
(PID.TID 0000.0001) %MON dynstat_uvel_max             =   4.1823571578847E-01
(PID.TID 0000.0001) %MON dynstat_uvel_min             =  -7.1223059053867E-01
(PID.TID 0000.0001) %MON dynstat_uvel_mean            =  -4.6004345172927E-04
(PID.TID 0000.0001) %MON dynstat_uvel_sd              =   1.2917815904377E-02
(PID.TID 0000.0001) %MON dynstat_uvel_del2            =   8.5129522496112E-05
(PID.TID 0000.0001) %MON dynstat_vvel_max             =   3.3442330452072E-01
(PID.TID 0000.0001) %MON dynstat_vvel_min             =  -4.2542195100265E-01
(PID.TID 0000.0001) %MON dynstat_vvel_mean            =   1.6960543275346E-04
(PID.TID 0000.0001) %MON dynstat_vvel_sd              =   1.3726893697355E-02
(PID.TID 0000.0001) %MON dynstat_vvel_del2            =   8.8482095454776E-05
(PID.TID 0000.0001) %MON dynstat_wvel_max             =   1.0506769910250E-04
(PID.TID 0000.0001) %MON dynstat_wvel_min             =  -1.9178878942506E-04
(PID.TID 0000.0001) %MON dynstat_wvel_mean            =  -5.3199112978370E-08
(PID.TID 0000.0001) %MON dynstat_wvel_sd              =   7.6046581559808E-06
(PID.TID 0000.0001) %MON dynstat_wvel_del2            =   6.6469104940147E-08
(PID.TID 0000.0001) %MON dynstat_theta_max            =   3.0922913099477E+01
(PID.TID 0000.0001) %MON dynstat_theta_min            =  -3.0160920930873E+00
(PID.TID 0000.0001) %MON dynstat_theta_mean           =   3.9092154765617E+00
(PID.TID 0000.0001) %MON dynstat_theta_sd             =   4.5716907981393E+00
(PID.TID 0000.0001) %MON dynstat_theta_del2           =   2.6384319914369E-03
(PID.TID 0000.0001) %MON dynstat_salt_max             =   4.1346659028401E+01
(PID.TID 0000.0001) %MON dynstat_salt_min             =   1.8519244317994E+01
(PID.TID 0000.0001) %MON dynstat_salt_mean            =   3.4771893707795E+01
(PID.TID 0000.0001) %MON dynstat_salt_sd              =   5.3228152907196E-01
(PID.TID 0000.0001) %MON dynstat_salt_del2            =   1.1366146282509E-03
(PID.TID 0000.0001) %MON dynstat_sst_max              =   3.0922913099477E+01
(PID.TID 0000.0001) %MON dynstat_sst_min              =  -1.8983039260207E+00
(PID.TID 0000.0001) %MON dynstat_sst_mean             =   1.8109782509898E+01
(PID.TID 0000.0001) %MON dynstat_sst_sd               =   9.8143449984193E+00
(PID.TID 0000.0001) %MON dynstat_sst_del2             =   1.4970712749830E-02
(PID.TID 0000.0001) %MON dynstat_sss_max              =   4.1346659028401E+01
(PID.TID 0000.0001) %MON dynstat_sss_min              =   1.8752477146743E+01
(PID.TID 0000.0001) %MON dynstat_sss_mean             =   3.4620002089027E+01
(PID.TID 0000.0001) %MON dynstat_sss_sd               =   1.4908327555054E+00
(PID.TID 0000.0001) %MON dynstat_sss_del2             =   1.2899972265263E-02
(PID.TID 0000.0001) %MON forcing_qnet_max             =   1.4443122558594E+03
(PID.TID 0000.0001) %MON forcing_qnet_min             =  -8.4672249132048E+02
(PID.TID 0000.0001) %MON forcing_qnet_mean            =  -3.7501315233348E+01
(PID.TID 0000.0001) %MON forcing_qnet_sd              =   1.9186506282736E+02
(PID.TID 0000.0001) %MON forcing_qnet_del2            =   3.2805040276676E+00
(PID.TID 0000.0001) %MON forcing_qsw_max              =   0.0000000000000E+00
(PID.TID 0000.0001) %MON forcing_qsw_min              =  -1.0526761156186E+02
(PID.TID 0000.0001) %MON forcing_qsw_mean             =  -1.9476571975054E+01
(PID.TID 0000.0001) %MON forcing_qsw_sd               =   2.8704297262367E+01
(PID.TID 0000.0001) %MON forcing_qsw_del2             =   2.3234045111954E-01
(PID.TID 0000.0001) %MON forcing_empmr_max            =   4.5992922969162E-03
(PID.TID 0000.0001) %MON forcing_empmr_min            =  -6.6123373806477E-02
(PID.TID 0000.0001) %MON forcing_empmr_mean           =  -2.0315899629120E-04
(PID.TID 0000.0001) %MON forcing_empmr_sd             =   2.9161130380331E-03
(PID.TID 0000.0001) %MON forcing_empmr_del2           =   1.1477095701540E-04
(PID.TID 0000.0001) %MON forcing_fu_max               =   2.4957158068020E-01
(PID.TID 0000.0001) %MON forcing_fu_min               =  -3.4141586502539E-01
(PID.TID 0000.0001) %MON forcing_fu_mean              =  -4.6308546537087E-03
(PID.TID 0000.0001) %MON forcing_fu_sd                =   5.7381328449319E-02
(PID.TID 0000.0001) %MON forcing_fu_del2              =   5.7201889083183E-04
(PID.TID 0000.0001) %MON forcing_fv_max               =   2.6401907001541E-01
(PID.TID 0000.0001) %MON forcing_fv_min               =  -2.5226138202822E-01
(PID.TID 0000.0001) %MON forcing_fv_mean              =  -1.4900268545026E-02
(PID.TID 0000.0001) %MON forcing_fv_sd                =   6.0244547932179E-02
(PID.TID 0000.0001) %MON forcing_fv_del2              =   5.0764466569287E-04
(PID.TID 0000.0001) %MON trAdv_CFL_u_max              =   2.0644865826988E-03
(PID.TID 0000.0001) %MON trAdv_CFL_v_max              =   1.3940226766104E-03
(PID.TID 0000.0001) %MON trAdv_CFL_w_max              =   1.2324626332219E-03
(PID.TID 0000.0001) %MON advcfl_uvel_max              =   2.0546713251909E-03
(PID.TID 0000.0001) %MON advcfl_vvel_max              =   1.3883070073908E-03
(PID.TID 0000.0001) %MON advcfl_wvel_max              =   2.2999434367470E-03
(PID.TID 0000.0001) %MON advcfl_W_hf_max              =   1.2745633106417E-03
(PID.TID 0000.0001) %MON pe_b_mean                    =   4.9892238037299E-04
(PID.TID 0000.0001) %MON ke_max                       =   1.8414959075486E-01
(PID.TID 0000.0001) %MON ke_mean                      =   1.6419190805249E-04
(PID.TID 0000.0001) %MON ke_vol                       =   1.3398148958604E+18
(PID.TID 0000.0001) %MON vort_r_min                   =  -2.2924735529083E-06
(PID.TID 0000.0001) %MON vort_r_max                   =   2.7746161075853E-06
(PID.TID 0000.0001) %MON vort_a_mean                  =  -2.0549865324846E-05
(PID.TID 0000.0001) %MON vort_a_sd                    =   7.5259664377411E-05
(PID.TID 0000.0001) %MON vort_p_mean                  =  -2.4783234118077E-05
(PID.TID 0000.0001) %MON vort_p_sd                    =   1.2811920931708E-04
(PID.TID 0000.0001) %MON surfExpan_theta_mean         =  -4.6783436568569E-06
(PID.TID 0000.0001) %MON surfExpan_salt_mean          =   9.7628068627643E-07
(PID.TID 0000.0001) // =======================================================
(PID.TID 0000.0001) // End MONITOR dynamic field statistics
(PID.TID 0000.0001) // =======================================================
 cg2d: Sum(rhs),rhsMax =  -8.21175135747892E+01  3.62256371455959E+01
(PID.TID 0000.0001)      cg2d_init_res =   1.92343990788464E-01
(PID.TID 0000.0001)      cg2d_iters(min,last) =      -1      10
(PID.TID 0000.0001)      cg2d_last_res =   3.93424591757285E-08
(PID.TID 0000.0001) // =======================================================
(PID.TID 0000.0001) // Begin MONITOR dynamic field statistics
(PID.TID 0000.0001) // =======================================================
(PID.TID 0000.0001) %MON time_tsnumber                =                 72087
(PID.TID 0000.0001) %MON time_secondsf                =   6.4878300000000E+07
(PID.TID 0000.0001) %MON dynstat_eta_max              =   9.8326579575780E-01
(PID.TID 0000.0001) %MON dynstat_eta_min              =  -1.5570614838986E+00
(PID.TID 0000.0001) %MON dynstat_eta_mean             =   3.4566308119833E-02
(PID.TID 0000.0001) %MON dynstat_eta_sd               =   6.1091717376960E-01
(PID.TID 0000.0001) %MON dynstat_eta_del2             =   1.2836131842921E-03
(PID.TID 0000.0001) %MON dynstat_uvel_max             =   4.1086592931310E-01
(PID.TID 0000.0001) %MON dynstat_uvel_min             =  -7.0972093059499E-01
(PID.TID 0000.0001) %MON dynstat_uvel_mean            =  -4.7120812332731E-04
(PID.TID 0000.0001) %MON dynstat_uvel_sd              =   1.2907313689662E-02
(PID.TID 0000.0001) %MON dynstat_uvel_del2            =   8.5277751637547E-05
(PID.TID 0000.0001) %MON dynstat_vvel_max             =   3.3414459389748E-01
(PID.TID 0000.0001) %MON dynstat_vvel_min             =  -4.0857593515421E-01
(PID.TID 0000.0001) %MON dynstat_vvel_mean            =   1.5818638400463E-04
(PID.TID 0000.0001) %MON dynstat_vvel_sd              =   1.3725622985385E-02
(PID.TID 0000.0001) %MON dynstat_vvel_del2            =   8.8110057946978E-05
(PID.TID 0000.0001) %MON dynstat_wvel_max             =   1.0530279678369E-04
(PID.TID 0000.0001) %MON dynstat_wvel_min             =  -1.9190289566498E-04
(PID.TID 0000.0001) %MON dynstat_wvel_mean            =  -4.9955350371582E-08
(PID.TID 0000.0001) %MON dynstat_wvel_sd              =   7.5964145702947E-06
(PID.TID 0000.0001) %MON dynstat_wvel_del2            =   6.6146469092306E-08
(PID.TID 0000.0001) %MON dynstat_theta_max            =   3.0922685413601E+01
(PID.TID 0000.0001) %MON dynstat_theta_min            =  -3.0166867861424E+00
(PID.TID 0000.0001) %MON dynstat_theta_mean           =   3.9092187751756E+00
(PID.TID 0000.0001) %MON dynstat_theta_sd             =   4.5717039488530E+00
(PID.TID 0000.0001) %MON dynstat_theta_del2           =   2.6383143852762E-03
(PID.TID 0000.0001) %MON dynstat_salt_max             =   4.1346644874055E+01
(PID.TID 0000.0001) %MON dynstat_salt_min             =   1.8519254391561E+01
(PID.TID 0000.0001) %MON dynstat_salt_mean            =   3.4771892206747E+01
(PID.TID 0000.0001) %MON dynstat_salt_sd              =   5.3229149099232E-01
(PID.TID 0000.0001) %MON dynstat_salt_del2            =   1.1386760920047E-03
(PID.TID 0000.0001) %MON dynstat_sst_max              =   3.0922685413601E+01
(PID.TID 0000.0001) %MON dynstat_sst_min              =  -1.8981681779745E+00
(PID.TID 0000.0001) %MON dynstat_sst_mean             =   1.8109936152507E+01
(PID.TID 0000.0001) %MON dynstat_sst_sd               =   9.8145123093152E+00
(PID.TID 0000.0001) %MON dynstat_sst_del2             =   1.4968637089746E-02
(PID.TID 0000.0001) %MON dynstat_sss_max              =   4.1346644874055E+01
(PID.TID 0000.0001) %MON dynstat_sss_min              =   1.8752491239830E+01
(PID.TID 0000.0001) %MON dynstat_sss_mean             =   3.4619887446240E+01
(PID.TID 0000.0001) %MON dynstat_sss_sd               =   1.4910808270834E+00
(PID.TID 0000.0001) %MON dynstat_sss_del2             =   1.2928701632893E-02
(PID.TID 0000.0001) %MON forcing_qnet_max             =   1.4274997558594E+03
(PID.TID 0000.0001) %MON forcing_qnet_min             =  -8.3724084178148E+02
(PID.TID 0000.0001) %MON forcing_qnet_mean            =  -3.8211573246641E+01
(PID.TID 0000.0001) %MON forcing_qnet_sd              =   1.9123032539094E+02
(PID.TID 0000.0001) %MON forcing_qnet_del2            =   3.2449509156574E+00
(PID.TID 0000.0001) %MON forcing_qsw_max              =   0.0000000000000E+00
(PID.TID 0000.0001) %MON forcing_qsw_min              =  -1.0602799984976E+02
(PID.TID 0000.0001) %MON forcing_qsw_mean             =  -1.9628131688658E+01
(PID.TID 0000.0001) %MON forcing_qsw_sd               =   2.8861003356127E+01
(PID.TID 0000.0001) %MON forcing_qsw_del2             =   2.3260772312672E-01
(PID.TID 0000.0001) %MON forcing_empmr_max            =   4.5519596897066E-03
(PID.TID 0000.0001) %MON forcing_empmr_min            =  -6.5442867577076E-02
(PID.TID 0000.0001) %MON forcing_empmr_mean           =  -2.0048843458448E-04
(PID.TID 0000.0001) %MON forcing_empmr_sd             =   2.8863978403071E-03
(PID.TID 0000.0001) %MON forcing_empmr_del2           =   1.1356408560312E-04
(PID.TID 0000.0001) %MON forcing_fu_max               =   2.4158542082122E-01
(PID.TID 0000.0001) %MON forcing_fu_min               =  -3.3622103741663E-01
(PID.TID 0000.0001) %MON forcing_fu_mean              =  -4.7665742082292E-03
(PID.TID 0000.0001) %MON forcing_fu_sd                =   5.6925534391426E-02
(PID.TID 0000.0001) %MON forcing_fu_del2              =   5.6859544876698E-04
(PID.TID 0000.0001) %MON forcing_fv_max               =   2.6418000552119E-01
(PID.TID 0000.0001) %MON forcing_fv_min               =  -2.5364516686105E-01
(PID.TID 0000.0001) %MON forcing_fv_mean              =  -1.4883905344521E-02
(PID.TID 0000.0001) %MON forcing_fv_sd                =   6.0188148395833E-02
(PID.TID 0000.0001) %MON forcing_fv_del2              =   5.0655688196187E-04
(PID.TID 0000.0001) %MON trAdv_CFL_u_max              =   2.0587095470465E-03
(PID.TID 0000.0001) %MON trAdv_CFL_v_max              =   1.3370332436187E-03
(PID.TID 0000.0001) %MON trAdv_CFL_w_max              =   1.2563018932885E-03
(PID.TID 0000.0001) %MON advcfl_uvel_max              =   2.0474313576990E-03
(PID.TID 0000.0001) %MON advcfl_vvel_max              =   1.3333323127520E-03
(PID.TID 0000.0001) %MON advcfl_wvel_max              =   2.2762736548548E-03
(PID.TID 0000.0001) %MON advcfl_W_hf_max              =   1.2584671713723E-03
(PID.TID 0000.0001) %MON pe_b_mean                    =   4.9878480898058E-04
(PID.TID 0000.0001) %MON ke_max                       =   1.8809962418081E-01
(PID.TID 0000.0001) %MON ke_mean                      =   1.6405418142443E-04
(PID.TID 0000.0001) %MON ke_vol                       =   1.3398149601446E+18
(PID.TID 0000.0001) %MON vort_r_min                   =  -2.3036054917957E-06
(PID.TID 0000.0001) %MON vort_r_max                   =   2.7587477255959E-06
(PID.TID 0000.0001) %MON vort_a_mean                  =  -2.0549865324846E-05
(PID.TID 0000.0001) %MON vort_a_sd                    =   7.5259661783833E-05
(PID.TID 0000.0001) %MON vort_p_mean                  =  -2.4783232942914E-05
(PID.TID 0000.0001) %MON vort_p_sd                    =   1.2811921449334E-04
(PID.TID 0000.0001) %MON surfExpan_theta_mean         =  -4.5464324382122E-06
(PID.TID 0000.0001) %MON surfExpan_salt_mean          =   9.5311174543311E-07
(PID.TID 0000.0001) // =======================================================
(PID.TID 0000.0001) // End MONITOR dynamic field statistics
(PID.TID 0000.0001) // =======================================================
 Computing Diagnostic #     81  oceTAUX      Counter:       1   Parms: UU      U1      
           Vector  Mate for  oceTAUX      Diagnostic #     82  oceTAUY  exists 
 Computing Diagnostic #     82  oceTAUY      Counter:       1   Parms: VV      U1      
           Vector  Mate for  oceTAUY      Diagnostic #     81  oceTAUX  exists 
 Computing Diagnostic #     85  oceFWflx     Counter:       1   Parms: SM      U1      
 Computing Diagnostic #     86  oceSflux     Counter:       1   Parms: SM      U1      
 Computing Diagnostic #     87  oceQnet      Counter:       1   Parms: SM      U1      
 Computing Diagnostic #     88  oceQsw       Counter:       1   Parms: SM      U1      
 Computing Diagnostic #     27  SALT         Counter:       1   Parms: SMR     MR      
 Computing Diagnostic #     26  THETA        Counter:       1   Parms: SMR     MR      
 Computing Diagnostic #     45  UVELMASS     Counter:       1   Parms: UUr     MR      
           Vector  Mate for  UVELMASS     Diagnostic #     46  VVELMASS exists 
 Computing Diagnostic #     46  VVELMASS     Counter:       1   Parms: VVr     MR      
           Vector  Mate for  VVELMASS     Diagnostic #     45  UVELMASS exists 
 Computing Diagnostic #     83  atmPload     Counter:       1   Parms: SM      U1      
 cg2d: Sum(rhs),rhsMax =  -8.25268774687858E+01  3.62262201882082E+01
(PID.TID 0000.0001)      cg2d_init_res =   1.90182059479411E-01
(PID.TID 0000.0001)      cg2d_iters(min,last) =      -1      10
(PID.TID 0000.0001)      cg2d_last_res =   3.86855657547809E-08
(PID.TID 0000.0001) // =======================================================
(PID.TID 0000.0001) // Begin MONITOR dynamic field statistics
(PID.TID 0000.0001) // =======================================================
(PID.TID 0000.0001) %MON time_tsnumber                =                 72088
(PID.TID 0000.0001) %MON time_secondsf                =   6.4879200000000E+07
(PID.TID 0000.0001) %MON dynstat_eta_max              =   9.8131845507369E-01
(PID.TID 0000.0001) %MON dynstat_eta_min              =  -1.5575330735808E+00
(PID.TID 0000.0001) %MON dynstat_eta_mean             =   3.4739183680213E-02
(PID.TID 0000.0001) %MON dynstat_eta_sd               =   6.1081644505156E-01
(PID.TID 0000.0001) %MON dynstat_eta_del2             =   1.2708851541670E-03
(PID.TID 0000.0001) %MON dynstat_uvel_max             =   4.0094075230610E-01
(PID.TID 0000.0001) %MON dynstat_uvel_min             =  -7.0489047449467E-01
(PID.TID 0000.0001) %MON dynstat_uvel_mean            =  -4.8151289413545E-04
(PID.TID 0000.0001) %MON dynstat_uvel_sd              =   1.2897772360500E-02
(PID.TID 0000.0001) %MON dynstat_uvel_del2            =   8.5407614437442E-05
(PID.TID 0000.0001) %MON dynstat_vvel_max             =   3.2984268875826E-01
(PID.TID 0000.0001) %MON dynstat_vvel_min             =  -3.8622498194266E-01
(PID.TID 0000.0001) %MON dynstat_vvel_mean            =   1.4884237261315E-04
(PID.TID 0000.0001) %MON dynstat_vvel_sd              =   1.3722335069624E-02
(PID.TID 0000.0001) %MON dynstat_vvel_del2            =   8.7617485783981E-05
(PID.TID 0000.0001) %MON dynstat_wvel_max             =   1.0554636886239E-04
(PID.TID 0000.0001) %MON dynstat_wvel_min             =  -1.9203298140036E-04
(PID.TID 0000.0001) %MON dynstat_wvel_mean            =  -4.7809274117119E-08
(PID.TID 0000.0001) %MON dynstat_wvel_sd              =   7.5901077886556E-06
(PID.TID 0000.0001) %MON dynstat_wvel_del2            =   6.5828944445063E-08
(PID.TID 0000.0001) %MON dynstat_theta_max            =   3.0922449208882E+01
(PID.TID 0000.0001) %MON dynstat_theta_min            =  -3.0172930348700E+00
(PID.TID 0000.0001) %MON dynstat_theta_mean           =   3.9092220724561E+00
(PID.TID 0000.0001) %MON dynstat_theta_sd             =   4.5717171773709E+00
(PID.TID 0000.0001) %MON dynstat_theta_del2           =   2.6381943023088E-03
(PID.TID 0000.0001) %MON dynstat_salt_max             =   4.1346638608076E+01
(PID.TID 0000.0001) %MON dynstat_salt_min             =   1.8519264475231E+01
(PID.TID 0000.0001) %MON dynstat_salt_mean            =   3.4771890726099E+01
(PID.TID 0000.0001) %MON dynstat_salt_sd              =   5.3230128997121E-01
(PID.TID 0000.0001) %MON dynstat_salt_del2            =   1.1406896256071E-03
(PID.TID 0000.0001) %MON dynstat_sst_max              =   3.0922449208882E+01
(PID.TID 0000.0001) %MON dynstat_sst_min              =  -1.8980314120572E+00
(PID.TID 0000.0001) %MON dynstat_sst_mean             =   1.8110090904187E+01
(PID.TID 0000.0001) %MON dynstat_sst_sd               =   9.8146817157486E+00
(PID.TID 0000.0001) %MON dynstat_sst_del2             =   1.4966504323039E-02
(PID.TID 0000.0001) %MON dynstat_sss_max              =   4.1346638608076E+01
(PID.TID 0000.0001) %MON dynstat_sss_min              =   1.8752505228504E+01
(PID.TID 0000.0001) %MON dynstat_sss_mean             =   3.4619774509462E+01
(PID.TID 0000.0001) %MON dynstat_sss_sd               =   1.4913241453955E+00
(PID.TID 0000.0001) %MON dynstat_sss_del2             =   1.2956754366602E-02
(PID.TID 0000.0001) %MON forcing_qnet_max             =   1.4117327880859E+03
(PID.TID 0000.0001) %MON forcing_qnet_min             =  -8.2663225191622E+02
(PID.TID 0000.0001) %MON forcing_qnet_mean            =  -3.8253625081814E+01
(PID.TID 0000.0001) %MON forcing_qnet_sd              =   1.9142430184690E+02
(PID.TID 0000.0001) %MON forcing_qnet_del2            =   3.2166632582957E+00
(PID.TID 0000.0001) %MON forcing_qsw_max              =   0.0000000000000E+00
(PID.TID 0000.0001) %MON forcing_qsw_min              =  -1.0636200248000E+02
(PID.TID 0000.0001) %MON forcing_qsw_mean             =  -1.9726506872744E+01
(PID.TID 0000.0001) %MON forcing_qsw_sd               =   2.8987720229022E+01
(PID.TID 0000.0001) %MON forcing_qsw_del2             =   2.3265445060287E-01
(PID.TID 0000.0001) %MON forcing_empmr_max            =   4.5050214976072E-03
(PID.TID 0000.0001) %MON forcing_empmr_min            =  -6.4769081771374E-02
(PID.TID 0000.0001) %MON forcing_empmr_mean           =  -1.9880689443673E-04
(PID.TID 0000.0001) %MON forcing_empmr_sd             =   2.8566685812354E-03
(PID.TID 0000.0001) %MON forcing_empmr_del2           =   1.1237351335730E-04
(PID.TID 0000.0001) %MON forcing_fu_max               =   2.3946875364096E-01
(PID.TID 0000.0001) %MON forcing_fu_min               =  -3.3388033785624E-01
(PID.TID 0000.0001) %MON forcing_fu_mean              =  -4.8430872140630E-03
(PID.TID 0000.0001) %MON forcing_fu_sd                =   5.6640244030931E-02
(PID.TID 0000.0001) %MON forcing_fu_del2              =   5.6635933503131E-04
(PID.TID 0000.0001) %MON forcing_fv_max               =   2.6142107885125E-01
(PID.TID 0000.0001) %MON forcing_fv_min               =  -2.5487830018578E-01
(PID.TID 0000.0001) %MON forcing_fv_mean              =  -1.4888303548386E-02
(PID.TID 0000.0001) %MON forcing_fv_sd                =   6.0015203363933E-02
(PID.TID 0000.0001) %MON forcing_fv_del2              =   5.0395692068045E-04
(PID.TID 0000.0001) %MON trAdv_CFL_u_max              =   2.0462296683758E-03
(PID.TID 0000.0001) %MON trAdv_CFL_v_max              =   1.2616985109968E-03
(PID.TID 0000.0001) %MON trAdv_CFL_w_max              =   1.2723115738985E-03
(PID.TID 0000.0001) %MON advcfl_uvel_max              =   2.0334962645300E-03
(PID.TID 0000.0001) %MON advcfl_vvel_max              =   1.2603929994601E-03
(PID.TID 0000.0001) %MON advcfl_wvel_max              =   2.2528376268304E-03
(PID.TID 0000.0001) %MON advcfl_W_hf_max              =   1.2723115738985E-03
(PID.TID 0000.0001) %MON pe_b_mean                    =   4.9863680442111E-04
(PID.TID 0000.0001) %MON ke_max                       =   1.9102592519712E-01
(PID.TID 0000.0001) %MON ke_mean                      =   1.6390239501755E-04
(PID.TID 0000.0001) %MON ke_vol                       =   1.3398150235838E+18
(PID.TID 0000.0001) %MON vort_r_min                   =  -2.3417346969133E-06
(PID.TID 0000.0001) %MON vort_r_max                   =   2.7331233000048E-06
(PID.TID 0000.0001) %MON vort_a_mean                  =  -2.0549865324846E-05
(PID.TID 0000.0001) %MON vort_a_sd                    =   7.5259659620432E-05
(PID.TID 0000.0001) %MON vort_p_mean                  =  -2.4783231793488E-05
(PID.TID 0000.0001) %MON vort_p_sd                    =   1.2811921970690E-04
(PID.TID 0000.0001) %MON surfExpan_theta_mean         =  -4.4369502026059E-06
(PID.TID 0000.0001) %MON surfExpan_salt_mean          =   9.3087011008164E-07
(PID.TID 0000.0001) // =======================================================
(PID.TID 0000.0001) // End MONITOR dynamic field statistics
(PID.TID 0000.0001) // =======================================================
 cg2d: Sum(rhs),rhsMax =  -8.29253550763229E+01  3.62299388554378E+01
(PID.TID 0000.0001)      cg2d_init_res =   1.87350546321164E-01
(PID.TID 0000.0001)      cg2d_iters(min,last) =      -1      10
(PID.TID 0000.0001)      cg2d_last_res =   3.83065391150405E-08
(PID.TID 0000.0001) // =======================================================
(PID.TID 0000.0001) // Begin MONITOR dynamic field statistics
(PID.TID 0000.0001) // =======================================================
(PID.TID 0000.0001) %MON time_tsnumber                =                 72089
(PID.TID 0000.0001) %MON time_secondsf                =   6.4880100000000E+07
(PID.TID 0000.0001) %MON dynstat_eta_max              =   9.7887776217464E-01
(PID.TID 0000.0001) %MON dynstat_eta_min              =  -1.5581276139011E+00
(PID.TID 0000.0001) %MON dynstat_eta_mean             =   3.4910503628290E-02
(PID.TID 0000.0001) %MON dynstat_eta_sd               =   6.1070594079951E-01
(PID.TID 0000.0001) %MON dynstat_eta_del2             =   1.2656370501655E-03
(PID.TID 0000.0001) %MON dynstat_uvel_max             =   3.8887048248114E-01
(PID.TID 0000.0001) %MON dynstat_uvel_min             =  -6.9775357174024E-01
(PID.TID 0000.0001) %MON dynstat_uvel_mean            =  -4.9097138511180E-04
(PID.TID 0000.0001) %MON dynstat_uvel_sd              =   1.2889106368453E-02
(PID.TID 0000.0001) %MON dynstat_uvel_del2            =   8.5510265070211E-05
(PID.TID 0000.0001) %MON dynstat_vvel_max             =   3.2172124435616E-01
(PID.TID 0000.0001) %MON dynstat_vvel_min             =  -3.5889828616563E-01
(PID.TID 0000.0001) %MON dynstat_vvel_mean            =   1.4163677582276E-04
(PID.TID 0000.0001) %MON dynstat_vvel_sd              =   1.3717302669294E-02
(PID.TID 0000.0001) %MON dynstat_vvel_del2            =   8.7052537623994E-05
(PID.TID 0000.0001) %MON dynstat_wvel_max             =   1.0578707497243E-04
(PID.TID 0000.0001) %MON dynstat_wvel_min             =  -1.9216833237828E-04
(PID.TID 0000.0001) %MON dynstat_wvel_mean            =  -4.6200329446545E-08
(PID.TID 0000.0001) %MON dynstat_wvel_sd              =   7.5875226962277E-06
(PID.TID 0000.0001) %MON dynstat_wvel_del2            =   6.5524194561061E-08
(PID.TID 0000.0001) %MON dynstat_theta_max            =   3.0922204409325E+01
(PID.TID 0000.0001) %MON dynstat_theta_min            =  -3.0179113819498E+00
(PID.TID 0000.0001) %MON dynstat_theta_mean           =   3.9092254975626E+00
(PID.TID 0000.0001) %MON dynstat_theta_sd             =   4.5717310770986E+00
(PID.TID 0000.0001) %MON dynstat_theta_del2           =   2.6380720125971E-03
(PID.TID 0000.0001) %MON dynstat_salt_max             =   4.1346641479153E+01
(PID.TID 0000.0001) %MON dynstat_salt_min             =   1.8519274568717E+01
(PID.TID 0000.0001) %MON dynstat_salt_mean            =   3.4771889267751E+01
(PID.TID 0000.0001) %MON dynstat_salt_sd              =   5.3231096401910E-01
(PID.TID 0000.0001) %MON dynstat_salt_del2            =   1.1426573377060E-03
(PID.TID 0000.0001) %MON dynstat_sst_max              =   3.0922204409325E+01
(PID.TID 0000.0001) %MON dynstat_sst_min              =  -1.8978954720670E+00
(PID.TID 0000.0001) %MON dynstat_sst_mean             =   1.8110256683147E+01
(PID.TID 0000.0001) %MON dynstat_sst_sd               =   9.8148595432021E+00
(PID.TID 0000.0001) %MON dynstat_sst_del2             =   1.4964323149843E-02
(PID.TID 0000.0001) %MON dynstat_sss_max              =   4.1346641479153E+01
(PID.TID 0000.0001) %MON dynstat_sss_min              =   1.8752518966333E+01
(PID.TID 0000.0001) %MON dynstat_sss_mean             =   3.4619663506229E+01
(PID.TID 0000.0001) %MON dynstat_sss_sd               =   1.4915637986761E+00
(PID.TID 0000.0001) %MON dynstat_sss_del2             =   1.2984161883531E-02
(PID.TID 0000.0001) %MON forcing_qnet_max             =   1.3961529541016E+03
(PID.TID 0000.0001) %MON forcing_qnet_min             =  -8.1586199216576E+02
(PID.TID 0000.0001) %MON forcing_qnet_mean            =  -4.0536658367398E+01
(PID.TID 0000.0001) %MON forcing_qnet_sd              =   1.9342536228968E+02
(PID.TID 0000.0001) %MON forcing_qnet_del2            =   3.2364711641207E+00
(PID.TID 0000.0001) %MON forcing_qsw_max              =   0.0000000000000E+00
(PID.TID 0000.0001) %MON forcing_qsw_min              =  -1.0755687213479E+02
(PID.TID 0000.0001) %MON forcing_qsw_mean             =  -2.0241747379231E+01
(PID.TID 0000.0001) %MON forcing_qsw_sd               =   2.9589905968527E+01
(PID.TID 0000.0001) %MON forcing_qsw_del2             =   2.3446770186379E-01
(PID.TID 0000.0001) %MON forcing_empmr_max            =   4.4586728326976E-03
(PID.TID 0000.0001) %MON forcing_empmr_min            =  -6.4102016389370E-02
(PID.TID 0000.0001) %MON forcing_empmr_mean           =  -1.9701794028804E-04
(PID.TID 0000.0001) %MON forcing_empmr_sd             =   2.8274630471610E-03
(PID.TID 0000.0001) %MON forcing_empmr_del2           =   1.1120020155016E-04
(PID.TID 0000.0001) %MON forcing_fu_max               =   2.3689297708429E-01
(PID.TID 0000.0001) %MON forcing_fu_min               =  -3.3459428667028E-01
(PID.TID 0000.0001) %MON forcing_fu_mean              =  -4.9311626135878E-03
(PID.TID 0000.0001) %MON forcing_fu_sd                =   5.6400517928145E-02
(PID.TID 0000.0001) %MON forcing_fu_del2              =   5.6439601323555E-04
(PID.TID 0000.0001) %MON forcing_fv_max               =   2.5674009106668E-01
(PID.TID 0000.0001) %MON forcing_fv_min               =  -2.5550311558256E-01
(PID.TID 0000.0001) %MON forcing_fv_mean              =  -1.4936255184111E-02
(PID.TID 0000.0001) %MON forcing_fv_sd                =   5.9756930858310E-02
(PID.TID 0000.0001) %MON forcing_fv_del2              =   5.0173655975635E-04
(PID.TID 0000.0001) %MON trAdv_CFL_u_max              =   2.0270629703151E-03
(PID.TID 0000.0001) %MON trAdv_CFL_v_max              =   1.1700417074460E-03
(PID.TID 0000.0001) %MON trAdv_CFL_w_max              =   1.2811897180197E-03
(PID.TID 0000.0001) %MON advcfl_uvel_max              =   2.0129074417036E-03
(PID.TID 0000.0001) %MON advcfl_vvel_max              =   1.1712160231741E-03
(PID.TID 0000.0001) %MON advcfl_wvel_max              =   2.2296353526737E-03
(PID.TID 0000.0001) %MON advcfl_W_hf_max              =   1.2811897180197E-03
(PID.TID 0000.0001) %MON pe_b_mean                    =   4.9847285583535E-04
(PID.TID 0000.0001) %MON ke_max                       =   1.9288462423555E-01
(PID.TID 0000.0001) %MON ke_mean                      =   1.6373893541357E-04
(PID.TID 0000.0001) %MON ke_vol                       =   1.3398150864910E+18
(PID.TID 0000.0001) %MON vort_r_min                   =  -2.3797109629111E-06
(PID.TID 0000.0001) %MON vort_r_max                   =   2.6980288014910E-06
(PID.TID 0000.0001) %MON vort_a_mean                  =  -2.0549865324846E-05
(PID.TID 0000.0001) %MON vort_a_sd                    =   7.5259657896043E-05
(PID.TID 0000.0001) %MON vort_p_mean                  =  -2.4783230662636E-05
(PID.TID 0000.0001) %MON vort_p_sd                    =   1.2811922464320E-04
(PID.TID 0000.0001) %MON surfExpan_theta_mean         =  -4.3283065748198E-06
(PID.TID 0000.0001) %MON surfExpan_salt_mean          =   9.0995306719697E-07
(PID.TID 0000.0001) // =======================================================
(PID.TID 0000.0001) // End MONITOR dynamic field statistics
(PID.TID 0000.0001) // =======================================================
 cg2d: Sum(rhs),rhsMax =  -8.33102902268108E+01  3.62368744825529E+01
(PID.TID 0000.0001)      cg2d_init_res =   1.83950155282326E-01
(PID.TID 0000.0001)      cg2d_iters(min,last) =      -1      10
(PID.TID 0000.0001)      cg2d_last_res =   3.99922970798063E-08
(PID.TID 0000.0001) // =======================================================
(PID.TID 0000.0001) // Begin MONITOR dynamic field statistics
(PID.TID 0000.0001) // =======================================================
(PID.TID 0000.0001) %MON time_tsnumber                =                 72090
(PID.TID 0000.0001) %MON time_secondsf                =   6.4881000000000E+07
(PID.TID 0000.0001) %MON dynstat_eta_max              =   9.7596284174463E-01
(PID.TID 0000.0001) %MON dynstat_eta_min              =  -1.5588514446289E+00
(PID.TID 0000.0001) %MON dynstat_eta_mean             =   3.5079270421008E-02
(PID.TID 0000.0001) %MON dynstat_eta_sd               =   6.1058079906675E-01
(PID.TID 0000.0001) %MON dynstat_eta_del2             =   1.2665429870975E-03
(PID.TID 0000.0001) %MON dynstat_uvel_max             =   3.7510652311679E-01
(PID.TID 0000.0001) %MON dynstat_uvel_min             =  -6.8833201078523E-01
(PID.TID 0000.0001) %MON dynstat_uvel_mean            =  -4.9960834878020E-04
(PID.TID 0000.0001) %MON dynstat_uvel_sd              =   1.2881234364855E-02
(PID.TID 0000.0001) %MON dynstat_uvel_del2            =   8.5579406506434E-05
(PID.TID 0000.0001) %MON dynstat_vvel_max             =   3.1003776859649E-01
(PID.TID 0000.0001) %MON dynstat_vvel_min             =  -3.3829155479821E-01
(PID.TID 0000.0001) %MON dynstat_vvel_mean            =   1.3663023271224E-04
(PID.TID 0000.0001) %MON dynstat_vvel_sd              =   1.3711166923415E-02
(PID.TID 0000.0001) %MON dynstat_vvel_del2            =   8.6467666499631E-05
(PID.TID 0000.0001) %MON dynstat_wvel_max             =   1.0603266031291E-04
(PID.TID 0000.0001) %MON dynstat_wvel_min             =  -1.9231280855548E-04
(PID.TID 0000.0001) %MON dynstat_wvel_mean            =  -4.4469058209786E-08
(PID.TID 0000.0001) %MON dynstat_wvel_sd              =   7.5869295654213E-06
(PID.TID 0000.0001) %MON dynstat_wvel_del2            =   6.5233073721471E-08
(PID.TID 0000.0001) %MON dynstat_theta_max            =   3.0921950918261E+01
(PID.TID 0000.0001) %MON dynstat_theta_min            =  -3.0185424800840E+00
(PID.TID 0000.0001) %MON dynstat_theta_mean           =   3.9092289677897E+00
(PID.TID 0000.0001) %MON dynstat_theta_sd             =   4.5717453045786E+00
(PID.TID 0000.0001) %MON dynstat_theta_del2           =   2.6379484479297E-03
(PID.TID 0000.0001) %MON dynstat_salt_max             =   4.1346654990395E+01
(PID.TID 0000.0001) %MON dynstat_salt_min             =   1.8519284671557E+01
(PID.TID 0000.0001) %MON dynstat_salt_mean            =   3.4771887837745E+01
(PID.TID 0000.0001) %MON dynstat_salt_sd              =   5.3232047064050E-01
(PID.TID 0000.0001) %MON dynstat_salt_del2            =   1.1445802186292E-03
(PID.TID 0000.0001) %MON dynstat_sst_max              =   3.0921950918261E+01
(PID.TID 0000.0001) %MON dynstat_sst_min              =  -1.8977621764678E+00
(PID.TID 0000.0001) %MON dynstat_sst_mean             =   1.8110428072942E+01
(PID.TID 0000.0001) %MON dynstat_sst_sd               =   9.8150425017347E+00
(PID.TID 0000.0001) %MON dynstat_sst_del2             =   1.4962107670623E-02
(PID.TID 0000.0001) %MON dynstat_sss_max              =   4.1346654990395E+01
(PID.TID 0000.0001) %MON dynstat_sss_min              =   1.8752532575275E+01
(PID.TID 0000.0001) %MON dynstat_sss_mean             =   3.4619554736525E+01
(PID.TID 0000.0001) %MON dynstat_sss_sd               =   1.4917987239744E+00
(PID.TID 0000.0001) %MON dynstat_sss_del2             =   1.3010937589937E-02
(PID.TID 0000.0001) %MON forcing_qnet_max             =   1.3807578125000E+03
(PID.TID 0000.0001) %MON forcing_qnet_min             =  -8.0492952549252E+02
(PID.TID 0000.0001) %MON forcing_qnet_mean            =  -4.1644678635204E+01
(PID.TID 0000.0001) %MON forcing_qnet_sd              =   1.9481463881184E+02
(PID.TID 0000.0001) %MON forcing_qnet_del2            =   3.1542710895840E+00
(PID.TID 0000.0001) %MON forcing_qsw_max              =   0.0000000000000E+00
(PID.TID 0000.0001) %MON forcing_qsw_min              =  -1.0780766129347E+02
(PID.TID 0000.0001) %MON forcing_qsw_mean             =  -2.0462191248134E+01
(PID.TID 0000.0001) %MON forcing_qsw_sd               =   2.9805554004841E+01
(PID.TID 0000.0001) %MON forcing_qsw_del2             =   2.3587759097853E-01
(PID.TID 0000.0001) %MON forcing_empmr_max            =   4.4127185828984E-03
(PID.TID 0000.0001) %MON forcing_empmr_min            =  -6.3442490994930E-02
(PID.TID 0000.0001) %MON forcing_empmr_mean           =  -1.9408181162534E-04
(PID.TID 0000.0001) %MON forcing_empmr_sd             =   2.7978428703866E-03
(PID.TID 0000.0001) %MON forcing_empmr_del2           =   1.1000605955813E-04
(PID.TID 0000.0001) %MON forcing_fu_max               =   2.3546297358516E-01
(PID.TID 0000.0001) %MON forcing_fu_min               =  -3.3543391872616E-01
(PID.TID 0000.0001) %MON forcing_fu_mean              =  -5.0480310608880E-03
(PID.TID 0000.0001) %MON forcing_fu_sd                =   5.6082759402417E-02
(PID.TID 0000.0001) %MON forcing_fu_del2              =   5.6216765157820E-04
(PID.TID 0000.0001) %MON forcing_fv_max               =   2.5219165199670E-01
(PID.TID 0000.0001) %MON forcing_fv_min               =  -2.5560770137650E-01
(PID.TID 0000.0001) %MON forcing_fv_mean              =  -1.4945977549590E-02
(PID.TID 0000.0001) %MON forcing_fv_sd                =   5.9594041668591E-02
(PID.TID 0000.0001) %MON forcing_fv_del2              =   5.0023098376595E-04
(PID.TID 0000.0001) %MON trAdv_CFL_u_max              =   2.0012463244446E-03
(PID.TID 0000.0001) %MON trAdv_CFL_v_max              =   1.1582662635915E-03
(PID.TID 0000.0001) %MON trAdv_CFL_w_max              =   1.2837430492313E-03
(PID.TID 0000.0001) %MON advcfl_uvel_max              =   1.9857277454227E-03
(PID.TID 0000.0001) %MON advcfl_vvel_max              =   1.1613802295911E-03
(PID.TID 0000.0001) %MON advcfl_wvel_max              =   2.2066953389541E-03
(PID.TID 0000.0001) %MON advcfl_W_hf_max              =   1.2837430492313E-03
(PID.TID 0000.0001) %MON pe_b_mean                    =   4.9828496707304E-04
(PID.TID 0000.0001) %MON ke_max                       =   1.9364759703959E-01
(PID.TID 0000.0001) %MON ke_mean                      =   1.6357095406343E-04
(PID.TID 0000.0001) %MON ke_vol                       =   1.3398151488320E+18
(PID.TID 0000.0001) %MON vort_r_min                   =  -2.4276629796927E-06
(PID.TID 0000.0001) %MON vort_r_max                   =   2.6538483225484E-06
(PID.TID 0000.0001) %MON vort_a_mean                  =  -2.0549865324846E-05
(PID.TID 0000.0001) %MON vort_a_sd                    =   7.5259656608147E-05
(PID.TID 0000.0001) %MON vort_p_mean                  =  -2.4783229549821E-05
(PID.TID 0000.0001) %MON vort_p_sd                    =   1.2811922902583E-04
(PID.TID 0000.0001) %MON surfExpan_theta_mean         =  -4.1873235641727E-06
(PID.TID 0000.0001) %MON surfExpan_salt_mean          =   8.8721109444991E-07
(PID.TID 0000.0001) // =======================================================
(PID.TID 0000.0001) // End MONITOR dynamic field statistics
(PID.TID 0000.0001) // =======================================================
 cg2d: Sum(rhs),rhsMax =  -8.36803354056427E+01  3.62480293163369E+01
(PID.TID 0000.0001)      cg2d_init_res =   1.80100680671601E-01
(PID.TID 0000.0001)      cg2d_iters(min,last) =      -1      10
(PID.TID 0000.0001)      cg2d_last_res =   3.83402621293519E-08
(PID.TID 0000.0001) // =======================================================
(PID.TID 0000.0001) // Begin MONITOR dynamic field statistics
(PID.TID 0000.0001) // =======================================================
(PID.TID 0000.0001) %MON time_tsnumber                =                 72091
(PID.TID 0000.0001) %MON time_secondsf                =   6.4881900000000E+07
(PID.TID 0000.0001) %MON dynstat_eta_max              =   9.7263236410746E-01
(PID.TID 0000.0001) %MON dynstat_eta_min              =  -1.5597112108328E+00
(PID.TID 0000.0001) %MON dynstat_eta_mean             =   3.5245930936797E-02
(PID.TID 0000.0001) %MON dynstat_eta_sd               =   6.1043925991599E-01
(PID.TID 0000.0001) %MON dynstat_eta_del2             =   1.2719514496074E-03
(PID.TID 0000.0001) %MON dynstat_uvel_max             =   3.6012796950880E-01
(PID.TID 0000.0001) %MON dynstat_uvel_min             =  -6.7665751772332E-01
(PID.TID 0000.0001) %MON dynstat_uvel_mean            =  -5.0744595103334E-04
(PID.TID 0000.0001) %MON dynstat_uvel_sd              =   1.2874131670965E-02
(PID.TID 0000.0001) %MON dynstat_uvel_del2            =   8.5611286775122E-05
(PID.TID 0000.0001) %MON dynstat_vvel_max             =   2.9509153746814E-01
(PID.TID 0000.0001) %MON dynstat_vvel_min             =  -3.3997625983043E-01
(PID.TID 0000.0001) %MON dynstat_vvel_mean            =   1.3382512052715E-04
(PID.TID 0000.0001) %MON dynstat_vvel_sd              =   1.3704335520208E-02
(PID.TID 0000.0001) %MON dynstat_vvel_del2            =   8.5912892290801E-05
(PID.TID 0000.0001) %MON dynstat_wvel_max             =   1.0628337853080E-04
(PID.TID 0000.0001) %MON dynstat_wvel_min             =  -1.9245850247833E-04
(PID.TID 0000.0001) %MON dynstat_wvel_mean            =  -4.3526105290967E-08
(PID.TID 0000.0001) %MON dynstat_wvel_sd              =   7.5891958734833E-06
(PID.TID 0000.0001) %MON dynstat_wvel_del2            =   6.4964074212889E-08
(PID.TID 0000.0001) %MON dynstat_theta_max            =   3.0921689850095E+01
(PID.TID 0000.0001) %MON dynstat_theta_min            =  -3.0191870105813E+00
(PID.TID 0000.0001) %MON dynstat_theta_mean           =   3.9092324733276E+00
(PID.TID 0000.0001) %MON dynstat_theta_sd             =   4.5717597347375E+00
(PID.TID 0000.0001) %MON dynstat_theta_del2           =   2.6378224425331E-03
(PID.TID 0000.0001) %MON dynstat_salt_max             =   4.1346680497748E+01
(PID.TID 0000.0001) %MON dynstat_salt_min             =   1.8519294783138E+01
(PID.TID 0000.0001) %MON dynstat_salt_mean            =   3.4771886430224E+01
(PID.TID 0000.0001) %MON dynstat_salt_sd              =   5.3232982774769E-01
(PID.TID 0000.0001) %MON dynstat_salt_del2            =   1.1464585223813E-03
(PID.TID 0000.0001) %MON dynstat_sst_max              =   3.0921689850095E+01
(PID.TID 0000.0001) %MON dynstat_sst_min              =  -1.8976332317265E+00
(PID.TID 0000.0001) %MON dynstat_sst_mean             =   1.8110603509436E+01
(PID.TID 0000.0001) %MON dynstat_sst_sd               =   9.8152274907132E+00
(PID.TID 0000.0001) %MON dynstat_sst_del2             =   1.4959827701497E-02
(PID.TID 0000.0001) %MON dynstat_sss_max              =   4.1346680497748E+01
(PID.TID 0000.0001) %MON dynstat_sss_min              =   1.8752546015595E+01
(PID.TID 0000.0001) %MON dynstat_sss_mean             =   3.4619447819684E+01
(PID.TID 0000.0001) %MON dynstat_sss_sd               =   1.4920294350308E+00
(PID.TID 0000.0001) %MON dynstat_sss_del2             =   1.3037085563137E-02
(PID.TID 0000.0001) %MON forcing_qnet_max             =   1.3655455322266E+03
(PID.TID 0000.0001) %MON forcing_qnet_min             =  -7.9472528347219E+02
(PID.TID 0000.0001) %MON forcing_qnet_mean            =  -4.2297461107332E+01
(PID.TID 0000.0001) %MON forcing_qnet_sd              =   1.9714360809375E+02
(PID.TID 0000.0001) %MON forcing_qnet_del2            =   3.1662170432247E+00
(PID.TID 0000.0001) %MON forcing_qsw_max              =   0.0000000000000E+00
(PID.TID 0000.0001) %MON forcing_qsw_min              =  -1.0764872790231E+02
(PID.TID 0000.0001) %MON forcing_qsw_mean             =  -2.0636265679913E+01
(PID.TID 0000.0001) %MON forcing_qsw_sd               =   2.9971676993570E+01
(PID.TID 0000.0001) %MON forcing_qsw_del2             =   2.3694469816428E-01
(PID.TID 0000.0001) %MON forcing_empmr_max            =   4.3672560714185E-03
(PID.TID 0000.0001) %MON forcing_empmr_min            =  -6.2789678573608E-02
(PID.TID 0000.0001) %MON forcing_empmr_mean           =  -1.9165959315812E-04
(PID.TID 0000.0001) %MON forcing_empmr_sd             =   2.7691024707367E-03
(PID.TID 0000.0001) %MON forcing_empmr_del2           =   1.0883493837236E-04
(PID.TID 0000.0001) %MON forcing_fu_max               =   2.3555930196507E-01
(PID.TID 0000.0001) %MON forcing_fu_min               =  -3.3666336037125E-01
(PID.TID 0000.0001) %MON forcing_fu_mean              =  -5.1219101830410E-03
(PID.TID 0000.0001) %MON forcing_fu_sd                =   5.5850070571819E-02
(PID.TID 0000.0001) %MON forcing_fu_del2              =   5.6051743976835E-04
(PID.TID 0000.0001) %MON forcing_fv_max               =   2.4740206467818E-01
(PID.TID 0000.0001) %MON forcing_fv_min               =  -2.5575684801276E-01
(PID.TID 0000.0001) %MON forcing_fv_mean              =  -1.4950613076625E-02
(PID.TID 0000.0001) %MON forcing_fv_sd                =   5.9409978141903E-02
(PID.TID 0000.0001) %MON forcing_fv_del2              =   4.9804770173134E-04
(PID.TID 0000.0001) %MON trAdv_CFL_u_max              =   1.9688450927660E-03
(PID.TID 0000.0001) %MON trAdv_CFL_v_max              =   1.1489441970263E-03
(PID.TID 0000.0001) %MON trAdv_CFL_w_max              =   1.2808627814335E-03
(PID.TID 0000.0001) %MON advcfl_uvel_max              =   1.9520487003927E-03
(PID.TID 0000.0001) %MON advcfl_vvel_max              =   1.1512392530929E-03
(PID.TID 0000.0001) %MON advcfl_wvel_max              =   2.1839888199516E-03
(PID.TID 0000.0001) %MON advcfl_W_hf_max              =   1.2808627814335E-03
(PID.TID 0000.0001) %MON pe_b_mean                    =   4.9807032903244E-04
(PID.TID 0000.0001) %MON ke_max                       =   1.9329933390645E-01
(PID.TID 0000.0001) %MON ke_mean                      =   1.6340330495722E-04
(PID.TID 0000.0001) %MON ke_vol                       =   1.3398152102440E+18
(PID.TID 0000.0001) %MON vort_r_min                   =  -2.4746404696024E-06
(PID.TID 0000.0001) %MON vort_r_max                   =   2.6009909887137E-06
(PID.TID 0000.0001) %MON vort_a_mean                  =  -2.0549865324846E-05
(PID.TID 0000.0001) %MON vort_a_sd                    =   7.5259655747800E-05
(PID.TID 0000.0001) %MON vort_p_mean                  =  -2.4783228460585E-05
(PID.TID 0000.0001) %MON vort_p_sd                    =   1.2811923264042E-04
(PID.TID 0000.0001) %MON surfExpan_theta_mean         =  -4.0801156467854E-06
(PID.TID 0000.0001) %MON surfExpan_salt_mean          =   8.6600674970083E-07
(PID.TID 0000.0001) // =======================================================
(PID.TID 0000.0001) // End MONITOR dynamic field statistics
(PID.TID 0000.0001) // =======================================================
 Computing Diagnostic #     81  oceTAUX      Counter:       1   Parms: UU      U1      
           Vector  Mate for  oceTAUX      Diagnostic #     82  oceTAUY  exists 
 Computing Diagnostic #     82  oceTAUY      Counter:       1   Parms: VV      U1      
           Vector  Mate for  oceTAUY      Diagnostic #     81  oceTAUX  exists 
 Computing Diagnostic #     85  oceFWflx     Counter:       1   Parms: SM      U1      
 Computing Diagnostic #     86  oceSflux     Counter:       1   Parms: SM      U1      
 Computing Diagnostic #     87  oceQnet      Counter:       1   Parms: SM      U1      
 Computing Diagnostic #     88  oceQsw       Counter:       1   Parms: SM      U1      
 Computing Diagnostic #     27  SALT         Counter:       1   Parms: SMR     MR      
 Computing Diagnostic #     26  THETA        Counter:       1   Parms: SMR     MR      
 Computing Diagnostic #     45  UVELMASS     Counter:       1   Parms: UUr     MR      
           Vector  Mate for  UVELMASS     Diagnostic #     46  VVELMASS exists 
 Computing Diagnostic #     46  VVELMASS     Counter:       1   Parms: VVr     MR      
           Vector  Mate for  VVELMASS     Diagnostic #     45  UVELMASS exists 
 Computing Diagnostic #     83  atmPload     Counter:       1   Parms: SM      U1      
 cg2d: Sum(rhs),rhsMax =  -8.40373934366344E+01  3.62630873681228E+01
(PID.TID 0000.0001)      cg2d_init_res =   1.75884063021812E-01
(PID.TID 0000.0001)      cg2d_iters(min,last) =      -1      10
(PID.TID 0000.0001)      cg2d_last_res =   3.68576485624139E-08
(PID.TID 0000.0001) // =======================================================
(PID.TID 0000.0001) // Begin MONITOR dynamic field statistics
(PID.TID 0000.0001) // =======================================================
(PID.TID 0000.0001) %MON time_tsnumber                =                 72092
(PID.TID 0000.0001) %MON time_secondsf                =   6.4882800000000E+07
(PID.TID 0000.0001) %MON dynstat_eta_max              =   9.6894080465867E-01
(PID.TID 0000.0001) %MON dynstat_eta_min              =  -1.5607138610802E+00
(PID.TID 0000.0001) %MON dynstat_eta_mean             =   3.5411027052018E-02
(PID.TID 0000.0001) %MON dynstat_eta_sd               =   6.1027753815795E-01
(PID.TID 0000.0001) %MON dynstat_eta_del2             =   1.2801184078880E-03
(PID.TID 0000.0001) %MON dynstat_uvel_max             =   3.4442786561634E-01
(PID.TID 0000.0001) %MON dynstat_uvel_min             =  -6.6277625086346E-01
(PID.TID 0000.0001) %MON dynstat_uvel_mean            =  -5.1454391816252E-04
(PID.TID 0000.0001) %MON dynstat_uvel_sd              =   1.2867704529251E-02
(PID.TID 0000.0001) %MON dynstat_uvel_del2            =   8.5604275983707E-05
(PID.TID 0000.0001) %MON dynstat_vvel_max             =   3.0501930404927E-01
(PID.TID 0000.0001) %MON dynstat_vvel_min             =  -3.4166698215311E-01
(PID.TID 0000.0001) %MON dynstat_vvel_mean            =   1.3319145758682E-04
(PID.TID 0000.0001) %MON dynstat_vvel_sd              =   1.3697272653495E-02
(PID.TID 0000.0001) %MON dynstat_vvel_del2            =   8.5433145230559E-05
(PID.TID 0000.0001) %MON dynstat_wvel_max             =   1.0651700028276E-04
(PID.TID 0000.0001) %MON dynstat_wvel_min             =  -1.9260972372106E-04
(PID.TID 0000.0001) %MON dynstat_wvel_mean            =  -4.3255983633662E-08
(PID.TID 0000.0001) %MON dynstat_wvel_sd              =   7.5940480728468E-06
(PID.TID 0000.0001) %MON dynstat_wvel_del2            =   6.4716339949617E-08
(PID.TID 0000.0001) %MON dynstat_theta_max            =   3.0921419967583E+01
(PID.TID 0000.0001) %MON dynstat_theta_min            =  -3.0198456304400E+00
(PID.TID 0000.0001) %MON dynstat_theta_mean           =   3.9092360046633E+00
(PID.TID 0000.0001) %MON dynstat_theta_sd             =   4.5717743607078E+00
(PID.TID 0000.0001) %MON dynstat_theta_del2           =   2.6376821703658E-03
(PID.TID 0000.0001) %MON dynstat_salt_max             =   4.1346719317418E+01
(PID.TID 0000.0001) %MON dynstat_salt_min             =   1.8519304902780E+01
(PID.TID 0000.0001) %MON dynstat_salt_mean            =   3.4771885041603E+01
(PID.TID 0000.0001) %MON dynstat_salt_sd              =   5.3233904279313E-01
(PID.TID 0000.0001) %MON dynstat_salt_del2            =   1.1482906977255E-03
(PID.TID 0000.0001) %MON dynstat_sst_max              =   3.0921419967583E+01
(PID.TID 0000.0001) %MON dynstat_sst_min              =  -1.8975113551347E+00
(PID.TID 0000.0001) %MON dynstat_sst_mean             =   1.8110782740990E+01
(PID.TID 0000.0001) %MON dynstat_sst_sd               =   9.8154135107112E+00
(PID.TID 0000.0001) %MON dynstat_sst_del2             =   1.4957126273021E-02
(PID.TID 0000.0001) %MON dynstat_sss_max              =   4.1346719317418E+01
(PID.TID 0000.0001) %MON dynstat_sss_min              =   1.8752559365097E+01
(PID.TID 0000.0001) %MON dynstat_sss_mean             =   3.4619342149338E+01
(PID.TID 0000.0001) %MON dynstat_sss_sd               =   1.4922563536611E+00
(PID.TID 0000.0001) %MON dynstat_sss_del2             =   1.3062599780844E-02
(PID.TID 0000.0001) %MON forcing_qnet_max             =   1.3505133056641E+03
(PID.TID 0000.0001) %MON forcing_qnet_min             =  -7.8464031535299E+02
(PID.TID 0000.0001) %MON forcing_qnet_mean            =  -4.2833367379909E+01
(PID.TID 0000.0001) %MON forcing_qnet_sd              =   1.9968555783613E+02
(PID.TID 0000.0001) %MON forcing_qnet_del2            =   3.2220091341190E+00
(PID.TID 0000.0001) %MON forcing_qsw_max              =   0.0000000000000E+00
(PID.TID 0000.0001) %MON forcing_qsw_min              =  -1.0720052871380E+02
(PID.TID 0000.0001) %MON forcing_qsw_mean             =  -2.0764457437901E+01
(PID.TID 0000.0001) %MON forcing_qsw_sd               =   3.0084336093556E+01
(PID.TID 0000.0001) %MON forcing_qsw_del2             =   2.3766116398370E-01
(PID.TID 0000.0001) %MON forcing_empmr_max            =   4.3222852982581E-03
(PID.TID 0000.0001) %MON forcing_empmr_min            =  -6.2142740935087E-02
(PID.TID 0000.0001) %MON forcing_empmr_mean           =  -1.8986053250437E-04
(PID.TID 0000.0001) %MON forcing_empmr_sd             =   2.7409553108833E-03
(PID.TID 0000.0001) %MON forcing_empmr_del2           =   1.0769935292960E-04
(PID.TID 0000.0001) %MON forcing_fu_max               =   2.3673176694048E-01
(PID.TID 0000.0001) %MON forcing_fu_min               =  -3.3791031320687E-01
(PID.TID 0000.0001) %MON forcing_fu_mean              =  -5.2070382160218E-03
(PID.TID 0000.0001) %MON forcing_fu_sd                =   5.5622203024959E-02
(PID.TID 0000.0001) %MON forcing_fu_del2              =   5.5904643402888E-04
(PID.TID 0000.0001) %MON forcing_fv_max               =   2.4102253000834E-01
(PID.TID 0000.0001) %MON forcing_fv_min               =  -2.5458566683817E-01
(PID.TID 0000.0001) %MON forcing_fv_mean              =  -1.4956501174006E-02
(PID.TID 0000.0001) %MON forcing_fv_sd                =   5.9125962322723E-02
(PID.TID 0000.0001) %MON forcing_fv_del2              =   4.9550129666703E-04
(PID.TID 0000.0001) %MON trAdv_CFL_u_max              =   1.9299664975174E-03
(PID.TID 0000.0001) %MON trAdv_CFL_v_max              =   1.1379808313721E-03
(PID.TID 0000.0001) %MON trAdv_CFL_w_max              =   1.2734991505263E-03
(PID.TID 0000.0001) %MON advcfl_uvel_max              =   1.9120034659516E-03
(PID.TID 0000.0001) %MON advcfl_vvel_max              =   1.1390243689673E-03
(PID.TID 0000.0001) %MON advcfl_wvel_max              =   2.1614866412204E-03
(PID.TID 0000.0001) %MON advcfl_W_hf_max              =   1.2734991505263E-03
(PID.TID 0000.0001) %MON pe_b_mean                    =   4.9782285382895E-04
(PID.TID 0000.0001) %MON ke_max                       =   1.9184080880821E-01
(PID.TID 0000.0001) %MON ke_mean                      =   1.6324076752726E-04
(PID.TID 0000.0001) %MON ke_vol                       =   1.3398152708896E+18
(PID.TID 0000.0001) %MON vort_r_min                   =  -2.5203821877753E-06
(PID.TID 0000.0001) %MON vort_r_max                   =   2.5399248855083E-06
(PID.TID 0000.0001) %MON vort_a_mean                  =  -2.0549865324846E-05
(PID.TID 0000.0001) %MON vort_a_sd                    =   7.5259655295659E-05
(PID.TID 0000.0001) %MON vort_p_mean                  =  -2.4783227389933E-05
(PID.TID 0000.0001) %MON vort_p_sd                    =   1.2811923532308E-04
(PID.TID 0000.0001) %MON surfExpan_theta_mean         =  -3.9805725301252E-06
(PID.TID 0000.0001) %MON surfExpan_salt_mean          =   8.4595491798736E-07
(PID.TID 0000.0001) // =======================================================
(PID.TID 0000.0001) // End MONITOR dynamic field statistics
(PID.TID 0000.0001) // =======================================================
 cg2d: Sum(rhs),rhsMax =  -8.43831158215270E+01  3.62813591527271E+01
(PID.TID 0000.0001)      cg2d_init_res =   1.71442054712728E-01
(PID.TID 0000.0001)      cg2d_iters(min,last) =      -1      10
(PID.TID 0000.0001)      cg2d_last_res =   3.54107561088315E-08
(PID.TID 0000.0001) // =======================================================
(PID.TID 0000.0001) // Begin MONITOR dynamic field statistics
(PID.TID 0000.0001) // =======================================================
(PID.TID 0000.0001) %MON time_tsnumber                =                 72093
(PID.TID 0000.0001) %MON time_secondsf                =   6.4883700000000E+07
(PID.TID 0000.0001) %MON dynstat_eta_max              =   9.6493535383252E-01
(PID.TID 0000.0001) %MON dynstat_eta_min              =  -1.5618632458391E+00
(PID.TID 0000.0001) %MON dynstat_eta_mean             =   3.5574620738920E-02
(PID.TID 0000.0001) %MON dynstat_eta_sd               =   6.1009306578672E-01
(PID.TID 0000.0001) %MON dynstat_eta_del2             =   1.2893429086702E-03
(PID.TID 0000.0001) %MON dynstat_uvel_max             =   3.2849944374726E-01
(PID.TID 0000.0001) %MON dynstat_uvel_min             =  -6.4676128716959E-01
(PID.TID 0000.0001) %MON dynstat_uvel_mean            =  -5.2095726486017E-04
(PID.TID 0000.0001) %MON dynstat_uvel_sd              =   1.2861950887435E-02
(PID.TID 0000.0001) %MON dynstat_uvel_del2            =   8.5559566586963E-05
(PID.TID 0000.0001) %MON dynstat_vvel_max             =   3.3181054027185E-01
(PID.TID 0000.0001) %MON dynstat_vvel_min             =  -3.4332908873752E-01
(PID.TID 0000.0001) %MON dynstat_vvel_mean            =   1.3466512667820E-04
(PID.TID 0000.0001) %MON dynstat_vvel_sd              =   1.3690528845347E-02
(PID.TID 0000.0001) %MON dynstat_vvel_del2            =   8.5064170838261E-05
(PID.TID 0000.0001) %MON dynstat_wvel_max             =   1.0675228569208E-04
(PID.TID 0000.0001) %MON dynstat_wvel_min             =  -1.9275392786225E-04
(PID.TID 0000.0001) %MON dynstat_wvel_mean            =  -4.3369096768028E-08
(PID.TID 0000.0001) %MON dynstat_wvel_sd              =   7.6012327030574E-06
(PID.TID 0000.0001) %MON dynstat_wvel_del2            =   6.4493564484830E-08
(PID.TID 0000.0001) %MON dynstat_theta_max            =   3.0921142368588E+01
(PID.TID 0000.0001) %MON dynstat_theta_min            =  -3.0205188935932E+00
(PID.TID 0000.0001) %MON dynstat_theta_mean           =   3.9092397291205E+00
(PID.TID 0000.0001) %MON dynstat_theta_sd             =   4.5717899497630E+00
(PID.TID 0000.0001) %MON dynstat_theta_del2           =   2.6375486116375E-03
(PID.TID 0000.0001) %MON dynstat_salt_max             =   4.1346772762569E+01
(PID.TID 0000.0001) %MON dynstat_salt_min             =   1.8519315029699E+01
(PID.TID 0000.0001) %MON dynstat_salt_mean            =   3.4771883678626E+01
(PID.TID 0000.0001) %MON dynstat_salt_sd              =   5.3234813246705E-01
(PID.TID 0000.0001) %MON dynstat_salt_del2            =   1.1500841816717E-03
(PID.TID 0000.0001) %MON dynstat_sst_max              =   3.0921142368588E+01
(PID.TID 0000.0001) %MON dynstat_sst_min              =  -1.8973979772826E+00
(PID.TID 0000.0001) %MON dynstat_sst_mean             =   1.8110978590977E+01
(PID.TID 0000.0001) %MON dynstat_sst_sd               =   9.8156119014272E+00
(PID.TID 0000.0001) %MON dynstat_sst_del2             =   1.4954603833821E-02
(PID.TID 0000.0001) %MON dynstat_sss_max              =   4.1346772762569E+01
(PID.TID 0000.0001) %MON dynstat_sss_min              =   1.8752572552877E+01
(PID.TID 0000.0001) %MON dynstat_sss_mean             =   3.4619238971759E+01
(PID.TID 0000.0001) %MON dynstat_sss_sd               =   1.4924797019020E+00
(PID.TID 0000.0001) %MON dynstat_sss_del2             =   1.3087557810920E-02
(PID.TID 0000.0001) %MON forcing_qnet_max             =   1.3348503417969E+03
(PID.TID 0000.0001) %MON forcing_qnet_min             =  -7.7397983136000E+02
(PID.TID 0000.0001) %MON forcing_qnet_mean            =  -4.6207143111536E+01
(PID.TID 0000.0001) %MON forcing_qnet_sd              =   2.0321370559558E+02
(PID.TID 0000.0001) %MON forcing_qnet_del2            =   3.2011162187024E+00
(PID.TID 0000.0001) %MON forcing_qsw_max              =   0.0000000000000E+00
(PID.TID 0000.0001) %MON forcing_qsw_min              =  -1.0627549463257E+02
(PID.TID 0000.0001) %MON forcing_qsw_mean             =  -2.1275886692758E+01
(PID.TID 0000.0001) %MON forcing_qsw_sd               =   3.0399416197022E+01
(PID.TID 0000.0001) %MON forcing_qsw_del2             =   2.3988639283474E-01
(PID.TID 0000.0001) %MON forcing_empmr_max            =   4.2778067290783E-03
(PID.TID 0000.0001) %MON forcing_empmr_min            =  -6.1503361910582E-02
(PID.TID 0000.0001) %MON forcing_empmr_mean           =  -1.8813273993766E-04
(PID.TID 0000.0001) %MON forcing_empmr_sd             =   2.7133224638515E-03
(PID.TID 0000.0001) %MON forcing_empmr_del2           =   1.0659360517012E-04
(PID.TID 0000.0001) %MON forcing_fu_max               =   2.4129645424405E-01
(PID.TID 0000.0001) %MON forcing_fu_min               =  -3.3778426312387E-01
(PID.TID 0000.0001) %MON forcing_fu_mean              =  -5.2867618159797E-03
(PID.TID 0000.0001) %MON forcing_fu_sd                =   5.5480445279788E-02
(PID.TID 0000.0001) %MON forcing_fu_del2              =   5.5778686375640E-04
(PID.TID 0000.0001) %MON forcing_fv_max               =   2.3613220407252E-01
(PID.TID 0000.0001) %MON forcing_fv_min               =  -2.5456081068595E-01
(PID.TID 0000.0001) %MON forcing_fv_mean              =  -1.4943760750141E-02
(PID.TID 0000.0001) %MON forcing_fv_sd                =   5.8923257519288E-02
(PID.TID 0000.0001) %MON forcing_fv_del2              =   4.9342006262833E-04
(PID.TID 0000.0001) %MON trAdv_CFL_u_max              =   1.8847971346170E-03
(PID.TID 0000.0001) %MON trAdv_CFL_v_max              =   1.2170047311626E-03
(PID.TID 0000.0001) %MON trAdv_CFL_w_max              =   1.2626290996321E-03
(PID.TID 0000.0001) %MON advcfl_uvel_max              =   1.8658028574508E-03
(PID.TID 0000.0001) %MON advcfl_vvel_max              =   1.1749226233170E-03
(PID.TID 0000.0001) %MON advcfl_wvel_max              =   2.1392473708028E-03
(PID.TID 0000.0001) %MON advcfl_W_hf_max              =   1.2626290996321E-03
(PID.TID 0000.0001) %MON pe_b_mean                    =   4.9753839699515E-04
(PID.TID 0000.0001) %MON ke_max                       =   1.8929591964781E-01
(PID.TID 0000.0001) %MON ke_mean                      =   1.6309030399693E-04
(PID.TID 0000.0001) %MON ke_vol                       =   1.3398153309659E+18
(PID.TID 0000.0001) %MON vort_r_min                   =  -2.5646235486058E-06
(PID.TID 0000.0001) %MON vort_r_max                   =   2.4711996429750E-06
(PID.TID 0000.0001) %MON vort_a_mean                  =  -2.0549865324846E-05
(PID.TID 0000.0001) %MON vort_a_sd                    =   7.5259655225857E-05
(PID.TID 0000.0001) %MON vort_p_mean                  =  -2.4783226332974E-05
(PID.TID 0000.0001) %MON vort_p_sd                    =   1.2811923687994E-04
(PID.TID 0000.0001) %MON surfExpan_theta_mean         =  -3.8874701398467E-06
(PID.TID 0000.0001) %MON surfExpan_salt_mean          =   8.2749831853029E-07
(PID.TID 0000.0001) // =======================================================
(PID.TID 0000.0001) // End MONITOR dynamic field statistics
(PID.TID 0000.0001) // =======================================================
 cg2d: Sum(rhs),rhsMax =  -8.47189544718736E+01  3.63019119716662E+01
(PID.TID 0000.0001)      cg2d_init_res =   1.66942363064221E-01
(PID.TID 0000.0001)      cg2d_iters(min,last) =      -1      10
(PID.TID 0000.0001)      cg2d_last_res =   3.38034948682177E-08
(PID.TID 0000.0001) // =======================================================
(PID.TID 0000.0001) // Begin MONITOR dynamic field statistics
(PID.TID 0000.0001) // =======================================================
(PID.TID 0000.0001) %MON time_tsnumber                =                 72094
(PID.TID 0000.0001) %MON time_secondsf                =   6.4884600000000E+07
(PID.TID 0000.0001) %MON dynstat_eta_max              =   9.6067439770929E-01
(PID.TID 0000.0001) %MON dynstat_eta_min              =  -1.5631613119259E+00
(PID.TID 0000.0001) %MON dynstat_eta_mean             =   3.5736437804538E-02
(PID.TID 0000.0001) %MON dynstat_eta_sd               =   6.0988296607014E-01
(PID.TID 0000.0001) %MON dynstat_eta_del2             =   1.2981138331158E-03
(PID.TID 0000.0001) %MON dynstat_uvel_max             =   3.1282272604233E-01
(PID.TID 0000.0001) %MON dynstat_uvel_min             =  -6.2870239015277E-01
(PID.TID 0000.0001) %MON dynstat_uvel_mean            =  -5.2673711020634E-04
(PID.TID 0000.0001) %MON dynstat_uvel_sd              =   1.2856784778939E-02
(PID.TID 0000.0001) %MON dynstat_uvel_del2            =   8.5480477697698E-05
(PID.TID 0000.0001) %MON dynstat_vvel_max             =   3.5793164167938E-01
(PID.TID 0000.0001) %MON dynstat_vvel_min             =  -3.4498589235277E-01
(PID.TID 0000.0001) %MON dynstat_vvel_mean            =   1.3813139443749E-04
(PID.TID 0000.0001) %MON dynstat_vvel_sd              =   1.3684561046134E-02
(PID.TID 0000.0001) %MON dynstat_vvel_del2            =   8.4829733312979E-05
(PID.TID 0000.0001) %MON dynstat_wvel_max             =   1.0698007265010E-04
(PID.TID 0000.0001) %MON dynstat_wvel_min             =  -1.9289238196800E-04
(PID.TID 0000.0001) %MON dynstat_wvel_mean            =  -4.3435507726631E-08
(PID.TID 0000.0001) %MON dynstat_wvel_sd              =   7.6092554413997E-06
(PID.TID 0000.0001) %MON dynstat_wvel_del2            =   6.4285203753667E-08
(PID.TID 0000.0001) %MON dynstat_theta_max            =   3.0920855817252E+01
(PID.TID 0000.0001) %MON dynstat_theta_min            =  -3.0212071778001E+00
(PID.TID 0000.0001) %MON dynstat_theta_mean           =   3.9092435693287E+00
(PID.TID 0000.0001) %MON dynstat_theta_sd             =   4.5718061419029E+00
(PID.TID 0000.0001) %MON dynstat_theta_del2           =   2.6374152647574E-03
(PID.TID 0000.0001) %MON dynstat_salt_max             =   4.1346841981145E+01
(PID.TID 0000.0001) %MON dynstat_salt_min             =   1.8519325163403E+01
(PID.TID 0000.0001) %MON dynstat_salt_mean            =   3.4771882342836E+01
(PID.TID 0000.0001) %MON dynstat_salt_sd              =   5.3235708546174E-01
(PID.TID 0000.0001) %MON dynstat_salt_del2            =   1.1518357035427E-03
(PID.TID 0000.0001) %MON dynstat_sst_max              =   3.0920855817252E+01
(PID.TID 0000.0001) %MON dynstat_sst_min              =  -1.8972932954263E+00
(PID.TID 0000.0001) %MON dynstat_sst_mean             =   1.8111185513813E+01
(PID.TID 0000.0001) %MON dynstat_sst_sd               =   9.8158172840119E+00
(PID.TID 0000.0001) %MON dynstat_sst_del2             =   1.4952091856485E-02
(PID.TID 0000.0001) %MON dynstat_sss_max              =   4.1346841981145E+01
(PID.TID 0000.0001) %MON dynstat_sss_min              =   1.8752585581897E+01
(PID.TID 0000.0001) %MON dynstat_sss_mean             =   3.4619138182698E+01
(PID.TID 0000.0001) %MON dynstat_sss_sd               =   1.4926993802665E+00
(PID.TID 0000.0001) %MON dynstat_sss_del2             =   1.3111924231779E-02
(PID.TID 0000.0001) %MON forcing_qnet_max             =   1.3201787109375E+03
(PID.TID 0000.0001) %MON forcing_qnet_min             =  -7.6301048470112E+02
(PID.TID 0000.0001) %MON forcing_qnet_mean            =  -4.8331997744017E+01
(PID.TID 0000.0001) %MON forcing_qnet_sd              =   2.0535375906556E+02
(PID.TID 0000.0001) %MON forcing_qnet_del2            =   3.1862588558715E+00
(PID.TID 0000.0001) %MON forcing_qsw_max              =   0.0000000000000E+00
(PID.TID 0000.0001) %MON forcing_qsw_min              =  -1.0493385499878E+02
(PID.TID 0000.0001) %MON forcing_qsw_mean             =  -2.1504312501308E+01
(PID.TID 0000.0001) %MON forcing_qsw_sd               =   3.0514748085462E+01
(PID.TID 0000.0001) %MON forcing_qsw_del2             =   2.4125443407556E-01
(PID.TID 0000.0001) %MON forcing_empmr_max            =   4.2337221093476E-03
(PID.TID 0000.0001) %MON forcing_empmr_min            =  -6.0869850218296E-02
(PID.TID 0000.0001) %MON forcing_empmr_mean           =  -1.8608962545948E-04
(PID.TID 0000.0001) %MON forcing_empmr_sd             =   2.6857838477457E-03
(PID.TID 0000.0001) %MON forcing_empmr_del2           =   1.0543003926896E-04
(PID.TID 0000.0001) %MON forcing_fu_max               =   2.4238988115581E-01
(PID.TID 0000.0001) %MON forcing_fu_min               =  -3.3647878091861E-01
(PID.TID 0000.0001) %MON forcing_fu_mean              =  -5.3534754405388E-03
(PID.TID 0000.0001) %MON forcing_fu_sd                =   5.5307086633190E-02
(PID.TID 0000.0001) %MON forcing_fu_del2              =   5.5668955836484E-04
(PID.TID 0000.0001) %MON forcing_fv_max               =   2.3176868046967E-01
(PID.TID 0000.0001) %MON forcing_fv_min               =  -2.5331570812278E-01
(PID.TID 0000.0001) %MON forcing_fv_mean              =  -1.4930480456294E-02
(PID.TID 0000.0001) %MON forcing_fv_sd                =   5.8761632581372E-02
(PID.TID 0000.0001) %MON forcing_fv_del2              =   4.9236754639750E-04
(PID.TID 0000.0001) %MON trAdv_CFL_u_max              =   1.8335735864716E-03
(PID.TID 0000.0001) %MON trAdv_CFL_v_max              =   1.3125725267350E-03
(PID.TID 0000.0001) %MON trAdv_CFL_w_max              =   1.2492400289080E-03
(PID.TID 0000.0001) %MON advcfl_uvel_max              =   1.8137058282612E-03
(PID.TID 0000.0001) %MON advcfl_vvel_max              =   1.2674159870435E-03
(PID.TID 0000.0001) %MON advcfl_wvel_max              =   2.1172121815059E-03
(PID.TID 0000.0001) %MON advcfl_W_hf_max              =   1.2492400289080E-03
(PID.TID 0000.0001) %MON pe_b_mean                    =   4.9721228947900E-04
(PID.TID 0000.0001) %MON ke_max                       =   1.8570546577882E-01
(PID.TID 0000.0001) %MON ke_mean                      =   1.6295669143094E-04
(PID.TID 0000.0001) %MON ke_vol                       =   1.3398153904954E+18
(PID.TID 0000.0001) %MON vort_r_min                   =  -2.6070930492290E-06
(PID.TID 0000.0001) %MON vort_r_max                   =   2.3954107152101E-06
(PID.TID 0000.0001) %MON vort_a_mean                  =  -2.0549865324846E-05
(PID.TID 0000.0001) %MON vort_a_sd                    =   7.5259655502674E-05
(PID.TID 0000.0001) %MON vort_p_mean                  =  -2.4783225288313E-05
(PID.TID 0000.0001) %MON vort_p_sd                    =   1.2811923718053E-04
(PID.TID 0000.0001) %MON surfExpan_theta_mean         =  -3.7935400593372E-06
(PID.TID 0000.0001) %MON surfExpan_salt_mean          =   8.0936696034862E-07
(PID.TID 0000.0001) // =======================================================
(PID.TID 0000.0001) // End MONITOR dynamic field statistics
(PID.TID 0000.0001) // =======================================================
 cg2d: Sum(rhs),rhsMax =  -8.50469272160065E+01  3.63234773081774E+01
(PID.TID 0000.0001)      cg2d_init_res =   1.62540073639111E-01
(PID.TID 0000.0001)      cg2d_iters(min,last) =      -1      10
(PID.TID 0000.0001)      cg2d_last_res =   3.23988045703034E-08
(PID.TID 0000.0001) // =======================================================
(PID.TID 0000.0001) // Begin MONITOR dynamic field statistics
(PID.TID 0000.0001) // =======================================================
(PID.TID 0000.0001) %MON time_tsnumber                =                 72095
(PID.TID 0000.0001) %MON time_secondsf                =   6.4885500000000E+07
(PID.TID 0000.0001) %MON dynstat_eta_max              =   9.5621771614090E-01
(PID.TID 0000.0001) %MON dynstat_eta_min              =  -1.5646052301689E+00
(PID.TID 0000.0001) %MON dynstat_eta_mean             =   3.5896095983247E-02
(PID.TID 0000.0001) %MON dynstat_eta_sd               =   6.0964518259771E-01
(PID.TID 0000.0001) %MON dynstat_eta_del2             =   1.3052364660475E-03
(PID.TID 0000.0001) %MON dynstat_uvel_max             =   2.9785195930570E-01
(PID.TID 0000.0001) %MON dynstat_uvel_min             =  -6.0870742777509E-01
(PID.TID 0000.0001) %MON dynstat_uvel_mean            =  -5.3195218700849E-04
(PID.TID 0000.0001) %MON dynstat_uvel_sd              =   1.2852208669671E-02
(PID.TID 0000.0001) %MON dynstat_uvel_del2            =   8.5371813009264E-05
(PID.TID 0000.0001) %MON dynstat_vvel_max             =   3.8285706313865E-01
(PID.TID 0000.0001) %MON dynstat_vvel_min             =  -3.4661941005863E-01
(PID.TID 0000.0001) %MON dynstat_vvel_mean            =   1.4344367420938E-04
(PID.TID 0000.0001) %MON dynstat_vvel_sd              =   1.3679767398400E-02
(PID.TID 0000.0001) %MON dynstat_vvel_del2            =   8.4739683403012E-05
(PID.TID 0000.0001) %MON dynstat_wvel_max             =   1.0719165788190E-04
(PID.TID 0000.0001) %MON dynstat_wvel_min             =  -1.9302420634056E-04
(PID.TID 0000.0001) %MON dynstat_wvel_mean            =  -4.3723529671967E-08
(PID.TID 0000.0001) %MON dynstat_wvel_sd              =   7.6192451106360E-06
(PID.TID 0000.0001) %MON dynstat_wvel_del2            =   6.4098638672768E-08
(PID.TID 0000.0001) %MON dynstat_theta_max            =   3.0920561466040E+01
(PID.TID 0000.0001) %MON dynstat_theta_min            =  -3.0219107019929E+00
(PID.TID 0000.0001) %MON dynstat_theta_mean           =   3.9092474931935E+00
(PID.TID 0000.0001) %MON dynstat_theta_sd             =   4.5718227967677E+00
(PID.TID 0000.0001) %MON dynstat_theta_del2           =   2.6372804435274E-03
(PID.TID 0000.0001) %MON dynstat_salt_max             =   4.1346928154177E+01
(PID.TID 0000.0001) %MON dynstat_salt_min             =   1.8519335303386E+01
(PID.TID 0000.0001) %MON dynstat_salt_mean            =   3.4771881038780E+01
(PID.TID 0000.0001) %MON dynstat_salt_sd              =   5.3236591537622E-01
(PID.TID 0000.0001) %MON dynstat_salt_del2            =   1.1535460021895E-03
(PID.TID 0000.0001) %MON dynstat_sst_max              =   3.0920561466040E+01
(PID.TID 0000.0001) %MON dynstat_sst_min              =  -1.8971984340463E+00
(PID.TID 0000.0001) %MON dynstat_sst_mean             =   1.8111402535742E+01
(PID.TID 0000.0001) %MON dynstat_sst_sd               =   9.8160269620380E+00
(PID.TID 0000.0001) %MON dynstat_sst_del2             =   1.4949559336538E-02
(PID.TID 0000.0001) %MON dynstat_sss_max              =   4.1346928154177E+01
(PID.TID 0000.0001) %MON dynstat_sss_min              =   1.8752598455493E+01
(PID.TID 0000.0001) %MON dynstat_sss_mean             =   3.4619040235102E+01
(PID.TID 0000.0001) %MON dynstat_sss_sd               =   1.4929159723423E+00
(PID.TID 0000.0001) %MON dynstat_sss_del2             =   1.3135712410270E-02
(PID.TID 0000.0001) %MON forcing_qnet_max             =   1.3056018771799E+03
(PID.TID 0000.0001) %MON forcing_qnet_min             =  -7.5276848747940E+02
(PID.TID 0000.0001) %MON forcing_qnet_mean            =  -4.9935990662659E+01
(PID.TID 0000.0001) %MON forcing_qnet_sd              =   2.0702120766286E+02
(PID.TID 0000.0001) %MON forcing_qnet_del2            =   3.1266715449925E+00
(PID.TID 0000.0001) %MON forcing_qsw_max              =   0.0000000000000E+00
(PID.TID 0000.0001) %MON forcing_qsw_min              =  -1.0315953738560E+02
(PID.TID 0000.0001) %MON forcing_qsw_mean             =  -2.1674903428956E+01
(PID.TID 0000.0001) %MON forcing_qsw_sd               =   3.0574850867479E+01
(PID.TID 0000.0001) %MON forcing_qsw_del2             =   2.4209844952780E-01
(PID.TID 0000.0001) %MON forcing_empmr_max            =   4.1900309734046E-03
(PID.TID 0000.0001) %MON forcing_empmr_min            =  -6.0243051499128E-02
(PID.TID 0000.0001) %MON forcing_empmr_mean           =  -1.8360690551663E-04
(PID.TID 0000.0001) %MON forcing_empmr_sd             =   2.6587343431824E-03
(PID.TID 0000.0001) %MON forcing_empmr_del2           =   1.0431945845006E-04
(PID.TID 0000.0001) %MON forcing_fu_max               =   2.4105236156147E-01
(PID.TID 0000.0001) %MON forcing_fu_min               =  -3.3731920990527E-01
(PID.TID 0000.0001) %MON forcing_fu_mean              =  -5.4394083185645E-03
(PID.TID 0000.0001) %MON forcing_fu_sd                =   5.5190318916601E-02
(PID.TID 0000.0001) %MON forcing_fu_del2              =   5.5579309451216E-04
(PID.TID 0000.0001) %MON forcing_fv_max               =   2.4203842423611E-01
(PID.TID 0000.0001) %MON forcing_fv_min               =  -2.5169072753287E-01
(PID.TID 0000.0001) %MON forcing_fv_mean              =  -1.4905644016709E-02
(PID.TID 0000.0001) %MON forcing_fv_sd                =   5.8664333196363E-02
(PID.TID 0000.0001) %MON forcing_fv_del2              =   4.9208595709744E-04
(PID.TID 0000.0001) %MON trAdv_CFL_u_max              =   1.7765877698165E-03
(PID.TID 0000.0001) %MON trAdv_CFL_v_max              =   1.4039030930126E-03
(PID.TID 0000.0001) %MON trAdv_CFL_w_max              =   1.2342999342462E-03
(PID.TID 0000.0001) %MON advcfl_uvel_max              =   1.7560235601988E-03
(PID.TID 0000.0001) %MON advcfl_vvel_max              =   1.3556755147373E-03
(PID.TID 0000.0001) %MON advcfl_wvel_max              =   2.0954104869262E-03
(PID.TID 0000.0001) %MON advcfl_W_hf_max              =   1.2342999342462E-03
(PID.TID 0000.0001) %MON pe_b_mean                    =   4.9684119525959E-04
(PID.TID 0000.0001) %MON ke_max                       =   1.8112709092670E-01
(PID.TID 0000.0001) %MON ke_mean                      =   1.6284501550522E-04
(PID.TID 0000.0001) %MON ke_vol                       =   1.3398154493785E+18
(PID.TID 0000.0001) %MON vort_r_min                   =  -2.6475095434963E-06
(PID.TID 0000.0001) %MON vort_r_max                   =   2.3132003031333E-06
(PID.TID 0000.0001) %MON vort_a_mean                  =  -2.0549865324846E-05
(PID.TID 0000.0001) %MON vort_a_sd                    =   7.5259656087155E-05
(PID.TID 0000.0001) %MON vort_p_mean                  =  -2.4783224256417E-05
(PID.TID 0000.0001) %MON vort_p_sd                    =   1.2811923613447E-04
(PID.TID 0000.0001) %MON surfExpan_theta_mean         =  -3.7004183876838E-06
(PID.TID 0000.0001) %MON surfExpan_salt_mean          =   7.9290753983602E-07
(PID.TID 0000.0001) // =======================================================
(PID.TID 0000.0001) // End MONITOR dynamic field statistics
(PID.TID 0000.0001) // =======================================================
 Computing Diagnostic #     81  oceTAUX      Counter:       1   Parms: UU      U1      
           Vector  Mate for  oceTAUX      Diagnostic #     82  oceTAUY  exists 
 Computing Diagnostic #     82  oceTAUY      Counter:       1   Parms: VV      U1      
           Vector  Mate for  oceTAUY      Diagnostic #     81  oceTAUX  exists 
 Computing Diagnostic #     85  oceFWflx     Counter:       1   Parms: SM      U1      
 Computing Diagnostic #     86  oceSflux     Counter:       1   Parms: SM      U1      
 Computing Diagnostic #     87  oceQnet      Counter:       1   Parms: SM      U1      
 Computing Diagnostic #     88  oceQsw       Counter:       1   Parms: SM      U1      
 Computing Diagnostic #     27  SALT         Counter:       1   Parms: SMR     MR      
 Computing Diagnostic #     26  THETA        Counter:       1   Parms: SMR     MR      
 Computing Diagnostic #     45  UVELMASS     Counter:       1   Parms: UUr     MR      
           Vector  Mate for  UVELMASS     Diagnostic #     46  VVELMASS exists 
 Computing Diagnostic #     46  VVELMASS     Counter:       1   Parms: VVr     MR      
           Vector  Mate for  VVELMASS     Diagnostic #     45  UVELMASS exists 
 Computing Diagnostic #     83  atmPload     Counter:       1   Parms: SM      U1      
 cg2d: Sum(rhs),rhsMax =  -8.53737571017955E+01  3.63447246560133E+01
(PID.TID 0000.0001)      cg2d_init_res =   1.58341674507978E-01
(PID.TID 0000.0001)      cg2d_iters(min,last) =      -1      10
(PID.TID 0000.0001)      cg2d_last_res =   3.34048088138393E-08
(PID.TID 0000.0001) // =======================================================
(PID.TID 0000.0001) // Begin MONITOR dynamic field statistics
(PID.TID 0000.0001) // =======================================================
(PID.TID 0000.0001) %MON time_tsnumber                =                 72096
(PID.TID 0000.0001) %MON time_secondsf                =   6.4886400000000E+07
(PID.TID 0000.0001) %MON dynstat_eta_max              =   9.5163160493184E-01
(PID.TID 0000.0001) %MON dynstat_eta_min              =  -1.5661889894754E+00
(PID.TID 0000.0001) %MON dynstat_eta_mean             =   3.6055120420918E-02
(PID.TID 0000.0001) %MON dynstat_eta_sd               =   6.0938040379247E-01
(PID.TID 0000.0001) %MON dynstat_eta_del2             =   1.3098625326434E-03
(PID.TID 0000.0001) %MON dynstat_uvel_max             =   2.8400407943404E-01
(PID.TID 0000.0001) %MON dynstat_uvel_min             =  -5.9105673054238E-01
(PID.TID 0000.0001) %MON dynstat_uvel_mean            =  -5.3665721160398E-04
(PID.TID 0000.0001) %MON dynstat_uvel_sd              =   1.2848218655944E-02
(PID.TID 0000.0001) %MON dynstat_uvel_del2            =   8.5239690265841E-05
(PID.TID 0000.0001) %MON dynstat_vvel_max             =   4.0609557422549E-01
(PID.TID 0000.0001) %MON dynstat_vvel_min             =  -3.4823177502371E-01
(PID.TID 0000.0001) %MON dynstat_vvel_mean            =   1.5040038656195E-04
(PID.TID 0000.0001) %MON dynstat_vvel_sd              =   1.3676375844251E-02
(PID.TID 0000.0001) %MON dynstat_vvel_del2            =   8.4789366490330E-05
(PID.TID 0000.0001) %MON dynstat_wvel_max             =   1.0739644198794E-04
(PID.TID 0000.0001) %MON dynstat_wvel_min             =  -1.9314148373440E-04
(PID.TID 0000.0001) %MON dynstat_wvel_mean            =  -4.5293211986256E-08
(PID.TID 0000.0001) %MON dynstat_wvel_sd              =   7.6300301591874E-06
(PID.TID 0000.0001) %MON dynstat_wvel_del2            =   6.3928779147723E-08
(PID.TID 0000.0001) %MON dynstat_theta_max            =   3.0920260443381E+01
(PID.TID 0000.0001) %MON dynstat_theta_min            =  -3.0226294741224E+00
(PID.TID 0000.0001) %MON dynstat_theta_mean           =   3.9092514779587E+00
(PID.TID 0000.0001) %MON dynstat_theta_sd             =   4.5718397473159E+00
(PID.TID 0000.0001) %MON dynstat_theta_del2           =   2.6371455283589E-03
(PID.TID 0000.0001) %MON dynstat_salt_max             =   4.1347032168163E+01
(PID.TID 0000.0001) %MON dynstat_salt_min             =   1.8519345449423E+01
(PID.TID 0000.0001) %MON dynstat_salt_mean            =   3.4771879747073E+01
(PID.TID 0000.0001) %MON dynstat_salt_sd              =   5.3237461961964E-01
(PID.TID 0000.0001) %MON dynstat_salt_del2            =   1.1552163780628E-03
(PID.TID 0000.0001) %MON dynstat_sst_max              =   3.0920260443381E+01
(PID.TID 0000.0001) %MON dynstat_sst_min              =  -1.8971143300566E+00
(PID.TID 0000.0001) %MON dynstat_sst_mean             =   1.8111624989815E+01
(PID.TID 0000.0001) %MON dynstat_sst_sd               =   9.8162394179417E+00
(PID.TID 0000.0001) %MON dynstat_sst_del2             =   1.4947004942670E-02
(PID.TID 0000.0001) %MON dynstat_sss_max              =   4.1347032168163E+01
(PID.TID 0000.0001) %MON dynstat_sss_min              =   1.8752611177564E+01
(PID.TID 0000.0001) %MON dynstat_sss_mean             =   3.4618943345621E+01
(PID.TID 0000.0001) %MON dynstat_sss_sd               =   1.4931291564297E+00
(PID.TID 0000.0001) %MON dynstat_sss_del2             =   1.3158938647631E-02
(PID.TID 0000.0001) %MON forcing_qnet_max             =   1.2910950010146E+03
(PID.TID 0000.0001) %MON forcing_qnet_min             =  -7.4272741589261E+02
(PID.TID 0000.0001) %MON forcing_qnet_mean            =  -5.0879978980835E+01
(PID.TID 0000.0001) %MON forcing_qnet_sd              =   2.0910558609858E+02
(PID.TID 0000.0001) %MON forcing_qnet_del2            =   3.1548132090034E+00
(PID.TID 0000.0001) %MON forcing_qsw_max              =   0.0000000000000E+00
(PID.TID 0000.0001) %MON forcing_qsw_min              =  -1.0423199929232E+02
(PID.TID 0000.0001) %MON forcing_qsw_mean             =  -2.1784628407836E+01
(PID.TID 0000.0001) %MON forcing_qsw_sd               =   3.0579776109168E+01
(PID.TID 0000.0001) %MON forcing_qsw_del2             =   2.4239854618168E-01
(PID.TID 0000.0001) %MON forcing_empmr_max            =   4.1469298303127E-03
(PID.TID 0000.0001) %MON forcing_empmr_min            =  -5.9623807668686E-02
(PID.TID 0000.0001) %MON forcing_empmr_mean           =  -1.8287810332099E-04
(PID.TID 0000.0001) %MON forcing_empmr_sd             =   2.6321077507603E-03
(PID.TID 0000.0001) %MON forcing_empmr_del2           =   1.0323424129569E-04
(PID.TID 0000.0001) %MON forcing_fu_max               =   2.4894411158614E-01
(PID.TID 0000.0001) %MON forcing_fu_min               =  -3.3848038361166E-01
(PID.TID 0000.0001) %MON forcing_fu_mean              =  -5.5253828080944E-03
(PID.TID 0000.0001) %MON forcing_fu_sd                =   5.5183933159046E-02
(PID.TID 0000.0001) %MON forcing_fu_del2              =   5.5585488608024E-04
(PID.TID 0000.0001) %MON forcing_fv_max               =   2.3786927607188E-01
(PID.TID 0000.0001) %MON forcing_fv_min               =  -2.4992036612368E-01
(PID.TID 0000.0001) %MON forcing_fv_mean              =  -1.4901497532120E-02
(PID.TID 0000.0001) %MON forcing_fv_sd                =   5.8471338730447E-02
(PID.TID 0000.0001) %MON forcing_fv_del2              =   4.9063103875180E-04
(PID.TID 0000.0001) %MON trAdv_CFL_u_max              =   1.7141793645805E-03
(PID.TID 0000.0001) %MON trAdv_CFL_v_max              =   1.4892249568205E-03
(PID.TID 0000.0001) %MON trAdv_CFL_w_max              =   1.2187287333687E-03
(PID.TID 0000.0001) %MON advcfl_uvel_max              =   1.6931116288823E-03
(PID.TID 0000.0001) %MON advcfl_vvel_max              =   1.4379617868544E-03
(PID.TID 0000.0001) %MON advcfl_wvel_max              =   2.0738715710847E-03
(PID.TID 0000.0001) %MON advcfl_W_hf_max              =   1.2647114275610E-03
(PID.TID 0000.0001) %MON pe_b_mean                    =   4.9642642848434E-04
(PID.TID 0000.0001) %MON ke_max                       =   1.7563274205881E-01
(PID.TID 0000.0001) %MON ke_mean                      =   1.6275811856132E-04
(PID.TID 0000.0001) %MON ke_vol                       =   1.3398155074760E+18
(PID.TID 0000.0001) %MON vort_r_min                   =  -2.6855810240808E-06
(PID.TID 0000.0001) %MON vort_r_max                   =   2.2252458482580E-06
(PID.TID 0000.0001) %MON vort_a_mean                  =  -2.0549865324846E-05
(PID.TID 0000.0001) %MON vort_a_sd                    =   7.5259656929112E-05
(PID.TID 0000.0001) %MON vort_p_mean                  =  -2.4783223237689E-05
(PID.TID 0000.0001) %MON vort_p_sd                    =   1.2811923365952E-04
(PID.TID 0000.0001) %MON surfExpan_theta_mean         =  -3.6582104315434E-06
(PID.TID 0000.0001) %MON surfExpan_salt_mean          =   7.7771011262638E-07
(PID.TID 0000.0001) // =======================================================
(PID.TID 0000.0001) // End MONITOR dynamic field statistics
(PID.TID 0000.0001) // =======================================================
(PID.TID 0000.0001) %CHECKPOINT     72096 ckptA
