(PID.TID 0000.0001) 
(PID.TID 0000.0001) // ======================================================
(PID.TID 0000.0001) //                      MITgcm UV
(PID.TID 0000.0001) //                      =========
(PID.TID 0000.0001) // ======================================================
(PID.TID 0000.0001) // execution environment starting up...
(PID.TID 0000.0001) 
(PID.TID 0000.0001) // MITgcmUV version:  checkpoint67e
(PID.TID 0000.0001) // Build user:        dmenemen
(PID.TID 0000.0001) // Build host:        r481i4n13
(PID.TID 0000.0001) // Build date:        Sun Nov  4 19:12:01 PST 2018
(PID.TID 0000.0001) 
(PID.TID 0000.0001) // =======================================================
(PID.TID 0000.0001) // Execution Environment parameter file "eedata"
(PID.TID 0000.0001) // =======================================================
(PID.TID 0000.0001) ># Example "eedata" file
(PID.TID 0000.0001) ># Lines beginning "#" are comments
(PID.TID 0000.0001) ># nTx - No. threads per process in X
(PID.TID 0000.0001) ># nTy - No. threads per process in Y
(PID.TID 0000.0001) > &EEPARMS
(PID.TID 0000.0001) > useCubedSphereExchange=.TRUE.,
(PID.TID 0000.0001) > nTx=1,
(PID.TID 0000.0001) > nTy=1,
(PID.TID 0000.0001) >#debugMode=.TRUE.,
(PID.TID 0000.0001) > &
(PID.TID 0000.0001) ># Note: Some systems use & as the namelist terminator (as shown here).
(PID.TID 0000.0001) >#       Other systems use a / character.
(PID.TID 0000.0001) 
(PID.TID 0000.0001) // =======================================================
(PID.TID 0000.0001) // Computational Grid Specification ( see files "SIZE.h" )
(PID.TID 0000.0001) //                                  ( and "eedata"       )
(PID.TID 0000.0001) // =======================================================
(PID.TID 0000.0001)      nPx =   96 ; /* No. processes in X */
(PID.TID 0000.0001)      nPy =    1 ; /* No. processes in Y */
(PID.TID 0000.0001)      nSx =    1 ; /* No. tiles in X per process */
(PID.TID 0000.0001)      nSy =    1 ; /* No. tiles in Y per process */
(PID.TID 0000.0001)      sNx =   30 ; /* Tile size in X */
(PID.TID 0000.0001)      sNy =   30 ; /* Tile size in Y */
(PID.TID 0000.0001)      OLx =    4 ; /* Tile overlap distance in X */
(PID.TID 0000.0001)      OLy =    4 ; /* Tile overlap distance in Y */
(PID.TID 0000.0001)      nTx =    1 ; /* No. threads in X per process */
(PID.TID 0000.0001)      nTy =    1 ; /* No. threads in Y per process */
(PID.TID 0000.0001)       Nr =   50 ; /* No. levels in the vertical   */
(PID.TID 0000.0001)       Nx = 2880 ; /* Total domain size in X ( = nPx*nSx*sNx ) */
(PID.TID 0000.0001)       Ny =   30 ; /* Total domain size in Y ( = nPy*nSy*sNy ) */
(PID.TID 0000.0001)   nTiles =    1 ; /* Total no. tiles per process ( = nSx*nSy ) */
(PID.TID 0000.0001)   nProcs =   96 ; /* Total no. processes ( = nPx*nPy ) */
(PID.TID 0000.0001) nThreads =    1 ; /* Total no. threads per process ( = nTx*nTy ) */
(PID.TID 0000.0001) usingMPI =    T ; /* Flag used to control whether MPI is in use */
(PID.TID 0000.0001)                   /*  note: To execute a program with MPI calls */
(PID.TID 0000.0001)                   /*  it must be launched appropriately e.g     */
(PID.TID 0000.0001)                   /*  "mpirun -np 64 ......"                    */
(PID.TID 0000.0001) useCoupler=    F ;/* Flag used to control communications with   */
(PID.TID 0000.0001)                   /*  other model components, through a coupler */
(PID.TID 0000.0001) debugMode =    F ; /* print debug msg. (sequence of S/R calls)  */
(PID.TID 0000.0001) printMapIncludesZeros=    F ; /* print zeros in Std.Output maps */
(PID.TID 0000.0001) maxLengthPrt1D=   65 /* maxLength of 1D array printed to StdOut */
(PID.TID 0000.0001) 
(PID.TID 0000.0001) ======= Starting MPI parallel Run =========
(PID.TID 0000.0001)  My Processor Name (len:  9 ) = r481i4n13
(PID.TID 0000.0001)  Located at (  0,  0) on processor grid (0: 95,0:  0)
(PID.TID 0000.0001)  Origin at  (     1,     1) on global grid (1:  2880,1:    30)
(PID.TID 0000.0001)  North neighbor = processor 0000
(PID.TID 0000.0001)  South neighbor = processor 0000
(PID.TID 0000.0001)   East neighbor = processor 0001
(PID.TID 0000.0001)   West neighbor = processor 0095
(PID.TID 0000.0001) // ======================================================
(PID.TID 0000.0001) // Mapping of tiles to threads
(PID.TID 0000.0001) // ======================================================
(PID.TID 0000.0001) // -o- Thread   1, tiles (   1:   1,   1:   1)
(PID.TID 0000.0001) 
(PID.TID 0000.0001) W2_READPARMS: opening data.exch2
(PID.TID 0000.0001)  OPEN_COPY_DATA_FILE: opening file data.exch2
(PID.TID 0000.0001) // =======================================================
(PID.TID 0000.0001) // Parameter file "data.exch2"
(PID.TID 0000.0001) // =======================================================
(PID.TID 0000.0001) ># EXCH2 Package: Wrapper-2 User Choice
(PID.TID 0000.0001) >#--------------------
(PID.TID 0000.0001) >#  preDefTopol   :: pre-defined Topology selector:
(PID.TID 0000.0001) >#                :: = 0 : topology defined from processing "data.exch2";
(PID.TID 0000.0001) >#                :: = 1 : simple, single facet topology;
(PID.TID 0000.0001) >#                :: = 2 : customized topology (w2_set_myown_facets)
(PID.TID 0000.0001) >#                :: = 3 : 6-facet Cube (3 face-dims: nRed, nGreen, nBlue).
(PID.TID 0000.0001) >#  dimsFacets    :: facet pair of dimensions (n1x,n1y, n2x,n2y ...)
(PID.TID 0000.0001) >#  facetEdgeLink :: Face-Edge connectivity map:
(PID.TID 0000.0001) >#    facetEdgeLink(i,j)=XX.1 : face(j)-edge(i) (i=1,2,3,4 <==> N,S,E,W)
(PID.TID 0000.0001) >#    is connected to Northern edge of face "XX" ; similarly,
(PID.TID 0000.0001) >#    = XX.2 : to Southern.E, XX.3 = Eastern.E, XX.4 = Western.E of face "XX"
(PID.TID 0000.0001) >#  blankList     :: List of "blank" tiles
(PID.TID 0000.0001) >#  W2_mapIO      :: global map IO selector (-1 = old type ; 0 = 1 long line in X
(PID.TID 0000.0001) >#                :: 1 = compact, mostly in Y dir)
(PID.TID 0000.0001) >#  W2_printMsg   :: option for information messages printing
(PID.TID 0000.0001) >#                :: <0 : write to log file ; =0 : minimum print ;
(PID.TID 0000.0001) >#                :: =1 : no duplicated print ; =2 : all processes do print
(PID.TID 0000.0001) >#--------------------
(PID.TID 0000.0001) > &W2_EXCH2_PARM01
(PID.TID 0000.0001) ># W2_printMsg= 0,
(PID.TID 0000.0001) >  W2_mapIO   = 1,
(PID.TID 0000.0001) >#
(PID.TID 0000.0001) >  preDefTopol=0,
(PID.TID 0000.0001) >#-- 5 facets llc_120 topology (drop facet 6 and its connection):
(PID.TID 0000.0001) >  dimsFacets(1:10) = 90, 270, 90, 270, 90, 90, 270, 90, 270, 90,
(PID.TID 0000.0001) >  facetEdgeLink(1:4,1)= 3.4, 0. , 2.4, 5.1,
(PID.TID 0000.0001) >  facetEdgeLink(1:4,2)= 3.2, 0. , 4.2, 1.3,
(PID.TID 0000.0001) >  facetEdgeLink(1:4,3)= 5.4, 2.1, 4.4, 1.1,
(PID.TID 0000.0001) >  facetEdgeLink(1:4,4)= 5.2, 2.3, 0. , 3.3,
(PID.TID 0000.0001) >  facetEdgeLink(1:4,5)= 1.4, 4.1, 0. , 3.1,
(PID.TID 0000.0001) >#-- full 6 facets llc_120 topology (equivalent to default preDefTopol=3):
(PID.TID 0000.0001) ># dimsFacets(1:12) = 120, 360, 120, 360, 120, 120, 360, 120, 360, 120, 120, 120,
(PID.TID 0000.0001) ># facetEdgeLink(1:4,1)= 3.4, 6.1, 2.4, 5.1,
(PID.TID 0000.0001) ># facetEdgeLink(1:4,2)= 3.2, 6.3, 4.2, 1.3,
(PID.TID 0000.0001) ># facetEdgeLink(1:4,3)= 5.4, 2.1, 4.4, 1.1,
(PID.TID 0000.0001) ># facetEdgeLink(1:4,4)= 5.2, 2.3, 6.2, 3.3,
(PID.TID 0000.0001) ># facetEdgeLink(1:4,5)= 1.4, 4.1, 6.4, 3.1,
(PID.TID 0000.0001) ># facetEdgeLink(1:4,6)= 1.2, 4.3, 2.2, 5.3,
(PID.TID 0000.0001) >#
(PID.TID 0000.0001) >#90x30   nprocs = 36
(PID.TID 0000.0001) ># blankList(1:3)=1,10,11,
(PID.TID 0000.0001) >#30x90
(PID.TID 0000.0001) >#
(PID.TID 0000.0001) >#45x30   nprocs = 72
(PID.TID 0000.0001) ># blankList(1:6)=1,2,19,20,21,22
(PID.TID 0000.0001) >#30x45   nprocs = 68
(PID.TID 0000.0001) ># blankList(1:10)=2,3,19,20,21,35,51,60,69,78
(PID.TID 0000.0001) >#45x45   nprocs = 48
(PID.TID 0000.0001) ># blankList(1:4)=2,13,14,23
(PID.TID 0000.0001) >#30x30   nprocs = 96
(PID.TID 0000.0001) >  blankList(1:21)=1,2,3,5,6,28,29,30,31,32,33,49,50,52,53,72,81,90,99,108,117
(PID.TID 0000.0001) >#30x30   nprocs = 112
(PID.TID 0000.0001) ># blankList(1:5)=2,3,28,29,30
(PID.TID 0000.0001) >#15x30   nprocs = 192
(PID.TID 0000.0001) ># blankList(1:42)=1,2,3,4,5,6,9,10,11,12,55,56,57,58,59,60,61,62,63,64,65,66,
(PID.TID 0000.0001) >#            97,98,99,100,103,104,105,106,143,144,
(PID.TID 0000.0001) >#            161,162,179,180,197,198,215,216,233,234
(PID.TID 0000.0001) >#15x15   nprocs = 360
(PID.TID 0000.0001) ># blankList(1:108)=1,2,3,4,5,6,7,8,9,10,11,12,14,15,16,17,18,21,22,23,24,
(PID.TID 0000.0001) >#  65,71,75,76,90,95,96,101,102,109,110,111,112,113,114,115,116,117,118,119,
(PID.TID 0000.0001) >#  120,121,122,123,124,125,126,127,128,129,130,131,132,
(PID.TID 0000.0001) >#  188,189,190,193,194,195,196,199,
(PID.TID 0000.0001) >#  200,201,202,203,205,206,207,208,209,211,212,213,214,215,216,242,247,253,
(PID.TID 0000.0001) >#  267,268,269,270,287,288,305,306,323,324,341,342,359,360,362,376,377,378,
(PID.TID 0000.0001) >#  380,381,382,395,396,400,412,413,414,430,
(PID.TID 0000.0001) >#note: it seems that 8 of the followig 9 tiles could be added to 15x15 blank
(PID.TID 0000.0001) >#  list to reach 352=22*16 cores : 431 432 440 441 448 449 450 467 468
(PID.TID 0000.0001) > &
(PID.TID 0000.0001) 
(PID.TID 0000.0001) W2_READPARMS: finished reading data.exch2
(PID.TID 0000.0001) W2_useE2ioLayOut=    T ;/* T: use Exch2 glob IO map; F: use model default */
(PID.TID 0000.0001) W2_mapIO        =   1 ; /* select option for Exch2 global-IO map */
(PID.TID 0000.0001) W2_printMsg     =  -1 ; /* select option for printing information */
(PID.TID 0000.0001) ===== Start setting W2 TOPOLOGY:
(PID.TID 0000.0001)  write to log-file: w2_tile_topology.0000.log
(PID.TID 0000.0001) =====       setting W2 TOPOLOGY: Done
(PID.TID 0000.0001) 
(PID.TID 0000.0001)  INI_PARMS: opening model parameter file "data"
(PID.TID 0000.0001)  OPEN_COPY_DATA_FILE: opening file data
(PID.TID 0000.0001) // =======================================================
(PID.TID 0000.0001) // Parameter file "data"
(PID.TID 0000.0001) // =======================================================
(PID.TID 0000.0001) ># ====================
(PID.TID 0000.0001) ># | Model parameters |
(PID.TID 0000.0001) ># ====================
(PID.TID 0000.0001) >#
(PID.TID 0000.0001) ># Continuous equation parameters
(PID.TID 0000.0001) > &PARM01
(PID.TID 0000.0001) > tRef               = 3*23.,3*22.,21.,2*20.,19.,2*18.,17.,2*16.,15.,14.,13.,
(PID.TID 0000.0001) >                      12.,11.,2*9.,8.,7.,2*6.,2*5.,3*4.,3*3.,4*2.,12*1.,
(PID.TID 0000.0001) > sRef               = 50*34.5,
(PID.TID 0000.0001) > no_slip_sides  = .TRUE.,
(PID.TID 0000.0001) > no_slip_bottom = .TRUE.,
(PID.TID 0000.0001) >#
(PID.TID 0000.0001) > viscAr=0.5E-4,
(PID.TID 0000.0001) >#
(PID.TID 0000.0001) > viscAh=1.E0,
(PID.TID 0000.0001) > viscAhGrid=2.E-2,
(PID.TID 0000.0001) ># viscAh=2.0e4,
(PID.TID 0000.0001) >#
(PID.TID 0000.0001) > diffKhT=1.E1,
(PID.TID 0000.0001) > diffKrT=1.E-5,
(PID.TID 0000.0001) > diffKhS=1.E1,
(PID.TID 0000.0001) > diffKrS=1.E-5,
(PID.TID 0000.0001) >#
(PID.TID 0000.0001) >### diffKrBL79surf=0.1E-4,
(PID.TID 0000.0001) >### diffKrBL79deep=1.0E-4,
(PID.TID 0000.0001) > bottomDragQuadratic = 0.001,
(PID.TID 0000.0001) >#when using ggl90
(PID.TID 0000.0001) > ivdc_kappa=10.,
(PID.TID 0000.0001) > implicitDiffusion=.TRUE.,
(PID.TID 0000.0001) > implicitViscosity=.TRUE.,
(PID.TID 0000.0001) > useRealFreshWaterFlux=.TRUE.,
(PID.TID 0000.0001) ># balanceThetaClimRelax=.TRUE.,
(PID.TID 0000.0001) > balanceSaltClimRelax=.TRUE.,
(PID.TID 0000.0001) ># balanceEmPmR=.TRUE.,
(PID.TID 0000.0001) ># balanceQnet=.TRUE.,
(PID.TID 0000.0001) > allowFreezing=.FALSE.,
(PID.TID 0000.0001) >### hFacInf=0.2,
(PID.TID 0000.0001) >### hFacSup=2.0,
(PID.TID 0000.0001) > hFacMin=.2,
(PID.TID 0000.0001) > hFacMinDr=5.,
(PID.TID 0000.0001) > select_rStar=2,
(PID.TID 0000.0001) > nonlinFreeSurf=4,
(PID.TID 0000.0001) > gravity=9.81,
(PID.TID 0000.0001) > rhonil=1029.,
(PID.TID 0000.0001) > rhoConst=1029.,
(PID.TID 0000.0001) > rhoConstFresh=1000.,
(PID.TID 0000.0001) > convertFW2Salt=-1.,
(PID.TID 0000.0001) > eosType='JMD95Z',
(PID.TID 0000.0001) > implicitFreeSurface=.TRUE.,
(PID.TID 0000.0001) > exactConserv=.TRUE.,
(PID.TID 0000.0001) > useSingleCpuIO=.TRUE.,
(PID.TID 0000.0001) > tempAdvScheme=30,
(PID.TID 0000.0001) > saltAdvScheme=30,
(PID.TID 0000.0001) > tempVertAdvScheme=3,
(PID.TID 0000.0001) > saltVertAdvScheme=3,
(PID.TID 0000.0001) > tempImplVertAdv=.TRUE.,
(PID.TID 0000.0001) > saltImplVertAdv=.TRUE.,
(PID.TID 0000.0001) > staggerTimeStep=.TRUE.,
(PID.TID 0000.0001) > vectorInvariantMomentum=.TRUE.,
(PID.TID 0000.0001) >#when using the cd scheme:
(PID.TID 0000.0001) ># useCDscheme=.TRUE.,
(PID.TID 0000.0001) > useJamartWetPoints=.TRUE.,
(PID.TID 0000.0001) > readBinaryPrec=32,
(PID.TID 0000.0001) > writeBinaryPrec=32,
(PID.TID 0000.0001) > debugLevel=1,
(PID.TID 0000.0001) > &
(PID.TID 0000.0001) >
(PID.TID 0000.0001) ># Elliptic solver parameters
(PID.TID 0000.0001) > &PARM02
(PID.TID 0000.0001) > cg2dMaxIters=300,
(PID.TID 0000.0001) > cg2dTargetResWunit=1.E-12,
(PID.TID 0000.0001) > &
(PID.TID 0000.0001) >
(PID.TID 0000.0001) ># Time stepping parameters
(PID.TID 0000.0001) > &PARM03
(PID.TID 0000.0001) > nIter0=1,
(PID.TID 0000.0001) >#2 lev2 for testing:
(PID.TID 0000.0001) >#nTimeSteps       = 96,
(PID.TID 0000.0001) >#20y:
(PID.TID 0000.0001) > nTimeSteps       = 96,
(PID.TID 0000.0001) >#60 years
(PID.TID 0000.0001) >#nTimeSteps       = 96,
(PID.TID 0000.0001) >#
(PID.TID 0000.0001) > forcing_In_AB=.FALSE.,
(PID.TID 0000.0001) > momDissip_In_AB=.FALSE.,
(PID.TID 0000.0001) >#when using the cd scheme:
(PID.TID 0000.0001) ># epsAB_CD = 0.25,
(PID.TID 0000.0001) ># tauCD=172800.0,
(PID.TID 0000.0001) > deltaT = 900.,
(PID.TID 0000.0001) >#when using ab2:
(PID.TID 0000.0001) > abEps = 0.1,
(PID.TID 0000.0001) >#when using ab3:
(PID.TID 0000.0001) ># doAB_onGtGs=.FALSE.,
(PID.TID 0000.0001) ># alph_AB=0.5,
(PID.TID 0000.0001) ># beta_AB=0.281105,
(PID.TID 0000.0001) >#
(PID.TID 0000.0001) > pChkptFreq        = 86400.0,
(PID.TID 0000.0001) > chkptFreq        = 86400.0,
(PID.TID 0000.0001) ># taveFreq    =31536000.0,
(PID.TID 0000.0001) ># dumpFreq    =31536000.0,
(PID.TID 0000.0001) > monitorFreq = 7200.0,
(PID.TID 0000.0001) > dumpInitAndLast = .TRUE.,
(PID.TID 0000.0001) > pickupStrictlyMatch=.FALSE.,
(PID.TID 0000.0001) > &
(PID.TID 0000.0001) >
(PID.TID 0000.0001) ># Gridding parameters
(PID.TID 0000.0001) > &PARM04
(PID.TID 0000.0001) > usingCurvilinearGrid=.TRUE.,
(PID.TID 0000.0001) > delR =
(PID.TID 0000.0001) >     10.00, 10.00, 10.00, 10.00, 10.00, 10.00, 10.00, 10.01,
(PID.TID 0000.0001) >     10.03, 10.11, 10.32, 10.80, 11.76, 13.42, 16.04, 19.82, 24.85,
(PID.TID 0000.0001) >     31.10, 38.42, 46.50, 55.00, 63.50, 71.58, 78.90, 85.15, 90.18,
(PID.TID 0000.0001) >     93.96, 96.58, 98.25, 99.25,100.01,101.33,104.56,111.33,122.83,
(PID.TID 0000.0001) >     139.09,158.94,180.83,203.55,226.50,249.50,272.50,295.50,318.50,
(PID.TID 0000.0001) >     341.50,364.50,387.50,410.50,433.50,456.50,
(PID.TID 0000.0001) > &
(PID.TID 0000.0001) >
(PID.TID 0000.0001) ># Input datasets
(PID.TID 0000.0001) > &PARM05
(PID.TID 0000.0001) >#adTapeDir='tapes',
(PID.TID 0000.0001) > bathyFile      ='bathy.bin',
(PID.TID 0000.0001) > hydrogThetaFile='T_OWPv1_M_eccollc_90x50.bin',
(PID.TID 0000.0001) > hydrogSaltFile ='S_OWPv1_M_eccollc_90x50.bin',
(PID.TID 0000.0001) > viscA4Dfile    ='viscA4Dfld.bin',
(PID.TID 0000.0001) > viscA4Zfile    ='viscA4Zfld.bin',
(PID.TID 0000.0001) > geothermalFile='geothermalFlux.bin',
(PID.TID 0000.0001) >#
(PID.TID 0000.0001) > &
(PID.TID 0000.0001) 
(PID.TID 0000.0001)  INI_PARMS ; starts to read PARM01
(PID.TID 0000.0001)  INI_PARMS ; read PARM01 : OK
(PID.TID 0000.0001)  INI_PARMS ; starts to read PARM02
(PID.TID 0000.0001)  INI_PARMS ; read PARM02 : OK
(PID.TID 0000.0001)  INI_PARMS ; starts to read PARM03
(PID.TID 0000.0001)  INI_PARMS ; read PARM03 : OK
(PID.TID 0000.0001)  INI_PARMS ; starts to read PARM04
(PID.TID 0000.0001)  INI_PARMS ; read PARM04 : OK
(PID.TID 0000.0001)  INI_PARMS ; starts to read PARM05
(PID.TID 0000.0001)  INI_PARMS ; read PARM05 : OK
(PID.TID 0000.0001)  INI_PARMS: finished reading file "data"
(PID.TID 0000.0001)  PACKAGES_BOOT: opening data.pkg
(PID.TID 0000.0001)  OPEN_COPY_DATA_FILE: opening file data.pkg
(PID.TID 0000.0001) // =======================================================
(PID.TID 0000.0001) // Parameter file "data.pkg"
(PID.TID 0000.0001) // =======================================================
(PID.TID 0000.0001) ># Packages
(PID.TID 0000.0001) > &PACKAGES
(PID.TID 0000.0001) > useGMRedi          = .TRUE.,
(PID.TID 0000.0001) > useGGL90           = .TRUE.,
(PID.TID 0000.0001) > useSALT_PLUME      = .TRUE.,
(PID.TID 0000.0001) > useDiagnostics     = .TRUE.,
(PID.TID 0000.0001) > useCTRL            = .TRUE.,
(PID.TID 0000.0001) > &
(PID.TID 0000.0001) 
(PID.TID 0000.0001)  PACKAGES_BOOT: finished reading data.pkg
(PID.TID 0000.0001)  PACKAGES_BOOT: On/Off package Summary
 --------  pkgs with a standard "usePKG" On/Off switch in "data.pkg":  --------
 pkg/ggl90                compiled   and   used ( useGGL90                 = T )
 pkg/gmredi               compiled   and   used ( useGMRedi                = T )
 pkg/ctrl                 compiled   and   used ( useCTRL                  = T )
 pkg/salt_plume           compiled   and   used ( useSALT_PLUME            = T )
 pkg/diagnostics          compiled   and   used ( useDiagnostics           = T )
 -------- pkgs without standard "usePKG" On/Off switch in "data.pkg":  --------
 pkg/generic_advdiff      compiled   and   used ( useGAD                   = T )
 pkg/mom_common           compiled   and   used ( momStepping              = T )
 pkg/mom_vecinv           compiled   and   used ( +vectorInvariantMomentum = T )
 pkg/monitor              compiled   and   used ( monitorFreq > 0.         = T )
 pkg/debug                compiled but not used ( debugMode                = F )
 pkg/exch2                compiled   and   used
 pkg/rw                   compiled   and   used
 pkg/mdsio                compiled   and   used
(PID.TID 0000.0001)  PACKAGES_BOOT: End of package Summary
(PID.TID 0000.0001) 
(PID.TID 0000.0001)  GGL90_READPARMS: opening data.ggl90
(PID.TID 0000.0001)  OPEN_COPY_DATA_FILE: opening file data.ggl90
(PID.TID 0000.0001) // =======================================================
(PID.TID 0000.0001) // Parameter file "data.ggl90"
(PID.TID 0000.0001) // =======================================================
(PID.TID 0000.0001) ># =====================================================================
(PID.TID 0000.0001) ># | Parameters for Gaspar et al. (1990)'s TKE vertical mixing scheme  |
(PID.TID 0000.0001) ># =====================================================================
(PID.TID 0000.0001) > &GGL90_PARM01
(PID.TID 0000.0001) ># GGL90taveFreq = 345600000.,
(PID.TID 0000.0001) ># GGL90dumpFreq = 86400.,
(PID.TID 0000.0001) ># GGL90writeState=.FALSE.,
(PID.TID 0000.0001) ># GGL90diffTKEh=3.e3,
(PID.TID 0000.0001) > GGL90alpha=30.,
(PID.TID 0000.0001) ># GGL90TKEFile = 'TKE_init.bin',
(PID.TID 0000.0001) > GGL90TKEmin  = 1.e-7,
(PID.TID 0000.0001) > GGL90TKEbottom = 1.e-6,
(PID.TID 0000.0001) > mxlMaxFlag =2,
(PID.TID 0000.0001) > mxlSurfFlag=.TRUE.,
(PID.TID 0000.0001) > &
(PID.TID 0000.0001) 
(PID.TID 0000.0001)  GGL90_READPARMS ; starts to read GGL90_PARM01
(PID.TID 0000.0001)  GGL90_READPARMS: read GGL90_PARM01 : OK
(PID.TID 0000.0001)  GGL90_READPARMS: finished reading data.ggl90
(PID.TID 0000.0001) // =======================================================
(PID.TID 0000.0001) // GGL90 configuration
(PID.TID 0000.0001) // =======================================================
(PID.TID 0000.0001) GGL90dumpFreq =   /* GGL90 state write out interval ( s ). */
(PID.TID 0000.0001)                 0.000000000000000E+00
(PID.TID 0000.0001)     ;
(PID.TID 0000.0001) GGL90taveFreq =   /* GGL90 averaging interval ( s ). */
(PID.TID 0000.0001)                 0.000000000000000E+00
(PID.TID 0000.0001)     ;
(PID.TID 0000.0001) GGL90mixingMAPS =   /* GGL90 IO flag. */
(PID.TID 0000.0001)                   F
(PID.TID 0000.0001)     ;
(PID.TID 0000.0001) GGL90writeState =   /* GGL90 IO flag. */
(PID.TID 0000.0001)                   F
(PID.TID 0000.0001)     ;
(PID.TID 0000.0001) GGL90ck =   /* GGL90 viscosity parameter. */
(PID.TID 0000.0001)                 1.000000000000000E-01
(PID.TID 0000.0001)     ;
(PID.TID 0000.0001) GGL90ceps =   /* GGL90 dissipation parameter. */
(PID.TID 0000.0001)                 7.000000000000000E-01
(PID.TID 0000.0001)     ;
(PID.TID 0000.0001) GGL90alpha =   /* GGL90 TKE diffusivity parameter. */
(PID.TID 0000.0001)                 3.000000000000000E+01
(PID.TID 0000.0001)     ;
(PID.TID 0000.0001) GGL90m2 =   /* GGL90 wind stress to vertical stress ratio. */
(PID.TID 0000.0001)                 3.750000000000000E+00
(PID.TID 0000.0001)     ;
(PID.TID 0000.0001) GGL90TKEmin =   /* GGL90 minimum kinetic energy ( m^2/s^2 ). */
(PID.TID 0000.0001)                 1.000000000000000E-07
(PID.TID 0000.0001)     ;
(PID.TID 0000.0001) GGL90TKEsurfMin =   /* GGL90 minimum surface kinetic energy ( m^2/s^2 ). */
(PID.TID 0000.0001)                 1.000000000000000E-04
(PID.TID 0000.0001)     ;
(PID.TID 0000.0001) GGL90TKEbottom =   /* GGL90 bottom kinetic energy ( m^2/s^2 ). */
(PID.TID 0000.0001)                 1.000000000000000E-06
(PID.TID 0000.0001)     ;
(PID.TID 0000.0001) GGL90viscMax =   /* GGL90 upper limit for viscosity ( m^2/s ). */
(PID.TID 0000.0001)                 1.000000000000000E+02
(PID.TID 0000.0001)     ;
(PID.TID 0000.0001) GGL90diffMax =   /* GGL90 upper limit for diffusivity ( m^2/s ). */
(PID.TID 0000.0001)                 1.000000000000000E+02
(PID.TID 0000.0001)     ;
(PID.TID 0000.0001) GGL90diffTKEh =   /* GGL90 horizontal diffusivity for TKE ( m^2/s ). */
(PID.TID 0000.0001)                 0.000000000000000E+00
(PID.TID 0000.0001)     ;
(PID.TID 0000.0001) GGL90mixingLengthMin =   /* GGL90 minimum mixing length ( m ). */
(PID.TID 0000.0001)                 1.000000000000000E-08
(PID.TID 0000.0001)     ;
(PID.TID 0000.0001) mxlMaxFlag =   /* Flag for limiting mixing-length method */
(PID.TID 0000.0001)                       2
(PID.TID 0000.0001)     ;
(PID.TID 0000.0001) mxlSurfFlag =   /* GGL90 flag for near surface mixing. */
(PID.TID 0000.0001)                   T
(PID.TID 0000.0001)     ;
(PID.TID 0000.0001) calcMeanVertShear = /* calc Mean of Vert.Shear (vs shear of Mean flow) */
(PID.TID 0000.0001)                   F
(PID.TID 0000.0001)     ;
(PID.TID 0000.0001) GGL90: GGL90TKEFile =
(PID.TID 0000.0001) GGL90writeState =   /* GGL90 Boundary condition flag. */
(PID.TID 0000.0001)                   T
(PID.TID 0000.0001)     ;
(PID.TID 0000.0001) // =======================================================
(PID.TID 0000.0001) // End of GGL90 config. summary
(PID.TID 0000.0001) // =======================================================
(PID.TID 0000.0001) 
(PID.TID 0000.0001)  GM_READPARMS: opening data.gmredi
(PID.TID 0000.0001)  OPEN_COPY_DATA_FILE: opening file data.gmredi
(PID.TID 0000.0001) // =======================================================
(PID.TID 0000.0001) // Parameter file "data.gmredi"
(PID.TID 0000.0001) // =======================================================
(PID.TID 0000.0001) ># GM+Redi package parameters:
(PID.TID 0000.0001) >#     GM_Small_Number  :: epsilon used in computing the slope
(PID.TID 0000.0001) >#     GM_slopeSqCutoff :: slope^2 cut-off value
(PID.TID 0000.0001) >
(PID.TID 0000.0001) >#-from MOM :
(PID.TID 0000.0001) ># GM_background_K: 	G & Mc.W  diffusion coefficient
(PID.TID 0000.0001) ># GM_maxSlope    :	max slope of isopycnals
(PID.TID 0000.0001) ># GM_Scrit       :	transition for scaling diffusion coefficient
(PID.TID 0000.0001) ># GM_Sd          :	half width scaling for diffusion coefficient
(PID.TID 0000.0001) ># GM_taper_scheme:	slope clipping or one of the tapering schemes
(PID.TID 0000.0001) ># GM_Kmin_horiz  :	horizontal diffusion minimum value
(PID.TID 0000.0001) >
(PID.TID 0000.0001) >#-Option parameters (needs to "define" options in GMREDI_OPTIONS.h")
(PID.TID 0000.0001) ># GM_isopycK     :	isopycnal diffusion coefficient (default=GM_background_K)
(PID.TID 0000.0001) ># GM_AdvForm     :	turn on GM Advective form       (default=Skew flux form)
(PID.TID 0000.0001) >
(PID.TID 0000.0001) > &GM_PARM01
(PID.TID 0000.0001) >  GM_Small_Number  = 1.D-20,
(PID.TID 0000.0001) >  GM_slopeSqCutoff = 1.D+08,
(PID.TID 0000.0001) >  GM_AdvForm         = .TRUE.,
(PID.TID 0000.0001) >  GM_isopycK         = 1.D+3,
(PID.TID 0000.0001) >  GM_background_K    = 1.D+3,
(PID.TID 0000.0001) >  GM_maxSlope        = 4.D-3,
(PID.TID 0000.0001) >  GM_taper_scheme    = 'stableGmAdjTap',
(PID.TID 0000.0001) >  GM_Kmin_horiz      = 100.,
(PID.TID 0000.0001) >  GM_Scrit           = 4.D-3,
(PID.TID 0000.0001) >  GM_Sd              = 1.D-3,
(PID.TID 0000.0001) >#
(PID.TID 0000.0001) >###  GM_Visbeck_alpha   = 1.5D-2,
(PID.TID 0000.0001) >###  GM_Visbeck_alpha   = 0.D0,
(PID.TID 0000.0001) >###  GM_Visbeck_length  = 2.D+5,
(PID.TID 0000.0001) >###  GM_Visbeck_depth   = 1.D+3,
(PID.TID 0000.0001) >###  GM_Visbeck_maxval_K= 2.5D+3,
(PID.TID 0000.0001) > &
(PID.TID 0000.0001) >
(PID.TID 0000.0001) >
(PID.TID 0000.0001) 
(PID.TID 0000.0001)  GM_READPARMS: finished reading data.gmredi
(PID.TID 0000.0001) SALT_PLUME_READPARMS: opening data.salt_plume
(PID.TID 0000.0001)  OPEN_COPY_DATA_FILE: opening file data.salt_plume
(PID.TID 0000.0001) // =======================================================
(PID.TID 0000.0001) // Parameter file "data.salt_plume"
(PID.TID 0000.0001) // =======================================================
(PID.TID 0000.0001) > &SALT_PLUME_PARM01
(PID.TID 0000.0001) > SPsalFRAC= 0.5D0,
(PID.TID 0000.0001) > &
(PID.TID 0000.0001) 
(PID.TID 0000.0001) SALT_PLUME_READPARMS: finished reading data.salt_plume
(PID.TID 0000.0001) OPTIM_READPARMS: opening data.optim
(PID.TID 0000.0001)  OPEN_COPY_DATA_FILE: opening file data.optim
(PID.TID 0000.0001) // =======================================================
(PID.TID 0000.0001) // Parameter file "data.optim"
(PID.TID 0000.0001) // =======================================================
(PID.TID 0000.0001) >#
(PID.TID 0000.0001) ># ********************************
(PID.TID 0000.0001) ># Off-line optimization parameters
(PID.TID 0000.0001) ># ********************************
(PID.TID 0000.0001) > &OPTIM
(PID.TID 0000.0001) > optimcycle=12,
(PID.TID 0000.0001) > &
(PID.TID 0000.0001) 
(PID.TID 0000.0001) OPTIM_READPARMS: finished reading data.optim
(PID.TID 0000.0001) CTRL_READPARMS: opening data.ctrl
(PID.TID 0000.0001)  OPEN_COPY_DATA_FILE: opening file data.ctrl
(PID.TID 0000.0001) // =======================================================
(PID.TID 0000.0001) // Parameter file "data.ctrl"
(PID.TID 0000.0001) // =======================================================
(PID.TID 0000.0001) ># *********************
(PID.TID 0000.0001) ># ECCO control variables
(PID.TID 0000.0001) ># *********************
(PID.TID 0000.0001) > &ctrl_nml
(PID.TID 0000.0001) > doSinglePrecTapelev=.TRUE.,
(PID.TID 0000.0001) >#to start from given xx*00.data files
(PID.TID 0000.0001) >  doinitxx = .FALSE.,
(PID.TID 0000.0001) >  doMainUnpack = .FALSE.,
(PID.TID 0000.0001) >#to start from given ecco_ctrl... files
(PID.TID 0000.0001) ># doinitxx = .FALSE.,
(PID.TID 0000.0001) > &
(PID.TID 0000.0001) >#
(PID.TID 0000.0001) ># *********************
(PID.TID 0000.0001) ># names for ctrl_pack/unpack
(PID.TID 0000.0001) ># *********************
(PID.TID 0000.0001) > &ctrl_packnames
(PID.TID 0000.0001) > &
(PID.TID 0000.0001) >#
(PID.TID 0000.0001) ># *********************
(PID.TID 0000.0001) ># names for CTRL_GENARR2D,3D CTRL_GENTIM2D
(PID.TID 0000.0001) ># *********************
(PID.TID 0000.0001) > &CTRL_NML_GENARR
(PID.TID 0000.0001) >#
(PID.TID 0000.0001) > xx_genarr3d_weight(1) = 'wt_ones.data',
(PID.TID 0000.0001) > xx_genarr3d_file(1)='xx_kapgm',
(PID.TID 0000.0001) > mult_genarr3d(1) = 0.,
(PID.TID 0000.0001) >#
(PID.TID 0000.0001) > xx_genarr3d_weight(2) = 'wt_ones.data',
(PID.TID 0000.0001) > xx_genarr3d_file(2)='xx_kapredi',
(PID.TID 0000.0001) > mult_genarr3d(2) = 0.,
(PID.TID 0000.0001) >#
(PID.TID 0000.0001) > xx_genarr3d_weight(3) = 'wt_ones.data',
(PID.TID 0000.0001) > xx_genarr3d_file(3)='xx_diffkr',
(PID.TID 0000.0001) > mult_genarr3d(3) = 0.,
(PID.TID 0000.0001) >#
(PID.TID 0000.0001) > &
(PID.TID 0000.0001) 
(PID.TID 0000.0001) CTRL_READPARMS: finished reading data.ctrl
(PID.TID 0000.0001)  DIAGNOSTICS_READPARMS: opening data.diagnostics
(PID.TID 0000.0001)  OPEN_COPY_DATA_FILE: opening file data.diagnostics
(PID.TID 0000.0001) // =======================================================
(PID.TID 0000.0001) // Parameter file "data.diagnostics"
(PID.TID 0000.0001) // =======================================================
(PID.TID 0000.0001) ># Diagnostic Package Choices
(PID.TID 0000.0001) >#-----------------
(PID.TID 0000.0001) ># for each output-stream:
(PID.TID 0000.0001) >#  filename(n) : prefix of the output file name (only 8.c long) for outp.stream n
(PID.TID 0000.0001) >#  frequency(n):< 0 : write snap-shot output every multiple of |frequency| (iter)
(PID.TID 0000.0001) >#               > 0 : write time-average output every multiple of frequency (iter)
(PID.TID 0000.0001) >#  levels(:,n) : list of levels to write to file (Notes: declared as REAL)
(PID.TID 0000.0001) >#                 when this entry is missing, select all common levels of this list
(PID.TID 0000.0001) >#  fields(:,n) : list of diagnostics fields (8.c) (see "available_diagnostics" file
(PID.TID 0000.0001) >#                 for the list of all available diag. in this particular config)
(PID.TID 0000.0001) >#--------------------------------------------------------------------
(PID.TID 0000.0001) >#
(PID.TID 0000.0001) > &diagnostics_list
(PID.TID 0000.0001) >#
(PID.TID 0000.0001) >   dumpatlast = .TRUE.,
(PID.TID 0000.0001) >   diagMdsDir = 'diags',
(PID.TID 0000.0001) >#---
(PID.TID 0000.0001) >  frequency(1) = 2635200.0,
(PID.TID 0000.0001) >   fields(1:9,1) = 'ETAN    ',
(PID.TID 0000.0001) >#stuff that is not quite state variables (and may not be quite
(PID.TID 0000.0001) >#synchroneous) but are added here to reduce number of files
(PID.TID 0000.0001) >                 'DETADT2 ','PHIBOT  ',
(PID.TID 0000.0001) >                 'MXLDEPTH','oceSPDep',
(PID.TID 0000.0001) >                 'oceQnet ','oceFWflx',
(PID.TID 0000.0001) >                 'oceTAUX ','oceTAUY ',
(PID.TID 0000.0001) >   filename(1) = 'state_2d_set1',
(PID.TID 0000.0001) >#---
(PID.TID 0000.0001) >  frequency(2) = 2635200.0,
(PID.TID 0000.0001) >   fields(1:3,2) = 'THETA   ','SALT    ',
(PID.TID 0000.0001) >#stuff that is not quite state variables (and may not be quite
(PID.TID 0000.0001) >#synchroneous) but are added here to reduce file number
(PID.TID 0000.0001) >                 'DRHODR  ',
(PID.TID 0000.0001) >#                'KPPviscA','KPPdiffT','KPPdiffTS',
(PID.TID 0000.0001) >#                'GGL90TKE','GGL90Lmx','GGL90Prl',
(PID.TID 0000.0001) >#                'GGL90ArU','GGL90ArV','GGL90Kr ',
(PID.TID 0000.0001) >   filename(2) = 'state_3d_set1',
(PID.TID 0000.0001) >#---
(PID.TID 0000.0001) >  frequency(3) = 2635200.0,
(PID.TID 0000.0001) >   fields(1:5,3) = 'UVELMASS','VVELMASS','WVELMASS',
(PID.TID 0000.0001) >                 'GM_PsiX ','GM_PsiY ',
(PID.TID 0000.0001) >#uvel is approximately uvelmass divided by initial hfac, so we dont output the former
(PID.TID 0000.0001) >#                'UVEL    ','VVEL    ','WVEL     ',
(PID.TID 0000.0001) >#full 3D temperature fluxes : 'DFxE_TH ','DFyE_TH ','DFrE_TH ','DFrI_TH ','ADVx_TH ','ADVy_TH ','ADVr_TH ',
(PID.TID 0000.0001) >#but for present computations I only need the vertically integrated horizontal components (see trsp_3d_set2)
(PID.TID 0000.0001) >   filename(3) = 'trsp_3d_set1',
(PID.TID 0000.0001) >#---
(PID.TID 0000.0001) >  frequency(4) = 2635200.0,
(PID.TID 0000.0001) >   fields(1:8,4) = 'DFxE_TH ','DFyE_TH ','ADVx_TH ','ADVy_TH ',
(PID.TID 0000.0001) >                 'DFxE_SLT','DFyE_SLT','ADVx_SLT','ADVy_SLT',
(PID.TID 0000.0001) >   filename(4) = 'trsp_3d_set2',
(PID.TID 0000.0001) >#vertically integrate fields we only use to compute vertically integr.
(PID.TID 0000.0001) >#meridional transports (also omit vertical transports, both to save space)
(PID.TID 0000.0001) >#---
(PID.TID 0000.0001) >  frequency(5) = -2635200.0,
(PID.TID 0000.0001) >   fields(1:2,5) = 'ETAN    ',
(PID.TID 0000.0001) >                   'PHIBOT  ',
(PID.TID 0000.0001) >#  filename(5) = 'budg2d_snap_set1',
(PID.TID 0000.0001) >   timePhase(5)= 0.,
(PID.TID 0000.0001) >   fileFlags(5) = 'D       ',
(PID.TID 0000.0001) >#---
(PID.TID 0000.0001) >  frequency(6) = -2635200.0,
(PID.TID 0000.0001) >   fields(1:2,6) = 'THETA   ','SALT    ',
(PID.TID 0000.0001) >#  filename(6) = 'budg2d_snap_set2',
(PID.TID 0000.0001) >   timePhase(6)= 0.,
(PID.TID 0000.0001) >   fileFlags(6) = 'DI      ',
(PID.TID 0000.0001) >#---
(PID.TID 0000.0001) >  frequency(7) = 2635200.0,
(PID.TID 0000.0001) >   fields(1:4,7) = 'oceFWflx','TFLUX   ',
(PID.TID 0000.0001) >                   'SFLUX   ','oceQsw  ',
(PID.TID 0000.0001) >#  filename(7) = 'budg2d_zflux_set1',
(PID.TID 0000.0001) >   fileFlags(7) = 'D       ',
(PID.TID 0000.0001) >#---
(PID.TID 0000.0001) >  frequency(8) = 2635200.0,
(PID.TID 0000.0001) >   fields(1:13,8) ='UVELMASS','VVELMASS',
(PID.TID 0000.0001) >                 'ADVx_TH ','ADVy_TH ','DFxE_TH ','DFyE_TH ',
(PID.TID 0000.0001) >                 'ADVx_SLT','ADVy_SLT','DFxE_SLT','DFyE_SLT',
(PID.TID 0000.0001) >#the following are not transports but tendencies
(PID.TID 0000.0001) >                 'oceSPtnd','AB_gT   ','AB_gS   ',
(PID.TID 0000.0001) >#  filename(8) = 'budg2d_hflux_set2',
(PID.TID 0000.0001) >   fileFlags(8) = 'DI      ',
(PID.TID 0000.0001) >#---
(PID.TID 0000.0001) ># this one is important because it activates the vertical advection diags
(PID.TID 0000.0001) >  frequency(9) = 2635200.0,
(PID.TID 0000.0001) >   fields(1:7,9) = 'ADVr_TH ','DFrE_TH ','DFrI_TH ',
(PID.TID 0000.0001) >                  'ADVr_SLT','DFrE_SLT','DFrI_SLT',
(PID.TID 0000.0001) >                  'WVELMASS',
(PID.TID 0000.0001) >#  filename(9) = 'budg2d_zflux_set3_11',
(PID.TID 0000.0001) >   levels(1, 9)= 11.,
(PID.TID 0000.0001) >   fileFlags(9) = 'D       ',
(PID.TID 0000.0001) >#---
(PID.TID 0000.0001) >  frequency(10) = 2635200.0,
(PID.TID 0000.0001) >   fields(1:6,10) ='SRELAX  ','TRELAX  ','WTHMASS ','WSLTMASS',
(PID.TID 0000.0001) >                 'oceSflux','oceQnet ',
(PID.TID 0000.0001) >#  filename(10) = 'budg2d_zflux_set2',
(PID.TID 0000.0001) >   fileFlags(10) = 'D       ',
(PID.TID 0000.0001) >#---
(PID.TID 0000.0001) >  frequency(11) = 2635200.0,
(PID.TID 0000.0001) >   fields(1:13,11) ='UVELMASS','VVELMASS',
(PID.TID 0000.0001) >                 'ADVx_TH ','ADVy_TH ','DFxE_TH ','DFyE_TH ',
(PID.TID 0000.0001) >                 'ADVx_SLT','ADVy_SLT','DFxE_SLT','DFyE_SLT',
(PID.TID 0000.0001) >                 'oceSPtnd','AB_gT   ','AB_gS   ',
(PID.TID 0000.0001) >#  filename(11) = 'budg2d_hflux_set3_11',
(PID.TID 0000.0001) >   levels(1:40,11) = 11.,12.,13.,14.,15.,16.,17.,18.,19.,20.,
(PID.TID 0000.0001) >                     21.,22.,23.,24.,25.,26.,27.,28.,29.,30.,
(PID.TID 0000.0001) >                     31.,32.,33.,34.,35.,36.,37.,38.,39.,40.,
(PID.TID 0000.0001) >                     41.,42.,43.,44.,45.,46.,47.,48.,49.,50.,
(PID.TID 0000.0001) >   fileFlags(11) = 'DI      ',
(PID.TID 0000.0001) >#---
(PID.TID 0000.0001) >  frequency(12) = -2635200.0,
(PID.TID 0000.0001) >   fields(1:2,12) = 'THETA   ','SALT    ',
(PID.TID 0000.0001) >#  filename(12) = 'budg2d_snap_set3_11',
(PID.TID 0000.0001) >   timePhase(12)= 0.,
(PID.TID 0000.0001) >   levels(1:40,12) = 11.,12.,13.,14.,15.,16.,17.,18.,19.,20.,
(PID.TID 0000.0001) >                     21.,22.,23.,24.,25.,26.,27.,28.,29.,30.,
(PID.TID 0000.0001) >                     31.,32.,33.,34.,35.,36.,37.,38.,39.,40.,
(PID.TID 0000.0001) >                     41.,42.,43.,44.,45.,46.,47.,48.,49.,50.,
(PID.TID 0000.0001) >   fileFlags(12) = 'DI      ',
(PID.TID 0000.0001) >#---
(PID.TID 0000.0001) >  frequency(13) = 2635200.0,
(PID.TID 0000.0001) >   fields(1:8,13) = 'DFxE_TH ','DFyE_TH ','ADVx_TH ','ADVy_TH ',
(PID.TID 0000.0001) >                 'DFxE_SLT','DFyE_SLT','ADVx_SLT','ADVy_SLT',
(PID.TID 0000.0001) >#  filename(13) = 'trsp_2d_set1',
(PID.TID 0000.0001) >#vertically integrate fields we only use to compute vertically integr.
(PID.TID 0000.0001) >#meridional transports (also omit vertical transports, both to save space)
(PID.TID 0000.0001) >   fileFlags(13) = ' I      ',
(PID.TID 0000.0001) >#---
(PID.TID 0000.0001) >  frequency(14) = 2635200.0,
(PID.TID 0000.0001) >   fields(1:3,14) = 'RHOAnoma','PHIHYD  ','oceSPtnd',
(PID.TID 0000.0001) >#  filename(14) = 'state_3d_set2',
(PID.TID 0000.0001) >#---
(PID.TID 0000.0001) >  frequency(15) = 2635200.0,
(PID.TID 0000.0001) >   fields(1:7,15) = 'ADVr_TH ','DFrE_TH ','DFrI_TH ',
(PID.TID 0000.0001) >        'ADVr_SLT','DFrE_SLT','DFrI_SLT','WVELMASS',
(PID.TID 0000.0001) >#  filename(15) = 'trsp_3d_set3',
(PID.TID 0000.0001) >#---
(PID.TID 0000.0001) >  frequency(16) = 2635200.0,
(PID.TID 0000.0001) >   fields(1:4,16) = 'TFLUX   ','SFLUX   ',
(PID.TID 0000.0001) >        'oceQsw  ','oceSPflx',
(PID.TID 0000.0001) >#  filename(16) = 'state_2d_set2',
(PID.TID 0000.0001) >#---
(PID.TID 0000.0001) > &
(PID.TID 0000.0001) >#
(PID.TID 0000.0001) >#
(PID.TID 0000.0001) ># Parameter for Diagnostics of per level statistics:
(PID.TID 0000.0001) >#-----------------
(PID.TID 0000.0001) ># for each output-stream:
(PID.TID 0000.0001) >#  stat_fname(n) : prefix of the output file name (only 8.c long) for outp.stream n
(PID.TID 0000.0001) >#  stat_freq(n):< 0 : write snap-shot output every |stat_freq| seconds
(PID.TID 0000.0001) >#               > 0 : write time-average output every stat_freq seconds
(PID.TID 0000.0001) >#  stat_phase(n)    : write at time = stat_phase + multiple of |stat_freq|
(PID.TID 0000.0001) >#  stat_region(:,n) : list of "regions" (default: 1 region only=global)
(PID.TID 0000.0001) >#  stat_fields(:,n) : list of diagnostics fields (8.c) (see "available_diagnostics.log"
(PID.TID 0000.0001) >#                 file for the list of all available diag. in this particular config)
(PID.TID 0000.0001) >#-----------------
(PID.TID 0000.0001) > &DIAG_STATIS_PARMS
(PID.TID 0000.0001) ># diagSt_regMaskFile='basin_masks_eccollc_90x50.bin',
(PID.TID 0000.0001) ># nSetRegMskFile=1,
(PID.TID 0000.0001) ># set_regMask(1)= 1,  1,  1,  1,  1,  1,  1,  1,  1,
(PID.TID 0000.0001) >#                 1,  1,  1,  1,  1,  1,  1,  1
(PID.TID 0000.0001) ># val_regMask(1)= 1., 2., 3., 4., 5., 6., 7., 8., 9.,
(PID.TID 0000.0001) >#                10.,11.,12.,13.,14.,15.,16.,17.
(PID.TID 0000.0001) >##---
(PID.TID 0000.0001) ># stat_fields(1,1)= 'ETAN    ','ETANSQ  ','DETADT2 ',
(PID.TID 0000.0001) >#                   'UVEL    ','VVEL    ','WVEL    ',
(PID.TID 0000.0001) >#                   'THETA   ','SALT    ',
(PID.TID 0000.0001) >#    stat_fname(1)= 'dynStDiag',
(PID.TID 0000.0001) >#     stat_freq(1)= 3153600.,
(PID.TID 0000.0001) ># stat_region(1,1)=  1, 2, 3, 4, 5, 6, 7, 8, 9,
(PID.TID 0000.0001) >#                   10,11,12,13,14,15,16,17
(PID.TID 0000.0001) >##---
(PID.TID 0000.0001) ># stat_fields(1,2)= 'oceTAUX ','oceTAUY ',
(PID.TID 0000.0001) >#                   'surForcT','surForcS','TFLUX   ','SFLUX   ',
(PID.TID 0000.0001) >#                   'oceQnet ','oceSflux','oceFWflx',
(PID.TID 0000.0001) >#    stat_fname(2)= 'surfStDiag',
(PID.TID 0000.0001) >#     stat_freq(2)= 3153600.,
(PID.TID 0000.0001) ># stat_region(1,2)=  1, 2, 3, 4, 5, 6, 7, 8, 9,
(PID.TID 0000.0001) >#                   10,11,12,13,14,15,16,17
(PID.TID 0000.0001) > &
(PID.TID 0000.0001) 
(PID.TID 0000.0001) S/R DIAGNOSTICS_READPARMS, read namelist "diagnostics_list": start
(PID.TID 0000.0001) S/R DIAGNOSTICS_READPARMS, read namelist "diagnostics_list": OK
(PID.TID 0000.0001) S/R DIAGNOSTICS_READPARMS, read namelist "DIAG_STATIS_PARMS": start
(PID.TID 0000.0001) S/R DIAGNOSTICS_READPARMS, read namelist "DIAG_STATIS_PARMS": OK
(PID.TID 0000.0001)  DIAGNOSTICS_READPARMS: global parameter summary:
(PID.TID 0000.0001)  dumpAtLast = /* always write time-ave diags at the end */
(PID.TID 0000.0001)                   T
(PID.TID 0000.0001)     ;
(PID.TID 0000.0001)  diag_mnc =   /* write NetCDF output files */
(PID.TID 0000.0001)                   F
(PID.TID 0000.0001)     ;
(PID.TID 0000.0001)  diagMdsDir = /* directory for mds diagnostics output */
(PID.TID 0000.0001)               'diags'
(PID.TID 0000.0001)     ;
(PID.TID 0000.0001)  diagMdsDirCreate = /* call mkdir to create diagMdsDir */
(PID.TID 0000.0001)                   T
(PID.TID 0000.0001)     ;
(PID.TID 0000.0001)  useMissingValue = /* put MissingValue where mask = 0 */
(PID.TID 0000.0001)                   F
(PID.TID 0000.0001)     ;
(PID.TID 0000.0001)  diagCG_maxIters = /* max number of iters in diag_cg2d */
(PID.TID 0000.0001)                     300
(PID.TID 0000.0001)     ;
(PID.TID 0000.0001)  diagCG_resTarget = /* residual target for diag_cg2d */
(PID.TID 0000.0001)                 1.000000000000000E-07
(PID.TID 0000.0001)     ;
(PID.TID 0000.0001)  diagCG_pcOffDFac = /* preconditioner off-diagonal factor */
(PID.TID 0000.0001)                 9.611687812379854E-01
(PID.TID 0000.0001)     ;
(PID.TID 0000.0001) -----------------------------------------------------
(PID.TID 0000.0001)  DIAGNOSTICS_READPARMS: active diagnostics summary:
(PID.TID 0000.0001) -----------------------------------------------------
(PID.TID 0000.0001) Creating Output Stream: state_2d_set1
(PID.TID 0000.0001) Output Frequency:    2635200.000000 ; Phase:           0.000000
(PID.TID 0000.0001)  Averaging Freq.:    2635200.000000 , Phase:           0.000000 , Cycle:   1
(PID.TID 0000.0001)  missing value: -9.990000000000E+02
(PID.TID 0000.0001)  Levels:    will be set later
(PID.TID 0000.0001)  Fields:    ETAN     DETADT2  PHIBOT   MXLDEPTH oceSPDep oceQnet  oceFWflx oceTAUX  oceTAUY
(PID.TID 0000.0001) Creating Output Stream: state_3d_set1
(PID.TID 0000.0001) Output Frequency:    2635200.000000 ; Phase:           0.000000
(PID.TID 0000.0001)  Averaging Freq.:    2635200.000000 , Phase:           0.000000 , Cycle:   1
(PID.TID 0000.0001)  missing value: -9.990000000000E+02
(PID.TID 0000.0001)  Levels:    will be set later
(PID.TID 0000.0001)  Fields:    THETA    SALT     DRHODR
(PID.TID 0000.0001) Creating Output Stream: trsp_3d_set1
(PID.TID 0000.0001) Output Frequency:    2635200.000000 ; Phase:           0.000000
(PID.TID 0000.0001)  Averaging Freq.:    2635200.000000 , Phase:           0.000000 , Cycle:   1
(PID.TID 0000.0001)  missing value: -9.990000000000E+02
(PID.TID 0000.0001)  Levels:    will be set later
(PID.TID 0000.0001)  Fields:    UVELMASS VVELMASS WVELMASS GM_PsiX  GM_PsiY
(PID.TID 0000.0001) Creating Output Stream: trsp_3d_set2
(PID.TID 0000.0001) Output Frequency:    2635200.000000 ; Phase:           0.000000
(PID.TID 0000.0001)  Averaging Freq.:    2635200.000000 , Phase:           0.000000 , Cycle:   1
(PID.TID 0000.0001)  missing value: -9.990000000000E+02
(PID.TID 0000.0001)  Levels:    will be set later
(PID.TID 0000.0001)  Fields:    DFxE_TH  DFyE_TH  ADVx_TH  ADVy_TH  DFxE_SLT DFyE_SLT ADVx_SLT ADVy_SLT
(PID.TID 0000.0001) -----------------------------------------------------
(PID.TID 0000.0001)  DIAGNOSTICS_READPARMS: statistics diags. summary:
(PID.TID 0000.0001) -----------------------------------------------------
(PID.TID 0000.0001) 
(PID.TID 0000.0001) SET_PARMS: done
 ==> SYSTEM CALL (from DIAGNOSTICS_INI_IO): > mkdir -p diags <
(PID.TID 0000.0001) 
(PID.TID 0000.0001) Enter INI_VERTICAL_GRID: setInterFDr=    T ; setCenterDr=    F
(PID.TID 0000.0001) tile:   4 ; Read from file tile001.mitgrid
(PID.TID 0000.0001)   => xC yC dxF dyF rA xG yG dxV dyU rAz dxC dyC rAw rAs dxG dyG
(PID.TID 0000.0001) %MON XC_max                       =   1.7997758946678E+02
(PID.TID 0000.0001) %MON XC_min                       =  -1.7998895680928E+02
(PID.TID 0000.0001) %MON XC_mean                      =  -6.8997670631350E+00
(PID.TID 0000.0001) %MON XC_sd                        =   1.0548127462941E+02
(PID.TID 0000.0001) %MON XG_max                       =   1.8000000000000E+02
(PID.TID 0000.0001) %MON XG_min                       =  -1.7999919444240E+02
(PID.TID 0000.0001) %MON XG_mean                      =  -6.3521159278861E+00
(PID.TID 0000.0001) %MON XG_sd                        =   1.0549598176576E+02
(PID.TID 0000.0001) %MON DXC_max                      =   1.1117680031365E+05
(PID.TID 0000.0001) %MON DXC_min                      =   1.3362789164732E+04
(PID.TID 0000.0001) %MON DXC_mean                     =   7.1345115143606E+04
(PID.TID 0000.0001) %MON DXC_sd                       =   2.6107013089865E+04
(PID.TID 0000.0001) %MON DXF_max                      =   1.1117680031365E+05
(PID.TID 0000.0001) %MON DXF_min                      =   1.3491575949394E+04
(PID.TID 0000.0001) %MON DXF_mean                     =   7.1334806791260E+04
(PID.TID 0000.0001) %MON DXF_sd                       =   2.6121349328995E+04
(PID.TID 0000.0001) %MON DXG_max                      =   1.1117747335204E+05
(PID.TID 0000.0001) %MON DXG_min                      =   1.0930409249570E+04
(PID.TID 0000.0001) %MON DXG_mean                     =   7.1313583950284E+04
(PID.TID 0000.0001) %MON DXG_sd                       =   2.6131714747840E+04
(PID.TID 0000.0001) %MON DXV_max                      =   1.1117747335204E+05
(PID.TID 0000.0001) %MON DXV_min                      =   9.4742518926426E+03
(PID.TID 0000.0001) %MON DXV_mean                     =   7.1323777998314E+04
(PID.TID 0000.0001) %MON DXV_sd                       =   2.6117603792432E+04
(PID.TID 0000.0001) %MON YC_max                       =   8.9739397429324E+01
(PID.TID 0000.0001) %MON YC_min                       =  -8.1637173529390E+01
(PID.TID 0000.0001) %MON YC_mean                      =  -5.9338515025079E-01
(PID.TID 0000.0001) %MON YC_sd                        =   5.1058908630085E+01
(PID.TID 0000.0001) %MON YG_max                       =   9.0000000000000E+01
(PID.TID 0000.0001) %MON YG_min                       =  -8.1805478609906E+01
(PID.TID 0000.0001) %MON YG_mean                      =  -5.7357831765458E-01
(PID.TID 0000.0001) %MON YG_sd                        =   5.1060174609345E+01
(PID.TID 0000.0001) %MON DYC_max                      =   1.1117680031365E+05
(PID.TID 0000.0001) %MON DYC_min                      =   1.3362789164732E+04
(PID.TID 0000.0001) %MON DYC_mean                     =   7.0982792089666E+04
(PID.TID 0000.0001) %MON DYC_sd                       =   2.6607387075348E+04
(PID.TID 0000.0001) %MON DYF_max                      =   1.1117680031365E+05
(PID.TID 0000.0001) %MON DYF_min                      =   1.3491575949394E+04
(PID.TID 0000.0001) %MON DYF_mean                     =   7.1000127494934E+04
(PID.TID 0000.0001) %MON DYF_sd                       =   2.6603606017547E+04
(PID.TID 0000.0001) %MON DYG_max                      =   1.1117747335204E+05
(PID.TID 0000.0001) %MON DYG_min                      =   1.0930409249570E+04
(PID.TID 0000.0001) %MON DYG_mean                     =   7.1022116512585E+04
(PID.TID 0000.0001) %MON DYG_sd                       =   2.6571715830406E+04
(PID.TID 0000.0001) %MON DYU_max                      =   1.1117747335204E+05
(PID.TID 0000.0001) %MON DYU_min                      =   9.4742518926426E+03
(PID.TID 0000.0001) %MON DYU_mean                     =   7.1004694583927E+04
(PID.TID 0000.0001) %MON DYU_sd                       =   2.6575655787476E+04
(PID.TID 0000.0001) %MON RA_max                       =   1.1896090857160E+10
(PID.TID 0000.0001) %MON RA_min                       =   2.1263387742345E+08
(PID.TID 0000.0001) %MON RA_mean                      =   5.6344293572480E+09
(PID.TID 0000.0001) %MON RA_sd                        =   3.5929461176606E+09
(PID.TID 0000.0001) %MON RAW_max                      =   1.1896090856781E+10
(PID.TID 0000.0001) %MON RAW_min                      =   1.7369571508711E+08
(PID.TID 0000.0001) %MON RAW_mean                     =   5.6355850434318E+09
(PID.TID 0000.0001) %MON RAW_sd                       =   3.5915487677190E+09
(PID.TID 0000.0001) %MON RAS_max                      =   1.1896090856781E+10
(PID.TID 0000.0001) %MON RAS_min                      =   1.7369571508711E+08
(PID.TID 0000.0001) %MON RAS_mean                     =   5.6320332286162E+09
(PID.TID 0000.0001) %MON RAS_sd                       =   3.5937184228135E+09
(PID.TID 0000.0001) %MON RAZ_max                      =   1.1891903479271E+10
(PID.TID 0000.0001) %MON RAZ_min                      =   1.0413402423292E+08
(PID.TID 0000.0001) %MON RAZ_mean                     =   5.6331824674695E+09
(PID.TID 0000.0001) %MON RAZ_sd                       =   3.5923307220197E+09
(PID.TID 0000.0001) %MON AngleCS_max                  =   1.0000000000000E+00
(PID.TID 0000.0001) %MON AngleCS_min                  =  -9.9996641938864E-01
(PID.TID 0000.0001) %MON AngleCS_mean                 =   4.0572930529500E-01
(PID.TID 0000.0001) %MON AngleCS_sd                   =   5.3874397836718E-01
(PID.TID 0000.0001) %MON AngleSN_max                  =   9.9996641938864E-01
(PID.TID 0000.0001) %MON AngleSN_min                  =  -1.0000000000000E+00
(PID.TID 0000.0001) %MON AngleSN_mean                 =  -4.9986154624599E-01
(PID.TID 0000.0001) %MON AngleSN_sd                   =   5.4339404779819E-01
(PID.TID 0000.0001) GAD_INIT_FIXED: GAD_OlMinSize=  2  0  2
(PID.TID 0000.0001) 
(PID.TID 0000.0001) // ===================================
(PID.TID 0000.0001) // GAD parameters :
(PID.TID 0000.0001) // ===================================
(PID.TID 0000.0001) tempAdvScheme =   /* Temp. Horiz.Advection scheme selector */
(PID.TID 0000.0001)                      30
(PID.TID 0000.0001)     ;
(PID.TID 0000.0001) tempVertAdvScheme =   /* Temp. Vert. Advection scheme selector */
(PID.TID 0000.0001)                       3
(PID.TID 0000.0001)     ;
(PID.TID 0000.0001) tempMultiDimAdvec =   /* use Muti-Dim Advec method for Temp */
(PID.TID 0000.0001)                   T
(PID.TID 0000.0001)     ;
(PID.TID 0000.0001) tempSOM_Advection = /* use 2nd Order Moment Advection for Temp */
(PID.TID 0000.0001)                   F
(PID.TID 0000.0001)     ;
(PID.TID 0000.0001) AdamsBashforthGt = /* apply Adams-Bashforth extrapolation on Gt */
(PID.TID 0000.0001)                   F
(PID.TID 0000.0001)     ;
(PID.TID 0000.0001) AdamsBashforth_T = /* apply Adams-Bashforth extrapolation on Temp */
(PID.TID 0000.0001)                   F
(PID.TID 0000.0001)     ;
(PID.TID 0000.0001) saltAdvScheme =   /* Salt. Horiz.advection scheme selector */
(PID.TID 0000.0001)                      30
(PID.TID 0000.0001)     ;
(PID.TID 0000.0001) saltVertAdvScheme =   /* Salt. Vert. Advection scheme selector */
(PID.TID 0000.0001)                       3
(PID.TID 0000.0001)     ;
(PID.TID 0000.0001) saltMultiDimAdvec =   /* use Muti-Dim Advec method for Salt */
(PID.TID 0000.0001)                   T
(PID.TID 0000.0001)     ;
(PID.TID 0000.0001) saltSOM_Advection = /* use 2nd Order Moment Advection for Salt */
(PID.TID 0000.0001)                   F
(PID.TID 0000.0001)     ;
(PID.TID 0000.0001) AdamsBashforthGs = /* apply Adams-Bashforth extrapolation on Gs */
(PID.TID 0000.0001)                   F
(PID.TID 0000.0001)     ;
(PID.TID 0000.0001) AdamsBashforth_S = /* apply Adams-Bashforth extrapolation on Salt */
(PID.TID 0000.0001)                   F
(PID.TID 0000.0001)     ;
(PID.TID 0000.0001) // ===================================
(PID.TID 0000.0001) ctrl-wet 1:    nvarlength =        34632
(PID.TID 0000.0001) ctrl-wet 2: surface wet C =          312
(PID.TID 0000.0001) ctrl-wet 3: surface wet W =          312
(PID.TID 0000.0001) ctrl-wet 4: surface wet S =          283
(PID.TID 0000.0001) ctrl-wet 4a:surface wet V =            0
(PID.TID 0000.0001) ctrl-wet 5: 3D wet points =        11544
(PID.TID 0000.0001) ctrl-wet 6: no recs for i =     1           0
(PID.TID 0000.0001) ctrl-wet 6: no recs for i =     2           0
(PID.TID 0000.0001) ctrl-wet 6: no recs for i =     3           0
(PID.TID 0000.0001) ctrl-wet 6: no recs for i =     4           0
(PID.TID 0000.0001) ctrl-wet 6: no recs for i =     5           0
(PID.TID 0000.0001) ctrl-wet 6: no recs for i =     6           0
(PID.TID 0000.0001) ctrl-wet 6: no recs for i =     7           0
(PID.TID 0000.0001) ctrl-wet 6: no recs for i =     8           0
(PID.TID 0000.0001) ctrl-wet 6: no recs for i =     9           0
(PID.TID 0000.0001) ctrl-wet 6: no recs for i =    10           0
(PID.TID 0000.0001) ctrl-wet 6: no recs for i =    11           0
(PID.TID 0000.0001) ctrl-wet 6: no recs for i =    12           0
(PID.TID 0000.0001) ctrl-wet 6: no recs for i =    13           0
(PID.TID 0000.0001) ctrl-wet 6: no recs for i =    14           0
(PID.TID 0000.0001) ctrl-wet 6: no recs for i =    15           0
(PID.TID 0000.0001) ctrl-wet 6: no recs for i =    16           0
(PID.TID 0000.0001) ctrl-wet 6: no recs for i =    17           0
(PID.TID 0000.0001) ctrl-wet 6: no recs for i =    18           0
(PID.TID 0000.0001) ctrl-wet 6: no recs for i =    19           0
(PID.TID 0000.0001) ctrl-wet 6: no recs for i =    20           0
(PID.TID 0000.0001) ctrl-wet 6: no recs for i =    21           0
(PID.TID 0000.0001) ctrl-wet 6: no recs for i =    22           0
(PID.TID 0000.0001) ctrl-wet 6: no recs for i =    23           0
(PID.TID 0000.0001) ctrl-wet 6: no recs for i =    24           0
(PID.TID 0000.0001) ctrl-wet 6: no recs for i =    25           0
(PID.TID 0000.0001) ctrl-wet 6: no recs for i =    26           0
(PID.TID 0000.0001) ctrl-wet 6: no recs for i =    27           0
(PID.TID 0000.0001) ctrl-wet 6: no recs for i =    28           0
(PID.TID 0000.0001) ctrl-wet 6: no recs for i =    29           0
(PID.TID 0000.0001) ctrl-wet 6: no recs for i =    30           0
(PID.TID 0000.0001) ctrl-wet 6: no recs for i =    31           0
(PID.TID 0000.0001) ctrl-wet 6: no recs for i =    32           0
(PID.TID 0000.0001) ctrl-wet 6: no recs for i =    33           0
(PID.TID 0000.0001) ctrl-wet 6: no recs for i =    34           0
(PID.TID 0000.0001) ctrl-wet 6: no recs for i =    35           0
(PID.TID 0000.0001) ctrl-wet 6: no recs for i =    36           0
(PID.TID 0000.0001) ctrl-wet 6: no recs for i =    37           0
(PID.TID 0000.0001) ctrl-wet 6: no recs for i =    38           0
(PID.TID 0000.0001) ctrl-wet 6: no recs for i =    39           0
(PID.TID 0000.0001) ctrl-wet 6: no recs for i =    40           0
(PID.TID 0000.0001) ctrl-wet 6: no recs for i =    41           0
(PID.TID 0000.0001) ctrl-wet 6: no recs for i =    42           0
(PID.TID 0000.0001) ctrl-wet 6: no recs for i =    43           0
(PID.TID 0000.0001) ctrl-wet 6: no recs for i =    44           0
(PID.TID 0000.0001) ctrl-wet 6: no recs for i =    45           0
(PID.TID 0000.0001) ctrl-wet 6: no recs for i =    46           0
(PID.TID 0000.0001) ctrl-wet 6: no recs for i =    47           0
(PID.TID 0000.0001) ctrl-wet 6: no recs for i =    48           0
(PID.TID 0000.0001) ctrl-wet 6: no recs for i =    49           0
(PID.TID 0000.0001) ctrl-wet 6: no recs for i =    50           0
(PID.TID 0000.0001) ctrl-wet 6: no recs for i =    51           0
(PID.TID 0000.0001) ctrl-wet 6: no recs for i =    52           0
(PID.TID 0000.0001) ctrl-wet 6: no recs for i =    53           0
(PID.TID 0000.0001) ctrl-wet 6: no recs for i =    54           0
(PID.TID 0000.0001) ctrl-wet 6: no recs for i =    55           0
(PID.TID 0000.0001) ctrl-wet 6: no recs for i =    56           0
(PID.TID 0000.0001) ctrl-wet 6: no recs for i =    57           0
(PID.TID 0000.0001) ctrl-wet 6: no recs for i =    58           0
(PID.TID 0000.0001) ctrl-wet 6: no recs for i =    59           0
(PID.TID 0000.0001) ctrl-wet 6: no recs for i =    60           0
(PID.TID 0000.0001) ctrl-wet 6: no recs for i =    61           0
(PID.TID 0000.0001) ctrl-wet 6: no recs for i =    62           0
(PID.TID 0000.0001) ctrl-wet 6: no recs for i =    63           0
(PID.TID 0000.0001) ctrl-wet 6: no recs for i =    64           0
(PID.TID 0000.0001) ctrl-wet 6: no recs for i =    65           0
(PID.TID 0000.0001) ctrl-wet 6: no recs for i =    66           0
(PID.TID 0000.0001) ctrl-wet 6: no recs for i =    67           0
(PID.TID 0000.0001) ctrl-wet 6: no recs for i =    68           0
(PID.TID 0000.0001) ctrl-wet 6: no recs for i =    69           0
(PID.TID 0000.0001) ctrl-wet 6: no recs for i =    70           0
(PID.TID 0000.0001) ctrl-wet 6: no recs for i =    71           0
(PID.TID 0000.0001) ctrl-wet 6: no recs for i =    72           0
(PID.TID 0000.0001) ctrl-wet 6: no recs for i =    73           0
(PID.TID 0000.0001) ctrl-wet 6: no recs for i =    74           0
(PID.TID 0000.0001) ctrl-wet 6: no recs for i =    75           0
(PID.TID 0000.0001) ctrl-wet 6: no recs for i =    76           0
(PID.TID 0000.0001) ctrl-wet 6: no recs for i =    77           0
(PID.TID 0000.0001) ctrl-wet 6: no recs for i =    78           0
(PID.TID 0000.0001) ctrl-wet 6: no recs for i =    79           0
(PID.TID 0000.0001) ctrl-wet 6: no recs for i =    80           0
(PID.TID 0000.0001) ctrl-wet 6: no recs for i =    81           0
(PID.TID 0000.0001) ctrl-wet 6: no recs for i =    82           0
(PID.TID 0000.0001) ctrl-wet 6: no recs for i =    83           0
(PID.TID 0000.0001) ctrl-wet 6: no recs for i =    84           0
(PID.TID 0000.0001) ctrl-wet 6: no recs for i =    85           0
(PID.TID 0000.0001) ctrl-wet 6: no recs for i =    86           0
(PID.TID 0000.0001) ctrl-wet 6: no recs for i =    87           0
(PID.TID 0000.0001) ctrl-wet 6: no recs for i =    88           0
(PID.TID 0000.0001) ctrl-wet 6: no recs for i =    89           0
(PID.TID 0000.0001) ctrl-wet 6: no recs for i =    90           0
(PID.TID 0000.0001) ctrl-wet 6: no recs for i =    91           0
(PID.TID 0000.0001) ctrl-wet 6: no recs for i =    92           0
(PID.TID 0000.0001) ctrl-wet 6: no recs for i =    93           0
(PID.TID 0000.0001) ctrl-wet 6: no recs for i =    94           0
(PID.TID 0000.0001) ctrl-wet 6: no recs for i =    95           0
(PID.TID 0000.0001) ctrl-wet 6: no recs for i =    96           0
(PID.TID 0000.0001) ctrl-wet 6: no recs for i =    97           0
(PID.TID 0000.0001) ctrl-wet 6: no recs for i =    98           0
(PID.TID 0000.0001) ctrl-wet 6: no recs for i =    99           0
(PID.TID 0000.0001) ctrl-wet 6: no recs for i =   100           0
(PID.TID 0000.0001) ctrl-wet 6: no recs for i =   101           0
(PID.TID 0000.0001) ctrl-wet 6: no recs for i =   102           0
(PID.TID 0000.0001) ctrl-wet 6: no recs for i =   103           0
(PID.TID 0000.0001) ctrl-wet 6: no recs for i =   104           0
(PID.TID 0000.0001) ctrl-wet 6: no recs for i =   105           0
(PID.TID 0000.0001) ctrl-wet 6: no recs for i =   106           0
(PID.TID 0000.0001) ctrl-wet 6: no recs for i =   107           0
(PID.TID 0000.0001) ctrl-wet 6: no recs for i =   108           0
(PID.TID 0000.0001) ctrl-wet 6: no recs for i =   109           0
(PID.TID 0000.0001) ctrl-wet 6: no recs for i =   110           0
(PID.TID 0000.0001) ctrl-wet 6: no recs for i =   111           0
(PID.TID 0000.0001) ctrl-wet 6: no recs for i =   112           0
(PID.TID 0000.0001) ctrl-wet 6: no recs for i =   113           0
(PID.TID 0000.0001) ctrl-wet 6: no recs for i =   114           0
(PID.TID 0000.0001) ctrl-wet 6: no recs for i =   115           0
(PID.TID 0000.0001) ctrl-wet 6: no recs for i =   116           0
(PID.TID 0000.0001) ctrl-wet 6: no recs for i =   117           0
(PID.TID 0000.0001) ctrl-wet 6: no recs for i =   118           0
(PID.TID 0000.0001) ctrl-wet 6: no recs for i =   119           0
(PID.TID 0000.0001) ctrl-wet 6: no recs for i =   120           0
(PID.TID 0000.0001) ctrl-wet 6: no recs for i =   121           0
(PID.TID 0000.0001) ctrl-wet 6: no recs for i =   122           0
(PID.TID 0000.0001) ctrl-wet 6: no recs for i =   123           0
(PID.TID 0000.0001) ctrl-wet 6: no recs for i =   124           0
(PID.TID 0000.0001) ctrl-wet 6: no recs for i =   125           0
(PID.TID 0000.0001) ctrl-wet 6: no recs for i =   126           0
(PID.TID 0000.0001) ctrl-wet 6: no recs for i =   127           0
(PID.TID 0000.0001) ctrl-wet 6: no recs for i =   128           0
(PID.TID 0000.0001) ctrl-wet 6: no recs for i =   129           0
(PID.TID 0000.0001) ctrl-wet 6: no recs for i =   130           0
(PID.TID 0000.0001) ctrl-wet 6: no recs for i =   131           0
(PID.TID 0000.0001) ctrl-wet 6: no recs for i =   132           0
(PID.TID 0000.0001) ctrl-wet 6: no recs for i =   133           0
(PID.TID 0000.0001) ctrl-wet 6: no recs for i =   134           0
(PID.TID 0000.0001) ctrl-wet 6: no recs for i =   135           0
(PID.TID 0000.0001) ctrl-wet 6: no recs for i =   136           0
(PID.TID 0000.0001) ctrl-wet 6: no recs for i =   137           0
(PID.TID 0000.0001) ctrl-wet 6: no recs for i =   138           0
(PID.TID 0000.0001) ctrl-wet 6: no recs for i =   139           0
(PID.TID 0000.0001) ctrl-wet 6: no recs for i =   140           0
(PID.TID 0000.0001) ctrl-wet 6: no recs for i =   141           0
(PID.TID 0000.0001) ctrl-wet 6: no recs for i =   142           0
(PID.TID 0000.0001) ctrl-wet 6: no recs for i =   143           0
(PID.TID 0000.0001) ctrl-wet 6: no recs for i =   144           0
(PID.TID 0000.0001) ctrl-wet 6: no recs for i =   145           0
(PID.TID 0000.0001) ctrl-wet 6: no recs for i =   146           0
(PID.TID 0000.0001) ctrl-wet 6: no recs for i =   147           0
(PID.TID 0000.0001) ctrl-wet 6: no recs for i =   148           0
(PID.TID 0000.0001) ctrl-wet 6: no recs for i =   149           0
(PID.TID 0000.0001) ctrl-wet 6: no recs for i =   150           0
(PID.TID 0000.0001) ctrl-wet 6: no recs for i =   151           0
(PID.TID 0000.0001) ctrl-wet 6: no recs for i =   152           0
(PID.TID 0000.0001) ctrl-wet 6: no recs for i =   153           0
(PID.TID 0000.0001) ctrl-wet 6: no recs for i =   154           0
(PID.TID 0000.0001) ctrl-wet 6: no recs for i =   155           0
(PID.TID 0000.0001) ctrl-wet 6: no recs for i =   156           0
(PID.TID 0000.0001) ctrl-wet 6: no recs for i =   157           0
(PID.TID 0000.0001) ctrl-wet 6: no recs for i =   158           0
(PID.TID 0000.0001) ctrl-wet 6: no recs for i =   159           0
(PID.TID 0000.0001) ctrl-wet 6: no recs for i =   160           0
(PID.TID 0000.0001) ctrl-wet 6: no recs for i =   161           0
(PID.TID 0000.0001) ctrl-wet 6: no recs for i =   162           0
(PID.TID 0000.0001) ctrl-wet 6: no recs for i =   163           0
(PID.TID 0000.0001) ctrl-wet 6: no recs for i =   164           0
(PID.TID 0000.0001) ctrl-wet 6: no recs for i =   165           0
(PID.TID 0000.0001) ctrl-wet 6: no recs for i =   166           0
(PID.TID 0000.0001) ctrl-wet 6: no recs for i =   167           0
(PID.TID 0000.0001) ctrl-wet 6: no recs for i =   168           0
(PID.TID 0000.0001) ctrl-wet 6: no recs for i =   169           0
(PID.TID 0000.0001) ctrl-wet 6: no recs for i =   170           0
(PID.TID 0000.0001) ctrl-wet 6: no recs for i =   171           0
(PID.TID 0000.0001) ctrl-wet 6: no recs for i =   172           0
(PID.TID 0000.0001) ctrl-wet 6: no recs for i =   173           0
(PID.TID 0000.0001) ctrl-wet 6: no recs for i =   174           0
(PID.TID 0000.0001) ctrl-wet 6: no recs for i =   175           0
(PID.TID 0000.0001) ctrl-wet 6: no recs for i =   176           0
(PID.TID 0000.0001) ctrl-wet 6: no recs for i =   177           0
(PID.TID 0000.0001) ctrl-wet 6: no recs for i =   178           0
(PID.TID 0000.0001) ctrl-wet 6: no recs for i =   179           0
(PID.TID 0000.0001) ctrl-wet 6: no recs for i =   180           0
(PID.TID 0000.0001) ctrl-wet 6: no recs for i =   181           0
(PID.TID 0000.0001) ctrl-wet 6: no recs for i =   182           0
(PID.TID 0000.0001) ctrl-wet 6: no recs for i =   183           0
(PID.TID 0000.0001) ctrl-wet 6: no recs for i =   184           0
(PID.TID 0000.0001) ctrl-wet 6: no recs for i =   185           0
(PID.TID 0000.0001) ctrl-wet 6: no recs for i =   186           0
(PID.TID 0000.0001) ctrl-wet 6: no recs for i =   187           0
(PID.TID 0000.0001) ctrl-wet 6: no recs for i =   188           0
(PID.TID 0000.0001) ctrl-wet 6: no recs for i =   189           0
(PID.TID 0000.0001) ctrl-wet 6: no recs for i =   190           0
(PID.TID 0000.0001) ctrl-wet 6: no recs for i =   191           0
(PID.TID 0000.0001) ctrl-wet 6: no recs for i =   192           0
(PID.TID 0000.0001) ctrl-wet 6: no recs for i =   193           0
(PID.TID 0000.0001) ctrl-wet 6: no recs for i =   194           0
(PID.TID 0000.0001) ctrl-wet 6: no recs for i =   195           0
(PID.TID 0000.0001) ctrl-wet 6: no recs for i =   196           0
(PID.TID 0000.0001) ctrl-wet 6: no recs for i =   197           0
(PID.TID 0000.0001) ctrl-wet 6: no recs for i =   198           0
(PID.TID 0000.0001) ctrl-wet 6: no recs for i =   199           0
(PID.TID 0000.0001) ctrl-wet 6: no recs for i =   200           0
(PID.TID 0000.0001) ctrl-wet 6: no recs for i =   201           1
(PID.TID 0000.0001) ctrl-wet 6: no recs for i =   202           1
(PID.TID 0000.0001) ctrl-wet 6: no recs for i =   203           1
(PID.TID 0000.0001) ctrl-wet 6: no recs for i =   204           0
(PID.TID 0000.0001) ctrl-wet 6: no recs for i =   205           0
(PID.TID 0000.0001) ctrl-wet 6: no recs for i =   206           0
(PID.TID 0000.0001) ctrl-wet 6: no recs for i =   207           0
(PID.TID 0000.0001) ctrl-wet 6: no recs for i =   208           0
(PID.TID 0000.0001) ctrl-wet 6: no recs for i =   209           0
(PID.TID 0000.0001) ctrl-wet 6: no recs for i =   210           0
(PID.TID 0000.0001) ctrl-wet 6: no recs for i =   211           0
(PID.TID 0000.0001) ctrl-wet 6: no recs for i =   212           0
(PID.TID 0000.0001) ctrl-wet 6: no recs for i =   213           0
(PID.TID 0000.0001) ctrl-wet 6: no recs for i =   214           0
(PID.TID 0000.0001) ctrl-wet 6: no recs for i =   215           0
(PID.TID 0000.0001) ctrl-wet 6: no recs for i =   216           0
(PID.TID 0000.0001) ctrl-wet 6: no recs for i =   217           0
(PID.TID 0000.0001) ctrl-wet 6: no recs for i =   218           0
(PID.TID 0000.0001) ctrl-wet 6: no recs for i =   219           0
(PID.TID 0000.0001) ctrl-wet 6: no recs for i =   220           0
(PID.TID 0000.0001) ctrl-wet 6: no recs for i =   221           0
(PID.TID 0000.0001) ctrl-wet 6: no recs for i =   222           0
(PID.TID 0000.0001) ctrl-wet 6: no recs for i =   223           0
(PID.TID 0000.0001) ctrl-wet 6: no recs for i =   224           0
(PID.TID 0000.0001) ctrl-wet 6: no recs for i =   225           0
(PID.TID 0000.0001) ctrl-wet 6: no recs for i =   226           0
(PID.TID 0000.0001) ctrl-wet 6: no recs for i =   227           0
(PID.TID 0000.0001) ctrl-wet 6: no recs for i =   228           0
(PID.TID 0000.0001) ctrl-wet 6: no recs for i =   229           0
(PID.TID 0000.0001) ctrl-wet 6: no recs for i =   230           0
(PID.TID 0000.0001) ctrl-wet 6: no recs for i =   231           0
(PID.TID 0000.0001) ctrl-wet 6: no recs for i =   232           0
(PID.TID 0000.0001) ctrl-wet 6: no recs for i =   233           0
(PID.TID 0000.0001) ctrl-wet 6: no recs for i =   234           0
(PID.TID 0000.0001) ctrl-wet 6: no recs for i =   235           0
(PID.TID 0000.0001) ctrl-wet 6: no recs for i =   236           0
(PID.TID 0000.0001) ctrl-wet 6: no recs for i =   237           0
(PID.TID 0000.0001) ctrl-wet 6: no recs for i =   238           0
(PID.TID 0000.0001) ctrl-wet 6: no recs for i =   239           0
(PID.TID 0000.0001) ctrl-wet 6: no recs for i =   240           0
(PID.TID 0000.0001) ctrl-wet 6: no recs for i =   241           0
(PID.TID 0000.0001) ctrl-wet 6: no recs for i =   242           0
(PID.TID 0000.0001) ctrl-wet 6: no recs for i =   243           0
(PID.TID 0000.0001) ctrl-wet 6: no recs for i =   244           0
(PID.TID 0000.0001) ctrl-wet 6: no recs for i =   245           0
(PID.TID 0000.0001) ctrl-wet 6: no recs for i =   246           0
(PID.TID 0000.0001) ctrl-wet 6: no recs for i =   247           0
(PID.TID 0000.0001) ctrl-wet 6: no recs for i =   248           0
(PID.TID 0000.0001) ctrl-wet 6: no recs for i =   249           0
(PID.TID 0000.0001) ctrl-wet 6: no recs for i =   250           0
(PID.TID 0000.0001) ctrl-wet 6: no recs for i =   251           0
(PID.TID 0000.0001) ctrl-wet 6: no recs for i =   252           0
(PID.TID 0000.0001) ctrl-wet 6: no recs for i =   253           0
(PID.TID 0000.0001) ctrl-wet 6: no recs for i =   254           0
(PID.TID 0000.0001) ctrl-wet 6: no recs for i =   255           0
(PID.TID 0000.0001) ctrl-wet 6: no recs for i =   256           0
(PID.TID 0000.0001) ctrl-wet 6: no recs for i =   257           0
(PID.TID 0000.0001) ctrl-wet 6: no recs for i =   258           0
(PID.TID 0000.0001) ctrl-wet 6: no recs for i =   259           0
(PID.TID 0000.0001) ctrl-wet 6: no recs for i =   260           0
(PID.TID 0000.0001) ctrl-wet 6: no recs for i =   261           0
(PID.TID 0000.0001) ctrl-wet 6: no recs for i =   262           0
(PID.TID 0000.0001) ctrl-wet 6: no recs for i =   263           0
(PID.TID 0000.0001) ctrl-wet 6: no recs for i =   264           0
(PID.TID 0000.0001) ctrl-wet 6: no recs for i =   265           0
(PID.TID 0000.0001) ctrl-wet 6: no recs for i =   266           0
(PID.TID 0000.0001) ctrl-wet 6: no recs for i =   267           0
(PID.TID 0000.0001) ctrl-wet 6: no recs for i =   268           0
(PID.TID 0000.0001) ctrl-wet 6: no recs for i =   269           0
(PID.TID 0000.0001) ctrl-wet 6: no recs for i =   270           0
(PID.TID 0000.0001) ctrl-wet 6: no recs for i =   271           0
(PID.TID 0000.0001) ctrl-wet 6: no recs for i =   272           0
(PID.TID 0000.0001) ctrl-wet 6: no recs for i =   273           0
(PID.TID 0000.0001) ctrl-wet 6: no recs for i =   274           0
(PID.TID 0000.0001) ctrl-wet 6: no recs for i =   275           0
(PID.TID 0000.0001) ctrl-wet 6: no recs for i =   276           0
(PID.TID 0000.0001) ctrl-wet 6: no recs for i =   277           0
(PID.TID 0000.0001) ctrl-wet 6: no recs for i =   278           0
(PID.TID 0000.0001) ctrl-wet 6: no recs for i =   279           0
(PID.TID 0000.0001) ctrl-wet 6: no recs for i =   280           0
(PID.TID 0000.0001) ctrl-wet 6: no recs for i =   281           0
(PID.TID 0000.0001) ctrl-wet 6: no recs for i =   282           0
(PID.TID 0000.0001) ctrl-wet 6: no recs for i =   283           0
(PID.TID 0000.0001) ctrl-wet 6: no recs for i =   284           0
(PID.TID 0000.0001) ctrl-wet 6: no recs for i =   285           0
(PID.TID 0000.0001) ctrl-wet 6: no recs for i =   286           0
(PID.TID 0000.0001) ctrl-wet 6: no recs for i =   287           0
(PID.TID 0000.0001) ctrl-wet 6: no recs for i =   288           0
(PID.TID 0000.0001) ctrl-wet 6: no recs for i =   289           0
(PID.TID 0000.0001) ctrl-wet 6: no recs for i =   290           0
(PID.TID 0000.0001) ctrl-wet 6: no recs for i =   291           0
(PID.TID 0000.0001) ctrl-wet 6: no recs for i =   292           0
(PID.TID 0000.0001) ctrl-wet 6: no recs for i =   293           0
(PID.TID 0000.0001) ctrl-wet 6: no recs for i =   294           0
(PID.TID 0000.0001) ctrl-wet 6: no recs for i =   295           0
(PID.TID 0000.0001) ctrl-wet 6: no recs for i =   296           0
(PID.TID 0000.0001) ctrl-wet 6: no recs for i =   297           0
(PID.TID 0000.0001) ctrl-wet 6: no recs for i =   298           0
(PID.TID 0000.0001) ctrl-wet 6: no recs for i =   299           0
(PID.TID 0000.0001) ctrl-wet 6: no recs for i =   300           0
(PID.TID 0000.0001) ctrl-wet 6: no recs for i =   301           0
(PID.TID 0000.0001) ctrl-wet 6: no recs for i =   302           0
(PID.TID 0000.0001) ctrl-wet 6: no recs for i =   303           0
(PID.TID 0000.0001) ctrl-wet 6: no recs for i =   304           0
(PID.TID 0000.0001) ctrl-wet 6: no recs for i =   305           0
(PID.TID 0000.0001) ctrl-wet 6: no recs for i =   306           0
(PID.TID 0000.0001) ctrl-wet 6: no recs for i =   307           0
(PID.TID 0000.0001) ctrl-wet 6: no recs for i =   308           0
(PID.TID 0000.0001) ctrl-wet 6: no recs for i =   309           0
(PID.TID 0000.0001) ctrl-wet 6: no recs for i =   310           0
(PID.TID 0000.0001) ctrl-wet 6: no recs for i =   311           0
(PID.TID 0000.0001) ctrl-wet 6: no recs for i =   312           0
(PID.TID 0000.0001) ctrl-wet 6: no recs for i =   313           0
(PID.TID 0000.0001) ctrl-wet 6: no recs for i =   314           0
(PID.TID 0000.0001) ctrl-wet 6: no recs for i =   315           0
(PID.TID 0000.0001) ctrl-wet 6: no recs for i =   316           0
(PID.TID 0000.0001) ctrl-wet 6: no recs for i =   317           0
(PID.TID 0000.0001) ctrl-wet 6: no recs for i =   318           0
(PID.TID 0000.0001) ctrl-wet 6: no recs for i =   319           0
(PID.TID 0000.0001) ctrl-wet 6: no recs for i =   320           0
(PID.TID 0000.0001) ctrl-wet 6: no recs for i =   321           0
(PID.TID 0000.0001) ctrl-wet 6: no recs for i =   322           0
(PID.TID 0000.0001) ctrl-wet 6: no recs for i =   323           0
(PID.TID 0000.0001) ctrl-wet 6: no recs for i =   324           0
(PID.TID 0000.0001) ctrl-wet 6: no recs for i =   325           0
(PID.TID 0000.0001) ctrl-wet 6: no recs for i =   326           0
(PID.TID 0000.0001) ctrl-wet 6: no recs for i =   327           0
(PID.TID 0000.0001) ctrl-wet 6: no recs for i =   328           0
(PID.TID 0000.0001) ctrl-wet 6: no recs for i =   329           0
(PID.TID 0000.0001) ctrl-wet 6: no recs for i =   330           0
(PID.TID 0000.0001) ctrl-wet 6: no recs for i =   331           0
(PID.TID 0000.0001) ctrl-wet 6: no recs for i =   332           0
(PID.TID 0000.0001) ctrl-wet 6: no recs for i =   333           0
(PID.TID 0000.0001) ctrl-wet 6: no recs for i =   334           0
(PID.TID 0000.0001) ctrl-wet 6: no recs for i =   335           0
(PID.TID 0000.0001) ctrl-wet 6: no recs for i =   336           0
(PID.TID 0000.0001) ctrl-wet 6: no recs for i =   337           0
(PID.TID 0000.0001) ctrl-wet 6: no recs for i =   338           0
(PID.TID 0000.0001) ctrl-wet 6: no recs for i =   339           0
(PID.TID 0000.0001) ctrl-wet 6: no recs for i =   340           0
(PID.TID 0000.0001) ctrl-wet 6: no recs for i =   341           0
(PID.TID 0000.0001) ctrl-wet 6: no recs for i =   342           0
(PID.TID 0000.0001) ctrl-wet 6: no recs for i =   343           0
(PID.TID 0000.0001) ctrl-wet 6: no recs for i =   344           0
(PID.TID 0000.0001) ctrl-wet 6: no recs for i =   345           0
(PID.TID 0000.0001) ctrl-wet 6: no recs for i =   346           0
(PID.TID 0000.0001) ctrl-wet 6: no recs for i =   347           0
(PID.TID 0000.0001) ctrl-wet 6: no recs for i =   348           0
(PID.TID 0000.0001) ctrl-wet 6: no recs for i =   349           0
(PID.TID 0000.0001) ctrl-wet 6: no recs for i =   350           0
(PID.TID 0000.0001) ctrl-wet 6: no recs for i =   351           0
(PID.TID 0000.0001) ctrl-wet 6: no recs for i =   352           0
(PID.TID 0000.0001) ctrl-wet 6: no recs for i =   353           0
(PID.TID 0000.0001) ctrl-wet 6: no recs for i =   354           0
(PID.TID 0000.0001) ctrl-wet 6: no recs for i =   355           0
(PID.TID 0000.0001) ctrl-wet 6: no recs for i =   356           0
(PID.TID 0000.0001) ctrl-wet 6: no recs for i =   357           0
(PID.TID 0000.0001) ctrl-wet 6: no recs for i =   358           0
(PID.TID 0000.0001) ctrl-wet 6: no recs for i =   359           0
(PID.TID 0000.0001) ctrl-wet 6: no recs for i =   360           0
(PID.TID 0000.0001) ctrl-wet 6: no recs for i =   361           0
(PID.TID 0000.0001) ctrl-wet 6: no recs for i =   362           0
(PID.TID 0000.0001) ctrl-wet 6: no recs for i =   363           0
(PID.TID 0000.0001) ctrl-wet 6: no recs for i =   364           0
(PID.TID 0000.0001) ctrl-wet 6: no recs for i =   365           0
(PID.TID 0000.0001) ctrl-wet 6: no recs for i =   366           0
(PID.TID 0000.0001) ctrl-wet 6: no recs for i =   367           0
(PID.TID 0000.0001) ctrl-wet 6: no recs for i =   368           0
(PID.TID 0000.0001) ctrl-wet 6: no recs for i =   369           0
(PID.TID 0000.0001) ctrl-wet 6: no recs for i =   370           0
(PID.TID 0000.0001) ctrl-wet 6: no recs for i =   371           0
(PID.TID 0000.0001) ctrl-wet 6: no recs for i =   372           0
(PID.TID 0000.0001) ctrl-wet 6: no recs for i =   373           0
(PID.TID 0000.0001) ctrl-wet 6: no recs for i =   374           0
(PID.TID 0000.0001) ctrl-wet 6: no recs for i =   375           0
(PID.TID 0000.0001) ctrl-wet 6: no recs for i =   376           0
(PID.TID 0000.0001) ctrl-wet 6: no recs for i =   377           0
(PID.TID 0000.0001) ctrl-wet 6: no recs for i =   378           0
(PID.TID 0000.0001) ctrl-wet 6: no recs for i =   379           0
(PID.TID 0000.0001) ctrl-wet 6: no recs for i =   380           0
(PID.TID 0000.0001) ctrl-wet 6: no recs for i =   381           0
(PID.TID 0000.0001) ctrl-wet 6: no recs for i =   382           0
(PID.TID 0000.0001) ctrl-wet 6: no recs for i =   383           0
(PID.TID 0000.0001) ctrl-wet 6: no recs for i =   384           0
(PID.TID 0000.0001) ctrl-wet 6: no recs for i =   385           0
(PID.TID 0000.0001) ctrl-wet 6: no recs for i =   386           0
(PID.TID 0000.0001) ctrl-wet 6: no recs for i =   387           0
(PID.TID 0000.0001) ctrl-wet 6: no recs for i =   388           0
(PID.TID 0000.0001) ctrl-wet 6: no recs for i =   389           0
(PID.TID 0000.0001) ctrl-wet 6: no recs for i =   390           0
(PID.TID 0000.0001) ctrl-wet 6: no recs for i =   391           0
(PID.TID 0000.0001) ctrl-wet 6: no recs for i =   392           0
(PID.TID 0000.0001) ctrl-wet 6: no recs for i =   393           0
(PID.TID 0000.0001) ctrl-wet 6: no recs for i =   394           0
(PID.TID 0000.0001) ctrl-wet 6: no recs for i =   395           0
(PID.TID 0000.0001) ctrl-wet 6: no recs for i =   396           0
(PID.TID 0000.0001) ctrl-wet 6: no recs for i =   397           0
(PID.TID 0000.0001) ctrl-wet 6: no recs for i =   398           0
(PID.TID 0000.0001) ctrl-wet 6: no recs for i =   399           0
(PID.TID 0000.0001) ctrl-wet 6: no recs for i =   400           0
(PID.TID 0000.0001) ctrl-wet 7: flux         23088
(PID.TID 0000.0001) ctrl-wet 8: atmos        23088
(PID.TID 0000.0001) ctrl-wet -------------------------------------------------
(PID.TID 0000.0001) ctrl-wet 13: global nvarlength for Nr =   50     7220976
(PID.TID 0000.0001) ctrl-wet -------------------------------------------------
(PID.TID 0000.0001) ctrl-wet 14: global nWet C/S/W/V k=    1       60646       59295       59493           0
(PID.TID 0000.0001) ctrl-wet 14: global nWet C/S/W/V k=    2       60646       59295       59493           0
(PID.TID 0000.0001) ctrl-wet 14: global nWet C/S/W/V k=    3       59874       58517       58725           0
(PID.TID 0000.0001) ctrl-wet 14: global nWet C/S/W/V k=    4       59387       58040       58258           0
(PID.TID 0000.0001) ctrl-wet 14: global nWet C/S/W/V k=    5       58882       57536       57754           0
(PID.TID 0000.0001) ctrl-wet 14: global nWet C/S/W/V k=    6       58399       57057       57276           0
(PID.TID 0000.0001) ctrl-wet 14: global nWet C/S/W/V k=    7       58052       56735       56936           0
(PID.TID 0000.0001) ctrl-wet 14: global nWet C/S/W/V k=    8       57781       56461       56669           0
(PID.TID 0000.0001) ctrl-wet 14: global nWet C/S/W/V k=    9       57530       56212       56416           0
(PID.TID 0000.0001) ctrl-wet 14: global nWet C/S/W/V k=   10       57283       55964       56154           0
(PID.TID 0000.0001) ctrl-wet 14: global nWet C/S/W/V k=   11       57022       55702       55883           0
(PID.TID 0000.0001) ctrl-wet 14: global nWet C/S/W/V k=   12       56818       55497       55681           0
(PID.TID 0000.0001) ctrl-wet 14: global nWet C/S/W/V k=   13       56634       55322       55509           0
(PID.TID 0000.0001) ctrl-wet 14: global nWet C/S/W/V k=   14       56430       55125       55312           0
(PID.TID 0000.0001) ctrl-wet 14: global nWet C/S/W/V k=   15       56238       54935       55117           0
(PID.TID 0000.0001) ctrl-wet 14: global nWet C/S/W/V k=   16       55975       54689       54858           0
(PID.TID 0000.0001) ctrl-wet 14: global nWet C/S/W/V k=   17       55703       54421       54600           0
(PID.TID 0000.0001) ctrl-wet 14: global nWet C/S/W/V k=   18       55358       54075       54251           0
(PID.TID 0000.0001) ctrl-wet 14: global nWet C/S/W/V k=   19       54964       53666       53853           0
(PID.TID 0000.0001) ctrl-wet 14: global nWet C/S/W/V k=   20       54471       53205       53372           0
(PID.TID 0000.0001) ctrl-wet 14: global nWet C/S/W/V k=   21       53952       52716       52877           0
(PID.TID 0000.0001) ctrl-wet 14: global nWet C/S/W/V k=   22       53489       52249       52409           0
(PID.TID 0000.0001) ctrl-wet 14: global nWet C/S/W/V k=   23       52892       51633       51797           0
(PID.TID 0000.0001) ctrl-wet 14: global nWet C/S/W/V k=   24       52223       50961       51129           0
(PID.TID 0000.0001) ctrl-wet 14: global nWet C/S/W/V k=   25       51696       50480       50635           0
(PID.TID 0000.0001) ctrl-wet 14: global nWet C/S/W/V k=   26       51259       50075       50241           0
(PID.TID 0000.0001) ctrl-wet 14: global nWet C/S/W/V k=   27       50929       49774       49935           0
(PID.TID 0000.0001) ctrl-wet 14: global nWet C/S/W/V k=   28       50664       49532       49678           0
(PID.TID 0000.0001) ctrl-wet 14: global nWet C/S/W/V k=   29       50438       49306       49450           0
(PID.TID 0000.0001) ctrl-wet 14: global nWet C/S/W/V k=   30       50187       49035       49179           0
(PID.TID 0000.0001) ctrl-wet 14: global nWet C/S/W/V k=   31       49964       48805       48937           0
(PID.TID 0000.0001) ctrl-wet 14: global nWet C/S/W/V k=   32       49700       48530       48662           0
(PID.TID 0000.0001) ctrl-wet 14: global nWet C/S/W/V k=   33       49431       48260       48383           0
(PID.TID 0000.0001) ctrl-wet 14: global nWet C/S/W/V k=   34       49176       47993       48108           0
(PID.TID 0000.0001) ctrl-wet 14: global nWet C/S/W/V k=   35       48854       47652       47764           0
(PID.TID 0000.0001) ctrl-wet 14: global nWet C/S/W/V k=   36       48501       47264       47375           0
(PID.TID 0000.0001) ctrl-wet 14: global nWet C/S/W/V k=   37       48098       46846       46951           0
(PID.TID 0000.0001) ctrl-wet 14: global nWet C/S/W/V k=   38       47523       46253       46362           0
(PID.TID 0000.0001) ctrl-wet 14: global nWet C/S/W/V k=   39       46849       45558       45657           0
(PID.TID 0000.0001) ctrl-wet 14: global nWet C/S/W/V k=   40       45984       44670       44751           0
(PID.TID 0000.0001) ctrl-wet 14: global nWet C/S/W/V k=   41       44793       43419       43459           0
(PID.TID 0000.0001) ctrl-wet 14: global nWet C/S/W/V k=   42       42984       41497       41533           0
(PID.TID 0000.0001) ctrl-wet 14: global nWet C/S/W/V k=   43       40302       38691       38718           0
(PID.TID 0000.0001) ctrl-wet 14: global nWet C/S/W/V k=   44       36689       35007       35032           0
(PID.TID 0000.0001) ctrl-wet 14: global nWet C/S/W/V k=   45       31681       30069       29999           0
(PID.TID 0000.0001) ctrl-wet 14: global nWet C/S/W/V k=   46       25595       24028       24031           0
(PID.TID 0000.0001) ctrl-wet 14: global nWet C/S/W/V k=   47       18224       16890       16872           0
(PID.TID 0000.0001) ctrl-wet 14: global nWet C/S/W/V k=   48       11407       10397       10351           0
(PID.TID 0000.0001) ctrl-wet 14: global nWet C/S/W/V k=   49        4597        3913        3912           0
(PID.TID 0000.0001) ctrl-wet 14: global nWet C/S/W/V k=   50         818         624         622           0
(PID.TID 0000.0001) ctrl-wet -------------------------------------------------
(PID.TID 0000.0001) ctrl-wet -------------------------------------------------
(PID.TID 0000.0001) ctrl-wet -------------------------------------------------
(PID.TID 0000.0001) ctrl_init: no. of control variables:            3
(PID.TID 0000.0001) ctrl_init: control vector length:         7220976
(PID.TID 0000.0001) 
(PID.TID 0000.0001) // =======================================================
(PID.TID 0000.0001) // control vector configuration  >>> START <<<
(PID.TID 0000.0001) // =======================================================
(PID.TID 0000.0001) 
(PID.TID 0000.0001)  Total number of ocean points per tile:
(PID.TID 0000.0001)  --------------------------------------
(PID.TID 0000.0001)  snx*sny*nr =    45000
(PID.TID 0000.0001) 
(PID.TID 0000.0001)  Number of ocean points per tile:
(PID.TID 0000.0001)  --------------------------------
(PID.TID 0000.0001)  bi,bj,#(c/s/w): 0001 0001 011544 010207 011460
(PID.TID 0000.0001) 
(PID.TID 0000.0001)  Settings of generic controls:
(PID.TID 0000.0001)  -----------------------------
(PID.TID 0000.0001) 
(PID.TID 0000.0001)  ctrlUseGen  =     T /* use generic controls */
(PID.TID 0000.0001)  -> 3d control, genarr3d no.  1 is in use
(PID.TID 0000.0001)       file       = xx_kapgm
(PID.TID 0000.0001)       weight     = wt_ones.data
(PID.TID 0000.0001)  -> 3d control, genarr3d no.  2 is in use
(PID.TID 0000.0001)       file       = xx_kapredi
(PID.TID 0000.0001)       weight     = wt_ones.data
(PID.TID 0000.0001)  -> 3d control, genarr3d no.  3 is in use
(PID.TID 0000.0001)       file       = xx_diffkr
(PID.TID 0000.0001)       weight     = wt_ones.data
(PID.TID 0000.0001) 
(PID.TID 0000.0001) // =======================================================
(PID.TID 0000.0001) // control vector configuration  >>> END <<<
(PID.TID 0000.0001) // =======================================================
(PID.TID 0000.0001) 
(PID.TID 0000.0001) ------------------------------------------------------------
(PID.TID 0000.0001) DIAGNOSTICS_SET_LEVELS: done
(PID.TID 0000.0001)  Total Nb of available Diagnostics: ndiagt=   205
(PID.TID 0000.0001)  write list of available Diagnostics to file: available_diagnostics.log
(PID.TID 0000.0001) SETDIAG: Allocate  1 x  1 Levels for Diagnostic #    23 ETAN
(PID.TID 0000.0001) SETDIAG: Allocate  1 x  1 Levels for Diagnostic #    25 DETADT2
(PID.TID 0000.0001) SETDIAG: Allocate  1 x  1 Levels for Diagnostic #    73 PHIBOT
(PID.TID 0000.0001) SETDIAG: Allocate  1 x  1 Levels for Diagnostic #    77 MXLDEPTH
(PID.TID 0000.0001) SETDIAG: Allocate  1 x  1 Levels for Diagnostic #   205 oceSPDep
(PID.TID 0000.0001) SETDIAG: Allocate  1 x  1 Levels for Diagnostic #    86 oceQnet
(PID.TID 0000.0001) SETDIAG: Allocate  1 x  1 Levels for Diagnostic #    84 oceFWflx
(PID.TID 0000.0001) SETDIAG: Allocate  1 x  1 Levels for Diagnostic #    80 oceTAUX
(PID.TID 0000.0001) SETDIAG: Allocate  1 x  1 Levels for Diagnostic #    81 oceTAUY
(PID.TID 0000.0001) SETDIAG: Allocate 50 x  1 Levels for Diagnostic #    26 THETA
(PID.TID 0000.0001) SETDIAG: Allocate 50 x  1 Levels for Diagnostic #    27 SALT
(PID.TID 0000.0001) SETDIAG: Allocate 50 x  1 Levels for Diagnostic #    78 DRHODR
(PID.TID 0000.0001) SETDIAG: Allocate 50 x  1 Levels for Diagnostic #    45 UVELMASS
(PID.TID 0000.0001) SETDIAG: Allocate 50 x  1 Levels for Diagnostic #    46 VVELMASS
(PID.TID 0000.0001) SETDIAG: Allocate 50 x  1 Levels for Diagnostic #    47 WVELMASS
(PID.TID 0000.0001) SETDIAG: Allocate 50 x  1 Levels for Diagnostic #   195 GM_PsiX
(PID.TID 0000.0001) SETDIAG: Allocate 50 x  1 Levels for Diagnostic #   196 GM_PsiY
(PID.TID 0000.0001) SETDIAG: Allocate 50 x  1 Levels for Diagnostic #   114 DFxE_TH
(PID.TID 0000.0001) SETDIAG: Allocate 50 x  1 Levels for Diagnostic #   115 DFyE_TH
(PID.TID 0000.0001) SETDIAG: Allocate 50 x  1 Levels for Diagnostic #   111 ADVx_TH
(PID.TID 0000.0001) SETDIAG: Allocate 50 x  1 Levels for Diagnostic #   112 ADVy_TH
(PID.TID 0000.0001) SETDIAG: Allocate 50 x  1 Levels for Diagnostic #   121 DFxE_SLT
(PID.TID 0000.0001) SETDIAG: Allocate 50 x  1 Levels for Diagnostic #   122 DFyE_SLT
(PID.TID 0000.0001) SETDIAG: Allocate 50 x  1 Levels for Diagnostic #   118 ADVx_SLT
(PID.TID 0000.0001) SETDIAG: Allocate 50 x  1 Levels for Diagnostic #   119 ADVy_SLT
(PID.TID 0000.0001)   space allocated for all diagnostics:     809 levels
(PID.TID 0000.0001)   set mate pointer for diag #    80  oceTAUX  , Parms: UU      U1 , mate:    81
(PID.TID 0000.0001)   set mate pointer for diag #    81  oceTAUY  , Parms: VV      U1 , mate:    80
(PID.TID 0000.0001)   set mate pointer for diag #    45  UVELMASS , Parms: UUr     MR , mate:    46
(PID.TID 0000.0001)   set mate pointer for diag #    46  VVELMASS , Parms: VVr     MR , mate:    45
(PID.TID 0000.0001)   set mate pointer for diag #   195  GM_PsiX  , Parms: UU      LR , mate:   196
(PID.TID 0000.0001)   set mate pointer for diag #   196  GM_PsiY  , Parms: VV      LR , mate:   195
(PID.TID 0000.0001)   set mate pointer for diag #   114  DFxE_TH  , Parms: UU      MR , mate:   115
(PID.TID 0000.0001)   set mate pointer for diag #   115  DFyE_TH  , Parms: VV      MR , mate:   114
(PID.TID 0000.0001)   set mate pointer for diag #   111  ADVx_TH  , Parms: UU      MR , mate:   112
(PID.TID 0000.0001)   set mate pointer for diag #   112  ADVy_TH  , Parms: VV      MR , mate:   111
(PID.TID 0000.0001)   set mate pointer for diag #   121  DFxE_SLT , Parms: UU      MR , mate:   122
(PID.TID 0000.0001)   set mate pointer for diag #   122  DFyE_SLT , Parms: VV      MR , mate:   121
(PID.TID 0000.0001)   set mate pointer for diag #   118  ADVx_SLT , Parms: UU      MR , mate:   119
(PID.TID 0000.0001)   set mate pointer for diag #   119  ADVy_SLT , Parms: VV      MR , mate:   118
(PID.TID 0000.0001) DIAGNOSTICS_SET_POINTERS: Set levels for Outp.Stream: state_2d_set1
(PID.TID 0000.0001)  Levels:       1.
(PID.TID 0000.0001) DIAGNOSTICS_SET_POINTERS: Set levels for Outp.Stream: state_3d_set1
(PID.TID 0000.0001)  Levels:       1.   2.   3.   4.   5.   6.   7.   8.   9.  10.  11.  12.  13.  14.  15.  16.  17.  18.  19.  20.
(PID.TID 0000.0001)  Levels:      21.  22.  23.  24.  25.  26.  27.  28.  29.  30.  31.  32.  33.  34.  35.  36.  37.  38.  39.  40.
(PID.TID 0000.0001)  Levels:      41.  42.  43.  44.  45.  46.  47.  48.  49.  50.
(PID.TID 0000.0001) DIAGNOSTICS_SET_POINTERS: Set levels for Outp.Stream: trsp_3d_set1
(PID.TID 0000.0001)  Levels:       1.   2.   3.   4.   5.   6.   7.   8.   9.  10.  11.  12.  13.  14.  15.  16.  17.  18.  19.  20.
(PID.TID 0000.0001)  Levels:      21.  22.  23.  24.  25.  26.  27.  28.  29.  30.  31.  32.  33.  34.  35.  36.  37.  38.  39.  40.
(PID.TID 0000.0001)  Levels:      41.  42.  43.  44.  45.  46.  47.  48.  49.  50.
(PID.TID 0000.0001) DIAGNOSTICS_SET_POINTERS: Set levels for Outp.Stream: trsp_3d_set2
(PID.TID 0000.0001)  Levels:       1.   2.   3.   4.   5.   6.   7.   8.   9.  10.  11.  12.  13.  14.  15.  16.  17.  18.  19.  20.
(PID.TID 0000.0001)  Levels:      21.  22.  23.  24.  25.  26.  27.  28.  29.  30.  31.  32.  33.  34.  35.  36.  37.  38.  39.  40.
(PID.TID 0000.0001)  Levels:      41.  42.  43.  44.  45.  46.  47.  48.  49.  50.
(PID.TID 0000.0001) DIAGNOSTICS_SET_POINTERS: done
(PID.TID 0000.0001) ------------------------------------------------------------
(PID.TID 0000.0001) DIAGSTATS_SET_REGIONS: define   0 regions:
(PID.TID 0000.0001) ------------------------------------------------------------
(PID.TID 0000.0001)   space allocated for all stats-diags:       0 levels
(PID.TID 0000.0001) DIAGSTATS_SET_POINTERS: done
(PID.TID 0000.0001) ------------------------------------------------------------
(PID.TID 0000.0001) INI_GLOBAL_DOMAIN: Found   0 CS-corner Pts in the domain
(PID.TID 0000.0001) %MON fCori_max                    =   1.4584096177006E-04
(PID.TID 0000.0001) %MON fCori_min                    =  -1.4429171327635E-04
(PID.TID 0000.0001) %MON fCori_mean                   =  -1.9531894197173E-06
(PID.TID 0000.0001) %MON fCori_sd                     =   1.0434730642309E-04
(PID.TID 0000.0001) %MON fCoriG_max                   =   1.4584247033981E-04
(PID.TID 0000.0001) %MON fCoriG_min                   =  -1.4435339896041E-04
(PID.TID 0000.0001) %MON fCoriG_mean                  =  -1.9303770726087E-06
(PID.TID 0000.0001) %MON fCoriG_sd                    =   1.0435958182593E-04
(PID.TID 0000.0001) %MON fCoriCos_max                 =   1.4584158744890E-04
(PID.TID 0000.0001) %MON fCoriCos_min                 =   6.6334365221135E-07
(PID.TID 0000.0001) %MON fCoriCos_mean                =   9.3876998486639E-05
(PID.TID 0000.0001) %MON fCoriCos_sd                  =   3.9559575367967E-05
(PID.TID 0000.0001) INI_CG2D: CG2D normalisation factor =  7.1522409280111305E-05
(PID.TID 0000.0001) INI_CG2D: cg2dTolerance = 2.845112656120382E-05 (Area=3.5801386115E+14)
(PID.TID 0000.0001) 
(PID.TID 0000.0001) // =======================================================
(PID.TID 0000.0001) // Model configuration
(PID.TID 0000.0001) // =======================================================
(PID.TID 0000.0001) //
(PID.TID 0000.0001) // "Physical" paramters ( PARM01 in namelist )
(PID.TID 0000.0001) //
(PID.TID 0000.0001) buoyancyRelation = /* Type of relation to get Buoyancy */
(PID.TID 0000.0001)               'OCEANIC'
(PID.TID 0000.0001)     ;
(PID.TID 0000.0001) fluidIsAir   =  /* fluid major constituent is Air */
(PID.TID 0000.0001)                   F
(PID.TID 0000.0001)     ;
(PID.TID 0000.0001) fluidIsWater =  /* fluid major constituent is Water */
(PID.TID 0000.0001)                   T
(PID.TID 0000.0001)     ;
(PID.TID 0000.0001) usingPCoords =  /* use p (or p*) vertical coordinate */
(PID.TID 0000.0001)                   F
(PID.TID 0000.0001)     ;
(PID.TID 0000.0001) usingZCoords =  /* use z (or z*) vertical coordinate */
(PID.TID 0000.0001)                   T
(PID.TID 0000.0001)     ;
(PID.TID 0000.0001) tRef =   /* Reference temperature profile ( oC or K ) */
(PID.TID 0000.0001)     3 @  2.300000000000000E+01,             /* K =  1:  3 */
(PID.TID 0000.0001)     3 @  2.200000000000000E+01,             /* K =  4:  6 */
(PID.TID 0000.0001)                 2.100000000000000E+01,      /* K =  7 */
(PID.TID 0000.0001)     2 @  2.000000000000000E+01,             /* K =  8:  9 */
(PID.TID 0000.0001)                 1.900000000000000E+01,      /* K = 10 */
(PID.TID 0000.0001)     2 @  1.800000000000000E+01,             /* K = 11: 12 */
(PID.TID 0000.0001)                 1.700000000000000E+01,      /* K = 13 */
(PID.TID 0000.0001)     2 @  1.600000000000000E+01,             /* K = 14: 15 */
(PID.TID 0000.0001)                 1.500000000000000E+01,      /* K = 16 */
(PID.TID 0000.0001)                 1.400000000000000E+01,      /* K = 17 */
(PID.TID 0000.0001)                 1.300000000000000E+01,      /* K = 18 */
(PID.TID 0000.0001)                 1.200000000000000E+01,      /* K = 19 */
(PID.TID 0000.0001)                 1.100000000000000E+01,      /* K = 20 */
(PID.TID 0000.0001)     2 @  9.000000000000000E+00,             /* K = 21: 22 */
(PID.TID 0000.0001)                 8.000000000000000E+00,      /* K = 23 */
(PID.TID 0000.0001)                 7.000000000000000E+00,      /* K = 24 */
(PID.TID 0000.0001)     2 @  6.000000000000000E+00,             /* K = 25: 26 */
(PID.TID 0000.0001)     2 @  5.000000000000000E+00,             /* K = 27: 28 */
(PID.TID 0000.0001)     3 @  4.000000000000000E+00,             /* K = 29: 31 */
(PID.TID 0000.0001)     3 @  3.000000000000000E+00,             /* K = 32: 34 */
(PID.TID 0000.0001)     4 @  2.000000000000000E+00,             /* K = 35: 38 */
(PID.TID 0000.0001)    12 @  1.000000000000000E+00              /* K = 39: 50 */
(PID.TID 0000.0001)     ;
(PID.TID 0000.0001) sRef =   /* Reference salinity profile ( psu ) */
(PID.TID 0000.0001)    50 @  3.450000000000000E+01              /* K =  1: 50 */
(PID.TID 0000.0001)     ;
(PID.TID 0000.0001) useStrainTensionVisc= /* Use StrainTension Form of Viscous Operator */
(PID.TID 0000.0001)                   F
(PID.TID 0000.0001)     ;
(PID.TID 0000.0001) useVariableVisc = /* Use variable horizontal viscosity */
(PID.TID 0000.0001)                   T
(PID.TID 0000.0001)     ;
(PID.TID 0000.0001) useHarmonicVisc = /* Use harmonic horizontal viscosity */
(PID.TID 0000.0001)                   T
(PID.TID 0000.0001)     ;
(PID.TID 0000.0001) useBiharmonicVisc= /* Use biharmonic horiz.  viscosity */
(PID.TID 0000.0001)                   T
(PID.TID 0000.0001)     ;
(PID.TID 0000.0001) useSmag3D = /* Use isotropic 3-D Smagorinsky viscosity */
(PID.TID 0000.0001)                   F
(PID.TID 0000.0001)     ;
(PID.TID 0000.0001) viscAh  =   /* Lateral harmonic viscosity ( m^2/s ) */
(PID.TID 0000.0001)                 1.000000000000000E+00
(PID.TID 0000.0001)     ;
(PID.TID 0000.0001) viscAhMax = /* Maximum lateral harmonic viscosity ( m^2/s ) */
(PID.TID 0000.0001)                 1.000000000000000E+21
(PID.TID 0000.0001)     ;
(PID.TID 0000.0001) viscAhGrid = /* Grid dependent lateral harmonic viscosity ( non-dim. ) */
(PID.TID 0000.0001)                 2.000000000000000E-02
(PID.TID 0000.0001)     ;
(PID.TID 0000.0001) useFullLeith = /* Use Full Form of Leith Viscosity on/off flag*/
(PID.TID 0000.0001)                   F
(PID.TID 0000.0001)     ;
(PID.TID 0000.0001) useAreaViscLength = /* Use area for visc length instead of geom. mean*/
(PID.TID 0000.0001)                   F
(PID.TID 0000.0001)     ;
(PID.TID 0000.0001) viscC2leith = /* Leith harmonic visc. factor (on grad(vort),non-dim.) */
(PID.TID 0000.0001)                 0.000000000000000E+00
(PID.TID 0000.0001)     ;
(PID.TID 0000.0001) viscC2leithD = /* Leith harmonic viscosity factor (on grad(div),non-dim.)*/
(PID.TID 0000.0001)                 0.000000000000000E+00
(PID.TID 0000.0001)     ;
(PID.TID 0000.0001) viscC2smag = /* Smagorinsky harmonic viscosity factor (non-dim.) */
(PID.TID 0000.0001)                 0.000000000000000E+00
(PID.TID 0000.0001)     ;
(PID.TID 0000.0001) viscA4  =   /* Lateral biharmonic viscosity ( m^4/s ) */
(PID.TID 0000.0001)                 0.000000000000000E+00
(PID.TID 0000.0001)     ;
(PID.TID 0000.0001) viscA4Max = /* Maximum biharmonic viscosity ( m^2/s ) */
(PID.TID 0000.0001)                 1.000000000000000E+21
(PID.TID 0000.0001)     ;
(PID.TID 0000.0001) viscA4Grid = /* Grid dependent biharmonic viscosity ( non-dim. ) */
(PID.TID 0000.0001)                 0.000000000000000E+00
(PID.TID 0000.0001)     ;
(PID.TID 0000.0001) viscC4leith = /* Leith biharm viscosity factor (on grad(vort), non-dim.)*/
(PID.TID 0000.0001)                 0.000000000000000E+00
(PID.TID 0000.0001)     ;
(PID.TID 0000.0001) viscC4leithD = /* Leith biharm viscosity factor (on grad(div), non-dim.) */
(PID.TID 0000.0001)                 0.000000000000000E+00
(PID.TID 0000.0001)     ;
(PID.TID 0000.0001) viscC4Smag = /* Smagorinsky biharm viscosity factor (non-dim) */
(PID.TID 0000.0001)                 0.000000000000000E+00
(PID.TID 0000.0001)     ;
(PID.TID 0000.0001) no_slip_sides =  /* Viscous BCs: No-slip sides */
(PID.TID 0000.0001)                   T
(PID.TID 0000.0001)     ;
(PID.TID 0000.0001) sideDragFactor = /* side-drag scaling factor (non-dim) */
(PID.TID 0000.0001)                 2.000000000000000E+00
(PID.TID 0000.0001)     ;
(PID.TID 0000.0001) viscArNr = /* vertical profile of vertical viscosity ( m^2/s )*/
(PID.TID 0000.0001)    50 @  5.000000000000000E-05              /* K =  1: 50 */
(PID.TID 0000.0001)     ;
(PID.TID 0000.0001) no_slip_bottom =  /* Viscous BCs: No-slip bottom */
(PID.TID 0000.0001)                   T
(PID.TID 0000.0001)     ;
(PID.TID 0000.0001) bottomVisc_pCell = /* Partial-cell in bottom Visc. BC */
(PID.TID 0000.0001)                   F
(PID.TID 0000.0001)     ;
(PID.TID 0000.0001) bottomDragLinear = /* linear bottom-drag coefficient ( m/s ) */
(PID.TID 0000.0001)                 0.000000000000000E+00
(PID.TID 0000.0001)     ;
(PID.TID 0000.0001) bottomDragQuadratic = /* quadratic bottom-drag coefficient (-) */
(PID.TID 0000.0001)                 1.000000000000000E-03
(PID.TID 0000.0001)     ;
(PID.TID 0000.0001) selectBotDragQuadr = /* select quadratic bottom drag options */
(PID.TID 0000.0001)                       0
(PID.TID 0000.0001)     ;
(PID.TID 0000.0001) diffKhT =   /* Laplacian diffusion of heat laterally ( m^2/s ) */
(PID.TID 0000.0001)                 1.000000000000000E+01
(PID.TID 0000.0001)     ;
(PID.TID 0000.0001) diffK4T =   /* Biharmonic diffusion of heat laterally ( m^4/s ) */
(PID.TID 0000.0001)                 0.000000000000000E+00
(PID.TID 0000.0001)     ;
(PID.TID 0000.0001) diffKhS =   /* Laplacian diffusion of salt laterally ( m^2/s ) */
(PID.TID 0000.0001)                 1.000000000000000E+01
(PID.TID 0000.0001)     ;
(PID.TID 0000.0001) diffK4S =   /* Biharmonic diffusion of salt laterally ( m^4/s ) */
(PID.TID 0000.0001)                 0.000000000000000E+00
(PID.TID 0000.0001)     ;
(PID.TID 0000.0001) diffKrNrT = /* vertical profile of vertical diffusion of Temp ( m^2/s )*/
(PID.TID 0000.0001)    50 @  1.000000000000000E-05              /* K =  1: 50 */
(PID.TID 0000.0001)     ;
(PID.TID 0000.0001) diffKrNrS = /* vertical profile of vertical diffusion of Salt ( m^2/s )*/
(PID.TID 0000.0001)    50 @  1.000000000000000E-05              /* K =  1: 50 */
(PID.TID 0000.0001)     ;
(PID.TID 0000.0001) diffKrBL79surf = /* Surface diffusion for Bryan and Lewis 79 ( m^2/s ) */
(PID.TID 0000.0001)                 0.000000000000000E+00
(PID.TID 0000.0001)     ;
(PID.TID 0000.0001) diffKrBL79deep = /* Deep diffusion for Bryan and Lewis 1979 ( m^2/s ) */
(PID.TID 0000.0001)                 0.000000000000000E+00
(PID.TID 0000.0001)     ;
(PID.TID 0000.0001) diffKrBL79scl = /* Depth scale for Bryan and Lewis 1979 ( m ) */
(PID.TID 0000.0001)                 2.000000000000000E+02
(PID.TID 0000.0001)     ;
(PID.TID 0000.0001) diffKrBL79Ho = /* Turning depth for Bryan and Lewis 1979 ( m ) */
(PID.TID 0000.0001)                -2.000000000000000E+03
(PID.TID 0000.0001)     ;
(PID.TID 0000.0001) ivdc_kappa = /* Implicit Vertical Diffusivity for Convection ( m^2/s) */
(PID.TID 0000.0001)                 1.000000000000000E+01
(PID.TID 0000.0001)     ;
(PID.TID 0000.0001) hMixCriteria=  /* Criteria for mixed-layer diagnostic */
(PID.TID 0000.0001)                -8.000000000000000E-01
(PID.TID 0000.0001)     ;
(PID.TID 0000.0001) dRhoSmall =  /* Parameter for mixed-layer diagnostic */
(PID.TID 0000.0001)                 1.000000000000000E-06
(PID.TID 0000.0001)     ;
(PID.TID 0000.0001) hMixSmooth=  /* Smoothing parameter for mixed-layer diagnostic */
(PID.TID 0000.0001)                 0.000000000000000E+00
(PID.TID 0000.0001)     ;
(PID.TID 0000.0001) eosType =  /* Type of Equation of State */
(PID.TID 0000.0001)               'JMD95Z'
(PID.TID 0000.0001)     ;
(PID.TID 0000.0001) selectP_inEOS_Zc = /* select pressure to use in EOS (0,1,2,3) */
(PID.TID 0000.0001)                       0
(PID.TID 0000.0001)     0= -g*rhoConst*z ; 1= pRef (from tRef,sRef); 2= Hyd P ; 3= Hyd+NH P
(PID.TID 0000.0001)     ;
(PID.TID 0000.0001) HeatCapacity_Cp =  /* Specific heat capacity ( J/kg/K ) */
(PID.TID 0000.0001)                 3.994000000000000E+03
(PID.TID 0000.0001)     ;
(PID.TID 0000.0001) celsius2K = /* 0 degree Celsius converted to Kelvin ( K ) */
(PID.TID 0000.0001)                 2.731500000000000E+02
(PID.TID 0000.0001)     ;
(PID.TID 0000.0001) rhoConst  = /* Reference density (Boussinesq)  ( kg/m^3 ) */
(PID.TID 0000.0001)                 1.029000000000000E+03
(PID.TID 0000.0001)     ;
(PID.TID 0000.0001) rhoFacC = /* normalized Reference density @ cell-Center (-) */
(PID.TID 0000.0001)    50 @  1.000000000000000E+00              /* K =  1: 50 */
(PID.TID 0000.0001)     ;
(PID.TID 0000.0001) rhoFacF = /* normalized Reference density @ W-Interface (-) */
(PID.TID 0000.0001)    51 @  1.000000000000000E+00              /* K =  1: 51 */
(PID.TID 0000.0001)     ;
(PID.TID 0000.0001) rhoConstFresh = /* Fresh-water reference density ( kg/m^3 ) */
(PID.TID 0000.0001)                 1.000000000000000E+03
(PID.TID 0000.0001)     ;
(PID.TID 0000.0001) gravity =   /* Gravitational acceleration ( m/s^2 ) */
(PID.TID 0000.0001)                 9.810000000000000E+00
(PID.TID 0000.0001)     ;
(PID.TID 0000.0001) gBaro =   /* Barotropic gravity ( m/s^2 ) */
(PID.TID 0000.0001)                 9.810000000000000E+00
(PID.TID 0000.0001)     ;
(PID.TID 0000.0001) gravFacC = /* gravity factor (vs surf.) @ cell-Center (-) */
(PID.TID 0000.0001)    50 @  1.000000000000000E+00              /* K =  1: 50 */
(PID.TID 0000.0001)     ;
(PID.TID 0000.0001) gravFacF = /* gravity factor (vs surf.) @ W-Interface (-) */
(PID.TID 0000.0001)    51 @  1.000000000000000E+00              /* K =  1: 51 */
(PID.TID 0000.0001)     ;
(PID.TID 0000.0001) rotationPeriod =   /* Rotation Period ( s ) */
(PID.TID 0000.0001)                 8.616400000000000E+04
(PID.TID 0000.0001)     ;
(PID.TID 0000.0001) omega =   /* Angular velocity ( rad/s ) */
(PID.TID 0000.0001)                 7.292123516990375E-05
(PID.TID 0000.0001)     ;
(PID.TID 0000.0001) f0 =   /* Reference coriolis parameter ( 1/s ) */
(PID.TID 0000.0001)                 1.000000000000000E-04
(PID.TID 0000.0001)     ;
(PID.TID 0000.0001) beta =   /* Beta ( 1/(m.s) ) */
(PID.TID 0000.0001)                 9.999999999999999E-12
(PID.TID 0000.0001)     ;
(PID.TID 0000.0001) fPrime =   /* Second coriolis parameter ( 1/s ) */
(PID.TID 0000.0001)                 0.000000000000000E+00
(PID.TID 0000.0001)     ;
(PID.TID 0000.0001) rigidLid =   /* Rigid lid on/off flag */
(PID.TID 0000.0001)                   F
(PID.TID 0000.0001)     ;
(PID.TID 0000.0001) implicitFreeSurface =   /* Implicit free surface on/off flag */
(PID.TID 0000.0001)                   T
(PID.TID 0000.0001)     ;
(PID.TID 0000.0001) freeSurfFac =   /* Implicit free surface factor */
(PID.TID 0000.0001)                 1.000000000000000E+00
(PID.TID 0000.0001)     ;
(PID.TID 0000.0001) implicSurfPress =  /* Surface Pressure implicit factor (0-1)*/
(PID.TID 0000.0001)                 1.000000000000000E+00
(PID.TID 0000.0001)     ;
(PID.TID 0000.0001) implicDiv2DFlow =  /* Barot. Flow Div. implicit factor (0-1)*/
(PID.TID 0000.0001)                 1.000000000000000E+00
(PID.TID 0000.0001)     ;
(PID.TID 0000.0001) uniformLin_PhiSurf = /* use uniform Bo_surf on/off flag*/
(PID.TID 0000.0001)                   T
(PID.TID 0000.0001)     ;
(PID.TID 0000.0001) uniformFreeSurfLev = /* free-surface level-index is uniform */
(PID.TID 0000.0001)                   T
(PID.TID 0000.0001)     ;
(PID.TID 0000.0001) hFacMin =   /* minimum partial cell factor (hFac) */
(PID.TID 0000.0001)                 2.000000000000000E-01
(PID.TID 0000.0001)     ;
(PID.TID 0000.0001) hFacMinDr = /* minimum partial cell thickness ( m) */
(PID.TID 0000.0001)                 5.000000000000000E+00
(PID.TID 0000.0001)     ;
(PID.TID 0000.0001) exactConserv =  /* Exact Volume Conservation on/off flag*/
(PID.TID 0000.0001)                   T
(PID.TID 0000.0001)     ;
(PID.TID 0000.0001) linFSConserveTr = /* Tracer correction for Lin Free Surface on/off flag*/
(PID.TID 0000.0001)                   F
(PID.TID 0000.0001)     ;
(PID.TID 0000.0001) nonlinFreeSurf = /* Non-linear Free Surf. options (-1,0,1,2,3)*/
(PID.TID 0000.0001)                       4
(PID.TID 0000.0001)      -1,0= Off ; 1,2,3= On, 2=+rescale gU,gV, 3=+update cg2d solv.
(PID.TID 0000.0001)     ;
(PID.TID 0000.0001) hFacInf =   /* lower threshold for hFac (nonlinFreeSurf only)*/
(PID.TID 0000.0001)                 2.000000000000000E-01
(PID.TID 0000.0001)     ;
(PID.TID 0000.0001) hFacSup =   /* upper threshold for hFac (nonlinFreeSurf only)*/
(PID.TID 0000.0001)                 2.000000000000000E+00
(PID.TID 0000.0001)     ;
(PID.TID 0000.0001) select_rStar = /* r* Vertical coord. options (=0 r coord.; >0 uses r*)*/
(PID.TID 0000.0001)                       2
(PID.TID 0000.0001)     ;
(PID.TID 0000.0001) useRealFreshWaterFlux = /* Real Fresh Water Flux on/off flag*/
(PID.TID 0000.0001)                   T
(PID.TID 0000.0001)     ;
(PID.TID 0000.0001) temp_EvPrRn = /* Temp. of Evap/Prec/R (UNSET=use local T)(oC)*/
(PID.TID 0000.0001)                 1.234567000000000E+05
(PID.TID 0000.0001)     ;
(PID.TID 0000.0001) salt_EvPrRn = /* Salin. of Evap/Prec/R (UNSET=use local S)(psu)*/
(PID.TID 0000.0001)                 0.000000000000000E+00
(PID.TID 0000.0001)     ;
(PID.TID 0000.0001) selectAddFluid = /* option for mass source/sink of fluid (=0: off) */
(PID.TID 0000.0001)                       0
(PID.TID 0000.0001)     ;
(PID.TID 0000.0001) temp_addMass = /* Temp. of addMass array (UNSET=use local T)(oC)*/
(PID.TID 0000.0001)                 1.234567000000000E+05
(PID.TID 0000.0001)     ;
(PID.TID 0000.0001) salt_addMass = /* Salin. of addMass array (UNSET=use local S)(psu)*/
(PID.TID 0000.0001)                 0.000000000000000E+00
(PID.TID 0000.0001)     ;
(PID.TID 0000.0001) use3Dsolver = /* use 3-D pressure solver on/off flag */
(PID.TID 0000.0001)                   F
(PID.TID 0000.0001)     ;
(PID.TID 0000.0001) nonHydrostatic =  /* Non-Hydrostatic on/off flag */
(PID.TID 0000.0001)                   F
(PID.TID 0000.0001)     ;
(PID.TID 0000.0001) nh_Am2 = /* Non-Hydrostatic terms scaling factor */
(PID.TID 0000.0001)                 1.000000000000000E+00
(PID.TID 0000.0001)     ;
(PID.TID 0000.0001) implicitNHPress = /* Non-Hyd Pressure implicit factor (0-1)*/
(PID.TID 0000.0001)                 1.000000000000000E+00
(PID.TID 0000.0001)     ;
(PID.TID 0000.0001) selectNHfreeSurf = /* Non-Hyd (free-)Surface option */
(PID.TID 0000.0001)                       0
(PID.TID 0000.0001)     ;
(PID.TID 0000.0001) quasiHydrostatic = /* Quasi-Hydrostatic on/off flag */
(PID.TID 0000.0001)                   F
(PID.TID 0000.0001)     ;
(PID.TID 0000.0001) calc_wVelocity = /* vertical velocity calculation on/off flag */
(PID.TID 0000.0001)                   T
(PID.TID 0000.0001)     ;
(PID.TID 0000.0001) momStepping =  /* Momentum equation on/off flag */
(PID.TID 0000.0001)                   T
(PID.TID 0000.0001)     ;
(PID.TID 0000.0001) vectorInvariantMomentum= /* Vector-Invariant Momentum on/off */
(PID.TID 0000.0001)                   T
(PID.TID 0000.0001)     ;
(PID.TID 0000.0001) momAdvection =  /* Momentum advection on/off flag */
(PID.TID 0000.0001)                   T
(PID.TID 0000.0001)     ;
(PID.TID 0000.0001) momViscosity =  /* Momentum viscosity on/off flag */
(PID.TID 0000.0001)                   T
(PID.TID 0000.0001)     ;
(PID.TID 0000.0001) momImplVertAdv= /* Momentum implicit vert. advection on/off*/
(PID.TID 0000.0001)                   F
(PID.TID 0000.0001)     ;
(PID.TID 0000.0001) implicitViscosity = /* Implicit viscosity on/off flag */
(PID.TID 0000.0001)                   T
(PID.TID 0000.0001)     ;
(PID.TID 0000.0001) selectImplicitDrag= /* Implicit bot Drag options (0,1,2)*/
(PID.TID 0000.0001)                       0
(PID.TID 0000.0001)     0= Expl. ; 1= Impl. on provis. Vel ; 2= Fully Impl (with surf.P)
(PID.TID 0000.0001)     ;
(PID.TID 0000.0001) metricTerms =  /* metric-Terms on/off flag */
(PID.TID 0000.0001)                   F
(PID.TID 0000.0001)     ;
(PID.TID 0000.0001) useNHMTerms = /* Non-Hydrostatic Metric-Terms on/off */
(PID.TID 0000.0001)                   F
(PID.TID 0000.0001)     ;
(PID.TID 0000.0001) selectCoriMap = /* Coriolis Map options (0,1,2,3)*/
(PID.TID 0000.0001)                       2
(PID.TID 0000.0001)     0= f-Plane ; 1= Beta-Plane ; 2= Spherical ; 3= read from file
(PID.TID 0000.0001)     ;
(PID.TID 0000.0001) use3dCoriolis = /* 3-D Coriolis on/off flag */
(PID.TID 0000.0001)                   F
(PID.TID 0000.0001)     ;
(PID.TID 0000.0001) useCoriolis =  /* Coriolis on/off flag */
(PID.TID 0000.0001)                   T
(PID.TID 0000.0001)     ;
(PID.TID 0000.0001) useCDscheme =  /* CD scheme on/off flag */
(PID.TID 0000.0001)                   F
(PID.TID 0000.0001)     ;
(PID.TID 0000.0001) useEnergyConservingCoriolis= /* Flx-Form Coriolis scheme flag */
(PID.TID 0000.0001)                   F
(PID.TID 0000.0001)     ;
(PID.TID 0000.0001) useJamartWetPoints= /* Coriolis WetPoints method flag */
(PID.TID 0000.0001)                   T
(PID.TID 0000.0001)     ;
(PID.TID 0000.0001) useJamartMomAdv= /* V.I Non-linear terms Jamart flag */
(PID.TID 0000.0001)                   F
(PID.TID 0000.0001)     ;
(PID.TID 0000.0001) useAbsVorticity= /* V.I Works with f+zeta in Coriolis */
(PID.TID 0000.0001)                   F
(PID.TID 0000.0001)     ;
(PID.TID 0000.0001) selectVortScheme= /* V.I Scheme selector for Vorticity-Term */
(PID.TID 0000.0001)                       1
(PID.TID 0000.0001)    = 0 : enstrophy (Shallow-Water Eq.) conserving scheme by Sadourny, JAS 75
(PID.TID 0000.0001)    = 1 : same as 0 with modified hFac
(PID.TID 0000.0001)    = 2 : energy conserving scheme (used by Sadourny in JAS 75 paper)
(PID.TID 0000.0001)    = 3 : energy (general) and enstrophy (2D, nonDiv.) conserving scheme
(PID.TID 0000.0001)          from Sadourny (Burridge & Haseler, ECMWF Rep.4, 1977)
(PID.TID 0000.0001)     ;
(PID.TID 0000.0001) upwindVorticity= /* V.I Upwind bias vorticity flag */
(PID.TID 0000.0001)                   F
(PID.TID 0000.0001)     ;
(PID.TID 0000.0001) highOrderVorticity= /* V.I High order vort. advect. flag */
(PID.TID 0000.0001)                   F
(PID.TID 0000.0001)     ;
(PID.TID 0000.0001) upwindShear= /* V.I Upwind vertical Shear advection flag */
(PID.TID 0000.0001)                   F
(PID.TID 0000.0001)     ;
(PID.TID 0000.0001) selectKEscheme= /* V.I Kinetic Energy scheme selector */
(PID.TID 0000.0001)                       0
(PID.TID 0000.0001)     ;
(PID.TID 0000.0001) momForcing =  /* Momentum forcing on/off flag */
(PID.TID 0000.0001)                   T
(PID.TID 0000.0001)     ;
(PID.TID 0000.0001) momTidalForcing = /* Momentum Tidal forcing on/off flag */
(PID.TID 0000.0001)                   T
(PID.TID 0000.0001)     ;
(PID.TID 0000.0001) momPressureForcing =  /* Momentum pressure term on/off flag */
(PID.TID 0000.0001)                   T
(PID.TID 0000.0001)     ;
(PID.TID 0000.0001) implicitIntGravWave= /* Implicit Internal Gravity Wave flag */
(PID.TID 0000.0001)                   F
(PID.TID 0000.0001)     ;
(PID.TID 0000.0001) staggerTimeStep =    /* Stagger time stepping on/off flag */
(PID.TID 0000.0001)                   T
(PID.TID 0000.0001)     ;
(PID.TID 0000.0001) doResetHFactors = /* reset thickness factors @ each time-step */
(PID.TID 0000.0001)                   F
(PID.TID 0000.0001)     ;
(PID.TID 0000.0001) multiDimAdvection =  /* enable/disable Multi-Dim Advection */
(PID.TID 0000.0001)                   T
(PID.TID 0000.0001)     ;
(PID.TID 0000.0001) useMultiDimAdvec =   /* Multi-Dim Advection is/is-not used */
(PID.TID 0000.0001)                   T
(PID.TID 0000.0001)     ;
(PID.TID 0000.0001) implicitDiffusion = /* Implicit Diffusion on/off flag */
(PID.TID 0000.0001)                   T
(PID.TID 0000.0001)     ;
(PID.TID 0000.0001) tempStepping =  /* Temperature equation on/off flag */
(PID.TID 0000.0001)                   T
(PID.TID 0000.0001)     ;
(PID.TID 0000.0001) tempAdvection = /* Temperature advection on/off flag */
(PID.TID 0000.0001)                   T
(PID.TID 0000.0001)     ;
(PID.TID 0000.0001) tempImplVertAdv = /* Temp. implicit vert. advection on/off */
(PID.TID 0000.0001)                   T
(PID.TID 0000.0001)     ;
(PID.TID 0000.0001) tempForcing  =  /* Temperature forcing on/off flag */
(PID.TID 0000.0001)                   T
(PID.TID 0000.0001)     ;
(PID.TID 0000.0001) balanceQnet  =  /* balance net heat-flux on/off flag */
(PID.TID 0000.0001)                   F
(PID.TID 0000.0001)     ;
(PID.TID 0000.0001) doThetaClimRelax = /* apply SST relaxation on/off flag */
(PID.TID 0000.0001)                   F
(PID.TID 0000.0001)     ;
(PID.TID 0000.0001) balanceThetaClimRelax= /* balance SST relaxation on/off flag */
(PID.TID 0000.0001)                   F
(PID.TID 0000.0001)     ;
(PID.TID 0000.0001) tempIsActiveTr = /* Temp. is a dynamically Active Tracer */
(PID.TID 0000.0001)                   T
(PID.TID 0000.0001)     ;
(PID.TID 0000.0001) saltStepping =  /* Salinity equation on/off flag */
(PID.TID 0000.0001)                   T
(PID.TID 0000.0001)     ;
(PID.TID 0000.0001) saltAdvection = /* Salinity advection on/off flag */
(PID.TID 0000.0001)                   T
(PID.TID 0000.0001)     ;
(PID.TID 0000.0001) saltImplVertAdv = /* Sali. implicit vert. advection on/off */
(PID.TID 0000.0001)                   T
(PID.TID 0000.0001)     ;
(PID.TID 0000.0001) saltForcing  =  /* Salinity forcing on/off flag */
(PID.TID 0000.0001)                   T
(PID.TID 0000.0001)     ;
(PID.TID 0000.0001) balanceEmPmR =  /* balance net fresh-water flux on/off flag */
(PID.TID 0000.0001)                   F
(PID.TID 0000.0001)     ;
(PID.TID 0000.0001) doSaltClimRelax = /* apply SSS relaxation on/off flag */
(PID.TID 0000.0001)                   F
(PID.TID 0000.0001)     ;
(PID.TID 0000.0001) balanceSaltClimRelax= /* balance SSS relaxation on/off flag */
(PID.TID 0000.0001)                   T
(PID.TID 0000.0001)     ;
(PID.TID 0000.0001) saltIsActiveTr = /* Salt  is a dynamically Active Tracer */
(PID.TID 0000.0001)                   T
(PID.TID 0000.0001)     ;
(PID.TID 0000.0001)  readBinaryPrec = /* Precision used for reading binary files */
(PID.TID 0000.0001)                      32
(PID.TID 0000.0001)     ;
(PID.TID 0000.0001) writeBinaryPrec = /* Precision used for writing binary files */
(PID.TID 0000.0001)                      32
(PID.TID 0000.0001)     ;
(PID.TID 0000.0001)  rwSuffixType =   /* select format of mds file suffix */
(PID.TID 0000.0001)                       0
(PID.TID 0000.0001)    = 0 : myIter (I10.10) ;   = 1 : 100*myTime (100th sec) ;
(PID.TID 0000.0001)    = 2 : myTime (seconds);   = 3 : myTime/360 (10th of hr);
(PID.TID 0000.0001)    = 4 : myTime/3600 (hours)
(PID.TID 0000.0001)     ;
(PID.TID 0000.0001)  globalFiles = /* write "global" (=not per tile) files */
(PID.TID 0000.0001)                   F
(PID.TID 0000.0001)     ;
(PID.TID 0000.0001)  useSingleCpuIO = /* only master MPI process does I/O */
(PID.TID 0000.0001)                   T
(PID.TID 0000.0001)     ;
(PID.TID 0000.0001)  useSingleCpuInput = /* only master process reads input */
(PID.TID 0000.0001)                   T
(PID.TID 0000.0001)     ;
(PID.TID 0000.0001) /* debLev[*]  : level of debug & auxiliary message printing */
(PID.TID 0000.0001) debLevZero =  0 ; /* level of disabled aux. msg printing */
(PID.TID 0000.0001)    debLevA =  1 ; /* level of minimum  aux. msg printing */
(PID.TID 0000.0001)    debLevB =  2 ; /* level of low aux. print (report read-file opening)*/
(PID.TID 0000.0001)    debLevC =  3 ; /* level of moderate debug prt (most pkgs debug msg) */
(PID.TID 0000.0001)    debLevD =  4 ; /* level of enhanced debug prt (add DEBUG_STATS prt) */
(PID.TID 0000.0001)    debLevE =  5 ; /* level of extensive debug printing */
(PID.TID 0000.0001) debugLevel =  /* select debug printing level */
(PID.TID 0000.0001)                       1
(PID.TID 0000.0001)     ;
(PID.TID 0000.0001)  plotLevel =  /* select PLOT_FIELD printing level */
(PID.TID 0000.0001)                       1
(PID.TID 0000.0001)     ;
(PID.TID 0000.0001) //
(PID.TID 0000.0001) // Elliptic solver(s) paramters ( PARM02 in namelist )
(PID.TID 0000.0001) //
(PID.TID 0000.0001) cg2dMaxIters =   /* Upper limit on 2d con. grad iterations  */
(PID.TID 0000.0001)                     300
(PID.TID 0000.0001)     ;
(PID.TID 0000.0001) cg2dChkResFreq =   /* 2d con. grad convergence test frequency */
(PID.TID 0000.0001)                       1
(PID.TID 0000.0001)     ;
(PID.TID 0000.0001) cg2dUseMinResSol= /* use cg2d last-iter(=0) / min-resid.(=1) solution */
(PID.TID 0000.0001)                       0
(PID.TID 0000.0001)     ;
(PID.TID 0000.0001) cg2dTargetResidual =   /* 2d con. grad target residual  */
(PID.TID 0000.0001)                 1.000000000000000E-07
(PID.TID 0000.0001)     ;
(PID.TID 0000.0001) cg2dTargetResWunit =   /* CG2d target residual [W units] */
(PID.TID 0000.0001)                 1.000000000000000E-12
(PID.TID 0000.0001)     ;
(PID.TID 0000.0001) cg2dPreCondFreq =   /* Freq. for updating cg2d preconditioner */
(PID.TID 0000.0001)                       1
(PID.TID 0000.0001)     ;
(PID.TID 0000.0001) useSRCGSolver =  /* use single reduction CG solver(s) */
(PID.TID 0000.0001)                   F
(PID.TID 0000.0001)     ;
(PID.TID 0000.0001) printResidualFreq = /* Freq. for printing CG residual */
(PID.TID 0000.0001)                       0
(PID.TID 0000.0001)     ;
(PID.TID 0000.0001) //
(PID.TID 0000.0001) // Time stepping paramters ( PARM03 in namelist )
(PID.TID 0000.0001) //
(PID.TID 0000.0001) deltaTMom =   /* Momentum equation timestep ( s ) */
(PID.TID 0000.0001)                 9.000000000000000E+02
(PID.TID 0000.0001)     ;
(PID.TID 0000.0001) deltaTFreeSurf = /* FreeSurface equation timestep ( s ) */
(PID.TID 0000.0001)                 9.000000000000000E+02
(PID.TID 0000.0001)     ;
(PID.TID 0000.0001) dTtracerLev =  /* Tracer equation timestep ( s ) */
(PID.TID 0000.0001)    50 @  9.000000000000000E+02              /* K =  1: 50 */
(PID.TID 0000.0001)     ;
(PID.TID 0000.0001) deltaTClock  =   /* Model clock timestep ( s ) */
(PID.TID 0000.0001)                 9.000000000000000E+02
(PID.TID 0000.0001)     ;
(PID.TID 0000.0001) cAdjFreq =   /* Convective adjustment interval ( s ) */
(PID.TID 0000.0001)                 0.000000000000000E+00
(PID.TID 0000.0001)     ;
(PID.TID 0000.0001) momForcingOutAB = /* =1: take Momentum Forcing out of Adams-Bash. stepping */
(PID.TID 0000.0001)                       1
(PID.TID 0000.0001)     ;
(PID.TID 0000.0001) tracForcingOutAB = /* =1: take T,S,pTr Forcing out of Adams-Bash. stepping */
(PID.TID 0000.0001)                       1
(PID.TID 0000.0001)     ;
(PID.TID 0000.0001) momDissip_In_AB = /* put Dissipation Tendency in Adams-Bash. stepping */
(PID.TID 0000.0001)                   F
(PID.TID 0000.0001)     ;
(PID.TID 0000.0001) doAB_onGtGs = /* apply AB on Tendencies (rather than on T,S)*/
(PID.TID 0000.0001)                   T
(PID.TID 0000.0001)     ;
(PID.TID 0000.0001) abEps =   /* Adams-Bashforth-2 stabilizing weight */
(PID.TID 0000.0001)                 1.000000000000000E-01
(PID.TID 0000.0001)     ;
(PID.TID 0000.0001) applyExchUV_early = /* Apply EXCH to U,V earlier in time-step */
(PID.TID 0000.0001)                   F
(PID.TID 0000.0001)     ;
(PID.TID 0000.0001) pickupStrictlyMatch= /* stop if pickup do not strictly match */
(PID.TID 0000.0001)                   F
(PID.TID 0000.0001)     ;
(PID.TID 0000.0001) nIter0   =   /* Run starting timestep number */
(PID.TID 0000.0001)                       1
(PID.TID 0000.0001)     ;
(PID.TID 0000.0001) nTimeSteps = /* Number of timesteps */
(PID.TID 0000.0001)                      96
(PID.TID 0000.0001)     ;
(PID.TID 0000.0001) nEndIter =   /* Run ending timestep number */
(PID.TID 0000.0001)                      97
(PID.TID 0000.0001)     ;
(PID.TID 0000.0001) baseTime =   /* Model base time ( s ) */
(PID.TID 0000.0001)                 0.000000000000000E+00
(PID.TID 0000.0001)     ;
(PID.TID 0000.0001) startTime =  /* Run start time ( s ) */
(PID.TID 0000.0001)                 9.000000000000000E+02
(PID.TID 0000.0001)     ;
(PID.TID 0000.0001) endTime  =   /* Integration ending time ( s ) */
(PID.TID 0000.0001)                 8.730000000000000E+04
(PID.TID 0000.0001)     ;
(PID.TID 0000.0001) pChkPtFreq = /* Permanent restart/pickup file interval ( s ) */
(PID.TID 0000.0001)                 8.640000000000000E+04
(PID.TID 0000.0001)     ;
(PID.TID 0000.0001) chkPtFreq  = /* Rolling restart/pickup file interval ( s ) */
(PID.TID 0000.0001)                 8.640000000000000E+04
(PID.TID 0000.0001)     ;
(PID.TID 0000.0001) pickup_write_mdsio =   /* Model IO flag. */
(PID.TID 0000.0001)                   T
(PID.TID 0000.0001)     ;
(PID.TID 0000.0001) pickup_read_mdsio =   /* Model IO flag. */
(PID.TID 0000.0001)                   T
(PID.TID 0000.0001)     ;
(PID.TID 0000.0001) writePickupAtEnd =   /* Model IO flag. */
(PID.TID 0000.0001)                   T
(PID.TID 0000.0001)     ;
(PID.TID 0000.0001) dumpFreq =   /* Model state write out interval ( s ). */
(PID.TID 0000.0001)                 0.000000000000000E+00
(PID.TID 0000.0001)     ;
(PID.TID 0000.0001) dumpInitAndLast= /* write out Initial & Last iter. model state */
(PID.TID 0000.0001)                   T
(PID.TID 0000.0001)     ;
(PID.TID 0000.0001) snapshot_mdsio =   /* Model IO flag. */
(PID.TID 0000.0001)                   T
(PID.TID 0000.0001)     ;
(PID.TID 0000.0001) monitorFreq =   /* Monitor output interval ( s ). */
(PID.TID 0000.0001)                 7.200000000000000E+03
(PID.TID 0000.0001)     ;
(PID.TID 0000.0001) monitorSelect = /* select group of variables to monitor */
(PID.TID 0000.0001)                       3
(PID.TID 0000.0001)     ;
(PID.TID 0000.0001) monitor_stdio =   /* Model IO flag. */
(PID.TID 0000.0001)                   T
(PID.TID 0000.0001)     ;
(PID.TID 0000.0001) externForcingPeriod =   /* forcing period (s) */
(PID.TID 0000.0001)                 0.000000000000000E+00
(PID.TID 0000.0001)     ;
(PID.TID 0000.0001) externForcingCycle =   /* period of the cyle (s). */
(PID.TID 0000.0001)                 0.000000000000000E+00
(PID.TID 0000.0001)     ;
(PID.TID 0000.0001) tauThetaClimRelax =   /* relaxation time scale (s) */
(PID.TID 0000.0001)                 0.000000000000000E+00
(PID.TID 0000.0001)     ;
(PID.TID 0000.0001) tauSaltClimRelax =   /* relaxation time scale (s) */
(PID.TID 0000.0001)                 0.000000000000000E+00
(PID.TID 0000.0001)     ;
(PID.TID 0000.0001) latBandClimRelax =   /* max. Lat. where relaxation */
(PID.TID 0000.0001)                 1.800000000000000E+02
(PID.TID 0000.0001)     ;
(PID.TID 0000.0001) //
(PID.TID 0000.0001) // Gridding paramters ( PARM04 in namelist )
(PID.TID 0000.0001) //
(PID.TID 0000.0001) usingCartesianGrid = /* Cartesian coordinates flag ( True/False ) */
(PID.TID 0000.0001)                   F
(PID.TID 0000.0001)     ;
(PID.TID 0000.0001) usingCylindricalGrid = /* Cylindrical coordinates flag ( True/False ) */
(PID.TID 0000.0001)                   F
(PID.TID 0000.0001)     ;
(PID.TID 0000.0001) usingSphericalPolarGrid = /* Spherical coordinates flag ( True/False ) */
(PID.TID 0000.0001)                   F
(PID.TID 0000.0001)     ;
(PID.TID 0000.0001) usingCurvilinearGrid = /* Curvilinear coordinates flag ( True/False ) */
(PID.TID 0000.0001)                   T
(PID.TID 0000.0001)     ;
(PID.TID 0000.0001) useMin4hFacEdges = /* set hFacW,S as minimum of adjacent hFacC factor */
(PID.TID 0000.0001)                   F
(PID.TID 0000.0001)     ;
(PID.TID 0000.0001) interViscAr_pCell = /* account for partial-cell in interior vert. viscosity */
(PID.TID 0000.0001)                   F
(PID.TID 0000.0001)     ;
(PID.TID 0000.0001) interDiffKr_pCell = /* account for partial-cell in interior vert. diffusion */
(PID.TID 0000.0001)                   F
(PID.TID 0000.0001)     ;
(PID.TID 0000.0001) pCellMix_select = /* option to enhance mixing near surface & bottom */
(PID.TID 0000.0001)                       0
(PID.TID 0000.0001)     ;
(PID.TID 0000.0001) selectSigmaCoord = /* Hybrid-Sigma Vert. Coordinate option */
(PID.TID 0000.0001)                       0
(PID.TID 0000.0001)     ;
(PID.TID 0000.0001) rSigmaBnd = /* r/sigma transition ( units of r ==  m ) */
(PID.TID 0000.0001)                 1.234567000000000E+05
(PID.TID 0000.0001)     ;
(PID.TID 0000.0001) rkSign =   /* index orientation relative to vertical coordinate */
(PID.TID 0000.0001)                -1.000000000000000E+00
(PID.TID 0000.0001)     ;
(PID.TID 0000.0001) gravitySign = /* gravity orientation relative to vertical coordinate */
(PID.TID 0000.0001)                -1.000000000000000E+00
(PID.TID 0000.0001)     ;
(PID.TID 0000.0001) seaLev_Z =  /* reference height of sea-level [m] */
(PID.TID 0000.0001)                 0.000000000000000E+00
(PID.TID 0000.0001)     ;
(PID.TID 0000.0001) top_Pres =  /* reference pressure at the top [Pa] */
(PID.TID 0000.0001)                 0.000000000000000E+00
(PID.TID 0000.0001)     ;
(PID.TID 0000.0001) mass2rUnit = /* convert mass per unit area [kg/m2] to r-units [m] */
(PID.TID 0000.0001)                 9.718172983479105E-04
(PID.TID 0000.0001)     ;
(PID.TID 0000.0001) rUnit2mass = /* convert r-units [m] to mass per unit area [kg/m2] */
(PID.TID 0000.0001)                 1.029000000000000E+03
(PID.TID 0000.0001)     ;
(PID.TID 0000.0001) drC =   /* C spacing ( units of r ) */
(PID.TID 0000.0001)                 5.000000000000000E+00,      /* K =  1 */
(PID.TID 0000.0001)     6 @  1.000000000000000E+01,             /* K =  2:  7 */
(PID.TID 0000.0001)                 1.000500000000000E+01,      /* K =  8 */
(PID.TID 0000.0001)                 1.002000000000000E+01,      /* K =  9 */
(PID.TID 0000.0001)                 1.007000000000000E+01,      /* K = 10 */
(PID.TID 0000.0001)                 1.021500000000000E+01,      /* K = 11 */
(PID.TID 0000.0001)                 1.056000000000000E+01,      /* K = 12 */
(PID.TID 0000.0001)                 1.128000000000000E+01,      /* K = 13 */
(PID.TID 0000.0001)                 1.259000000000000E+01,      /* K = 14 */
(PID.TID 0000.0001)                 1.473000000000000E+01,      /* K = 15 */
(PID.TID 0000.0001)                 1.793000000000000E+01,      /* K = 16 */
(PID.TID 0000.0001)                 2.233500000000000E+01,      /* K = 17 */
(PID.TID 0000.0001)                 2.797500000000000E+01,      /* K = 18 */
(PID.TID 0000.0001)                 3.476000000000001E+01,      /* K = 19 */
(PID.TID 0000.0001)                 4.246000000000000E+01,      /* K = 20 */
(PID.TID 0000.0001)                 5.075000000000000E+01,      /* K = 21 */
(PID.TID 0000.0001)                 5.925000000000000E+01,      /* K = 22 */
(PID.TID 0000.0001)                 6.753999999999999E+01,      /* K = 23 */
(PID.TID 0000.0001)                 7.524000000000001E+01,      /* K = 24 */
(PID.TID 0000.0001)                 8.202500000000001E+01,      /* K = 25 */
(PID.TID 0000.0001)                 8.766500000000001E+01,      /* K = 26 */
(PID.TID 0000.0001)                 9.206999999999999E+01,      /* K = 27 */
(PID.TID 0000.0001)                 9.527000000000000E+01,      /* K = 28 */
(PID.TID 0000.0001)                 9.741499999999999E+01,      /* K = 29 */
(PID.TID 0000.0001)                 9.875000000000000E+01,      /* K = 30 */
(PID.TID 0000.0001)                 9.963000000000000E+01,      /* K = 31 */
(PID.TID 0000.0001)                 1.006700000000000E+02,      /* K = 32 */
(PID.TID 0000.0001)                 1.029450000000000E+02,      /* K = 33 */
(PID.TID 0000.0001)                 1.079450000000000E+02,      /* K = 34 */
(PID.TID 0000.0001)                 1.170800000000000E+02,      /* K = 35 */
(PID.TID 0000.0001)                 1.309600000000000E+02,      /* K = 36 */
(PID.TID 0000.0001)                 1.490150000000000E+02,      /* K = 37 */
(PID.TID 0000.0001)                 1.698850000000000E+02,      /* K = 38 */
(PID.TID 0000.0001)                 1.921900000000000E+02,      /* K = 39 */
(PID.TID 0000.0001)                 2.150250000000000E+02,      /* K = 40 */
(PID.TID 0000.0001)                 2.380000000000000E+02,      /* K = 41 */
(PID.TID 0000.0001)                 2.610000000000000E+02,      /* K = 42 */
(PID.TID 0000.0001)                 2.840000000000000E+02,      /* K = 43 */
(PID.TID 0000.0001)                 3.070000000000000E+02,      /* K = 44 */
(PID.TID 0000.0001)                 3.300000000000000E+02,      /* K = 45 */
(PID.TID 0000.0001)                 3.530000000000000E+02,      /* K = 46 */
(PID.TID 0000.0001)                 3.760000000000000E+02,      /* K = 47 */
(PID.TID 0000.0001)                 3.990000000000000E+02,      /* K = 48 */
(PID.TID 0000.0001)                 4.220000000000000E+02,      /* K = 49 */
(PID.TID 0000.0001)                 4.450000000000000E+02,      /* K = 50 */
(PID.TID 0000.0001)                 2.282500000000000E+02       /* K = 51 */
(PID.TID 0000.0001)     ;
(PID.TID 0000.0001) drF =   /* W spacing ( units of r ) */
(PID.TID 0000.0001)     7 @  1.000000000000000E+01,             /* K =  1:  7 */
(PID.TID 0000.0001)                 1.001000000000000E+01,      /* K =  8 */
(PID.TID 0000.0001)                 1.003000000000000E+01,      /* K =  9 */
(PID.TID 0000.0001)                 1.011000000000000E+01,      /* K = 10 */
(PID.TID 0000.0001)                 1.032000000000000E+01,      /* K = 11 */
(PID.TID 0000.0001)                 1.080000000000000E+01,      /* K = 12 */
(PID.TID 0000.0001)                 1.176000000000000E+01,      /* K = 13 */
(PID.TID 0000.0001)                 1.342000000000000E+01,      /* K = 14 */
(PID.TID 0000.0001)                 1.604000000000000E+01,      /* K = 15 */
(PID.TID 0000.0001)                 1.982000000000000E+01,      /* K = 16 */
(PID.TID 0000.0001)                 2.485000000000000E+01,      /* K = 17 */
(PID.TID 0000.0001)                 3.110000000000000E+01,      /* K = 18 */
(PID.TID 0000.0001)                 3.842000000000000E+01,      /* K = 19 */
(PID.TID 0000.0001)                 4.650000000000000E+01,      /* K = 20 */
(PID.TID 0000.0001)                 5.500000000000000E+01,      /* K = 21 */
(PID.TID 0000.0001)                 6.350000000000000E+01,      /* K = 22 */
(PID.TID 0000.0001)                 7.158000000000000E+01,      /* K = 23 */
(PID.TID 0000.0001)                 7.890000000000001E+01,      /* K = 24 */
(PID.TID 0000.0001)                 8.515000000000001E+01,      /* K = 25 */
(PID.TID 0000.0001)                 9.018000000000001E+01,      /* K = 26 */
(PID.TID 0000.0001)                 9.395999999999999E+01,      /* K = 27 */
(PID.TID 0000.0001)                 9.658000000000000E+01,      /* K = 28 */
(PID.TID 0000.0001)                 9.825000000000000E+01,      /* K = 29 */
(PID.TID 0000.0001)                 9.925000000000000E+01,      /* K = 30 */
(PID.TID 0000.0001)                 1.000100000000000E+02,      /* K = 31 */
(PID.TID 0000.0001)                 1.013300000000000E+02,      /* K = 32 */
(PID.TID 0000.0001)                 1.045600000000000E+02,      /* K = 33 */
(PID.TID 0000.0001)                 1.113300000000000E+02,      /* K = 34 */
(PID.TID 0000.0001)                 1.228300000000000E+02,      /* K = 35 */
(PID.TID 0000.0001)                 1.390900000000000E+02,      /* K = 36 */
(PID.TID 0000.0001)                 1.589400000000000E+02,      /* K = 37 */
(PID.TID 0000.0001)                 1.808300000000000E+02,      /* K = 38 */
(PID.TID 0000.0001)                 2.035500000000000E+02,      /* K = 39 */
(PID.TID 0000.0001)                 2.265000000000000E+02,      /* K = 40 */
(PID.TID 0000.0001)                 2.495000000000000E+02,      /* K = 41 */
(PID.TID 0000.0001)                 2.725000000000000E+02,      /* K = 42 */
(PID.TID 0000.0001)                 2.955000000000000E+02,      /* K = 43 */
(PID.TID 0000.0001)                 3.185000000000000E+02,      /* K = 44 */
(PID.TID 0000.0001)                 3.415000000000000E+02,      /* K = 45 */
(PID.TID 0000.0001)                 3.645000000000000E+02,      /* K = 46 */
(PID.TID 0000.0001)                 3.875000000000000E+02,      /* K = 47 */
(PID.TID 0000.0001)                 4.105000000000000E+02,      /* K = 48 */
(PID.TID 0000.0001)                 4.335000000000000E+02,      /* K = 49 */
(PID.TID 0000.0001)                 4.565000000000000E+02       /* K = 50 */
(PID.TID 0000.0001)     ;
(PID.TID 0000.0001) radius_fromHorizGrid = /* sphere Radius of input horiz. grid */
(PID.TID 0000.0001)                 6.370000000000000E+06
(PID.TID 0000.0001)     ;
(PID.TID 0000.0001) rSphere =  /* Radius ( ignored - cartesian, m - spherical ) */
(PID.TID 0000.0001)                 6.370000000000000E+06
(PID.TID 0000.0001)     ;
(PID.TID 0000.0001) deepAtmosphere = /* Deep/Shallow Atmosphere flag (True/False) */
(PID.TID 0000.0001)                   F
(PID.TID 0000.0001)     ;
(PID.TID 0000.0001) xC =  /* xC(:,1,:,1) : P-point X coord ( deg. or m if cartesian) */
(PID.TID 0000.0001)                -4.081468768806280E+01,      /* I =  1 */
(PID.TID 0000.0001)                -3.957104986057077E+01,      /* I =  2 */
(PID.TID 0000.0001)                -3.832217028656162E+01,      /* I =  3 */
(PID.TID 0000.0001)                -3.706844413107324E+01,      /* I =  4 */
(PID.TID 0000.0001)                -3.581028225779612E+01,      /* I =  5 */
(PID.TID 0000.0001)                -3.454811012006861E+01,      /* I =  6 */
(PID.TID 0000.0001)                -3.328236654497336E+01,      /* I =  7 */
(PID.TID 0000.0001)                -3.201350241727823E+01,      /* I =  8 */
(PID.TID 0000.0001)                -3.074197927113779E+01,      /* I =  9 */
(PID.TID 0000.0001)                -2.946826779826338E+01,      /* I = 10 */
(PID.TID 0000.0001)                -2.819284628214859E+01,      /* I = 11 */
(PID.TID 0000.0001)                -2.691619896217756E+01,      /* I = 12 */
(PID.TID 0000.0001)                -2.563881425705264E+01,      /* I = 13 */
(PID.TID 0000.0001)                -2.436118574294736E+01,      /* I = 14 */
(PID.TID 0000.0001)                -2.308380103782244E+01,      /* I = 15 */
(PID.TID 0000.0001)                -2.180715371785141E+01,      /* I = 16 */
(PID.TID 0000.0001)                -2.053173220173662E+01,      /* I = 17 */
(PID.TID 0000.0001)                -1.925802072886221E+01,      /* I = 18 */
(PID.TID 0000.0001)                -1.798649758272177E+01,      /* I = 19 */
(PID.TID 0000.0001)                -1.671763345502664E+01,      /* I = 20 */
(PID.TID 0000.0001)                -1.545188987993139E+01,      /* I = 21 */
(PID.TID 0000.0001)                -1.418971774220388E+01,      /* I = 22 */
(PID.TID 0000.0001)                -1.293155586892676E+01,      /* I = 23 */
(PID.TID 0000.0001)                -1.167782971343838E+01,      /* I = 24 */
(PID.TID 0000.0001)                -1.042895013942923E+01,      /* I = 25 */
(PID.TID 0000.0001)                -9.185312311937196E+00,      /* I = 26 */
(PID.TID 0000.0001)                -7.947294700425999E+00,      /* I = 27 */
(PID.TID 0000.0001)                -6.715258197621779E+00,      /* I = 28 */
(PID.TID 0000.0001)                -5.489545357070952E+00,      /* I = 29 */
(PID.TID 0000.0001)                -4.270479749729759E+00       /* I = 30 */
(PID.TID 0000.0001)     ;
(PID.TID 0000.0001) yC =  /* yC(1,:,1,:) : P-point Y coord ( deg. or m if cartesian) */
(PID.TID 0000.0001)                -8.146222940368236E+01,      /* J =  1 */
(PID.TID 0000.0001)                -8.113083815286421E+01,      /* J =  2 */
(PID.TID 0000.0001)                -8.079504828233755E+01,      /* J =  3 */
(PID.TID 0000.0001)                -8.045491317322768E+01,      /* J =  4 */
(PID.TID 0000.0001)                -8.011048280590389E+01,      /* J =  5 */
(PID.TID 0000.0001)                -7.976180430515704E+01,      /* J =  6 */
(PID.TID 0000.0001)                -7.940892240526760E+01,      /* J =  7 */
(PID.TID 0000.0001)                -7.905187984845006E+01,      /* J =  8 */
(PID.TID 0000.0001)                -7.869071772754813E+01,      /* J =  9 */
(PID.TID 0000.0001)                -7.832547578199167E+01,      /* J = 10 */
(PID.TID 0000.0001)                -7.795619265432416E+01,      /* J = 11 */
(PID.TID 0000.0001)                -7.758290611340497E+01,      /* J = 12 */
(PID.TID 0000.0001)                -7.720565324926896E+01,      /* J = 13 */
(PID.TID 0000.0001)                -7.682447064385434E+01,      /* J = 14 */
(PID.TID 0000.0001)                -7.643939452107085E+01,      /* J = 15 */
(PID.TID 0000.0001)                -7.605046087901695E+01,      /* J = 16 */
(PID.TID 0000.0001)                -7.565770560699295E+01,      /* J = 17 */
(PID.TID 0000.0001)                -7.526116458910658E+01,      /* J = 18 */
(PID.TID 0000.0001)                -7.486087379640449E+01,      /* J = 19 */
(PID.TID 0000.0001)                -7.445686936886233E+01,      /* J = 20 */
(PID.TID 0000.0001)                -7.404918768854837E+01,      /* J = 21 */
(PID.TID 0000.0001)                -7.363786544493549E+01,      /* J = 22 */
(PID.TID 0000.0001)                -7.322293969328220E+01,      /* J = 23 */
(PID.TID 0000.0001)                -7.280444790682334E+01,      /* J = 24 */
(PID.TID 0000.0001)                -7.238242802328044E+01,      /* J = 25 */
(PID.TID 0000.0001)                -7.195691848614972E+01,      /* J = 26 */
(PID.TID 0000.0001)                -7.152795828082729E+01,      /* J = 27 */
(PID.TID 0000.0001)                -7.109558696482472E+01,      /* J = 28 */
(PID.TID 0000.0001)                -7.065984468855757E+01,      /* J = 29 */
(PID.TID 0000.0001)                -7.022077218177122E+01       /* J = 30 */
(PID.TID 0000.0001)     ;
(PID.TID 0000.0001) rcoord = /* P-point R coordinate (  units of r ) */
(PID.TID 0000.0001)                -5.000000000000000E+00,      /* K =  1 */
(PID.TID 0000.0001)                -1.500000000000000E+01,      /* K =  2 */
(PID.TID 0000.0001)                -2.500000000000000E+01,      /* K =  3 */
(PID.TID 0000.0001)                -3.500000000000000E+01,      /* K =  4 */
(PID.TID 0000.0001)                -4.500000000000000E+01,      /* K =  5 */
(PID.TID 0000.0001)                -5.500000000000000E+01,      /* K =  6 */
(PID.TID 0000.0001)                -6.500000000000000E+01,      /* K =  7 */
(PID.TID 0000.0001)                -7.500500000000000E+01,      /* K =  8 */
(PID.TID 0000.0001)                -8.502499999999999E+01,      /* K =  9 */
(PID.TID 0000.0001)                -9.509500000000000E+01,      /* K = 10 */
(PID.TID 0000.0001)                -1.053100000000000E+02,      /* K = 11 */
(PID.TID 0000.0001)                -1.158700000000000E+02,      /* K = 12 */
(PID.TID 0000.0001)                -1.271500000000000E+02,      /* K = 13 */
(PID.TID 0000.0001)                -1.397400000000000E+02,      /* K = 14 */
(PID.TID 0000.0001)                -1.544700000000000E+02,      /* K = 15 */
(PID.TID 0000.0001)                -1.724000000000000E+02,      /* K = 16 */
(PID.TID 0000.0001)                -1.947350000000000E+02,      /* K = 17 */
(PID.TID 0000.0001)                -2.227100000000000E+02,      /* K = 18 */
(PID.TID 0000.0001)                -2.574700000000000E+02,      /* K = 19 */
(PID.TID 0000.0001)                -2.999300000000000E+02,      /* K = 20 */
(PID.TID 0000.0001)                -3.506800000000000E+02,      /* K = 21 */
(PID.TID 0000.0001)                -4.099300000000000E+02,      /* K = 22 */
(PID.TID 0000.0001)                -4.774700000000000E+02,      /* K = 23 */
(PID.TID 0000.0001)                -5.527100000000000E+02,      /* K = 24 */
(PID.TID 0000.0001)                -6.347350000000000E+02,      /* K = 25 */
(PID.TID 0000.0001)                -7.224000000000000E+02,      /* K = 26 */
(PID.TID 0000.0001)                -8.144700000000000E+02,      /* K = 27 */
(PID.TID 0000.0001)                -9.097400000000000E+02,      /* K = 28 */
(PID.TID 0000.0001)                -1.007155000000000E+03,      /* K = 29 */
(PID.TID 0000.0001)                -1.105905000000000E+03,      /* K = 30 */
(PID.TID 0000.0001)                -1.205535000000000E+03,      /* K = 31 */
(PID.TID 0000.0001)                -1.306205000000000E+03,      /* K = 32 */
(PID.TID 0000.0001)                -1.409150000000000E+03,      /* K = 33 */
(PID.TID 0000.0001)                -1.517095000000000E+03,      /* K = 34 */
(PID.TID 0000.0001)                -1.634175000000000E+03,      /* K = 35 */
(PID.TID 0000.0001)                -1.765135000000000E+03,      /* K = 36 */
(PID.TID 0000.0001)                -1.914150000000000E+03,      /* K = 37 */
(PID.TID 0000.0001)                -2.084035000000000E+03,      /* K = 38 */
(PID.TID 0000.0001)                -2.276225000000000E+03,      /* K = 39 */
(PID.TID 0000.0001)                -2.491250000000000E+03,      /* K = 40 */
(PID.TID 0000.0001)                -2.729250000000000E+03,      /* K = 41 */
(PID.TID 0000.0001)                -2.990250000000000E+03,      /* K = 42 */
(PID.TID 0000.0001)                -3.274250000000000E+03,      /* K = 43 */
(PID.TID 0000.0001)                -3.581250000000000E+03,      /* K = 44 */
(PID.TID 0000.0001)                -3.911250000000000E+03,      /* K = 45 */
(PID.TID 0000.0001)                -4.264250000000000E+03,      /* K = 46 */
(PID.TID 0000.0001)                -4.640250000000000E+03,      /* K = 47 */
(PID.TID 0000.0001)                -5.039250000000000E+03,      /* K = 48 */
(PID.TID 0000.0001)                -5.461250000000000E+03,      /* K = 49 */
(PID.TID 0000.0001)                -5.906250000000000E+03       /* K = 50 */
(PID.TID 0000.0001)     ;
(PID.TID 0000.0001) rF =   /* W-Interf. R coordinate (  units of r ) */
(PID.TID 0000.0001)                 0.000000000000000E+00,      /* K =  1 */
(PID.TID 0000.0001)                -1.000000000000000E+01,      /* K =  2 */
(PID.TID 0000.0001)                -2.000000000000000E+01,      /* K =  3 */
(PID.TID 0000.0001)                -3.000000000000000E+01,      /* K =  4 */
(PID.TID 0000.0001)                -4.000000000000000E+01,      /* K =  5 */
(PID.TID 0000.0001)                -5.000000000000000E+01,      /* K =  6 */
(PID.TID 0000.0001)                -6.000000000000000E+01,      /* K =  7 */
(PID.TID 0000.0001)                -7.000000000000000E+01,      /* K =  8 */
(PID.TID 0000.0001)                -8.001000000000001E+01,      /* K =  9 */
(PID.TID 0000.0001)                -9.004000000000001E+01,      /* K = 10 */
(PID.TID 0000.0001)                -1.001500000000000E+02,      /* K = 11 */
(PID.TID 0000.0001)                -1.104700000000000E+02,      /* K = 12 */
(PID.TID 0000.0001)                -1.212700000000000E+02,      /* K = 13 */
(PID.TID 0000.0001)                -1.330300000000000E+02,      /* K = 14 */
(PID.TID 0000.0001)                -1.464500000000000E+02,      /* K = 15 */
(PID.TID 0000.0001)                -1.624900000000000E+02,      /* K = 16 */
(PID.TID 0000.0001)                -1.823100000000000E+02,      /* K = 17 */
(PID.TID 0000.0001)                -2.071600000000000E+02,      /* K = 18 */
(PID.TID 0000.0001)                -2.382600000000000E+02,      /* K = 19 */
(PID.TID 0000.0001)                -2.766799999999999E+02,      /* K = 20 */
(PID.TID 0000.0001)                -3.231799999999999E+02,      /* K = 21 */
(PID.TID 0000.0001)                -3.781799999999999E+02,      /* K = 22 */
(PID.TID 0000.0001)                -4.416799999999999E+02,      /* K = 23 */
(PID.TID 0000.0001)                -5.132600000000000E+02,      /* K = 24 */
(PID.TID 0000.0001)                -5.921600000000000E+02,      /* K = 25 */
(PID.TID 0000.0001)                -6.773099999999999E+02,      /* K = 26 */
(PID.TID 0000.0001)                -7.674900000000000E+02,      /* K = 27 */
(PID.TID 0000.0001)                -8.614500000000000E+02,      /* K = 28 */
(PID.TID 0000.0001)                -9.580300000000001E+02,      /* K = 29 */
(PID.TID 0000.0001)                -1.056280000000000E+03,      /* K = 30 */
(PID.TID 0000.0001)                -1.155530000000000E+03,      /* K = 31 */
(PID.TID 0000.0001)                -1.255540000000000E+03,      /* K = 32 */
(PID.TID 0000.0001)                -1.356870000000000E+03,      /* K = 33 */
(PID.TID 0000.0001)                -1.461430000000000E+03,      /* K = 34 */
(PID.TID 0000.0001)                -1.572760000000000E+03,      /* K = 35 */
(PID.TID 0000.0001)                -1.695590000000000E+03,      /* K = 36 */
(PID.TID 0000.0001)                -1.834680000000000E+03,      /* K = 37 */
(PID.TID 0000.0001)                -1.993620000000000E+03,      /* K = 38 */
(PID.TID 0000.0001)                -2.174450000000000E+03,      /* K = 39 */
(PID.TID 0000.0001)                -2.378000000000000E+03,      /* K = 40 */
(PID.TID 0000.0001)                -2.604500000000000E+03,      /* K = 41 */
(PID.TID 0000.0001)                -2.854000000000000E+03,      /* K = 42 */
(PID.TID 0000.0001)                -3.126500000000000E+03,      /* K = 43 */
(PID.TID 0000.0001)                -3.422000000000000E+03,      /* K = 44 */
(PID.TID 0000.0001)                -3.740500000000000E+03,      /* K = 45 */
(PID.TID 0000.0001)                -4.082000000000000E+03,      /* K = 46 */
(PID.TID 0000.0001)                -4.446500000000000E+03,      /* K = 47 */
(PID.TID 0000.0001)                -4.834000000000000E+03,      /* K = 48 */
(PID.TID 0000.0001)                -5.244500000000000E+03,      /* K = 49 */
(PID.TID 0000.0001)                -5.678000000000000E+03,      /* K = 50 */
(PID.TID 0000.0001)                -6.134500000000000E+03       /* K = 51 */
(PID.TID 0000.0001)     ;
(PID.TID 0000.0001) deepFacC = /* deep-model grid factor @ cell-Center (-) */
(PID.TID 0000.0001)    50 @  1.000000000000000E+00              /* K =  1: 50 */
(PID.TID 0000.0001)     ;
(PID.TID 0000.0001) deepFacF = /* deep-model grid factor @ W-Interface (-) */
(PID.TID 0000.0001)    51 @  1.000000000000000E+00              /* K =  1: 51 */
(PID.TID 0000.0001)     ;
(PID.TID 0000.0001) rVel2wUnit = /* convert units: rVel -> wSpeed (=1 if z-coord)*/
(PID.TID 0000.0001)    51 @  1.000000000000000E+00              /* K =  1: 51 */
(PID.TID 0000.0001)     ;
(PID.TID 0000.0001) wUnit2rVel = /* convert units: wSpeed -> rVel (=1 if z-coord)*/
(PID.TID 0000.0001)    51 @  1.000000000000000E+00              /* K =  1: 51 */
(PID.TID 0000.0001)     ;
(PID.TID 0000.0001) dBdrRef = /* Vertical grad. of reference buoyancy [(m/s/r)^2] */
(PID.TID 0000.0001)     3 @  0.000000000000000E+00,             /* K =  1:  3 */
(PID.TID 0000.0001)                 2.706065538651213E-04,      /* K =  4 */
(PID.TID 0000.0001)     2 @  0.000000000000000E+00,             /* K =  5:  6 */
(PID.TID 0000.0001)                 2.632794562663490E-04,      /* K =  7 */
(PID.TID 0000.0001)                 2.554318021231947E-04,      /* K =  8 */
(PID.TID 0000.0001)                 0.000000000000000E+00,      /* K =  9 */
(PID.TID 0000.0001)                 2.461524232360561E-04,      /* K = 10 */
(PID.TID 0000.0001)                 2.348694431245364E-04,      /* K = 11 */
(PID.TID 0000.0001)                 0.000000000000000E+00,      /* K = 12 */
(PID.TID 0000.0001)                 2.056847859884566E-04,      /* K = 13 */
(PID.TID 0000.0001)                 1.777764506003336E-04,      /* K = 14 */
(PID.TID 0000.0001)                 0.000000000000000E+00,      /* K = 15 */
(PID.TID 0000.0001)                 1.203533867077665E-04,      /* K = 16 */
(PID.TID 0000.0001)                 9.288540355629585E-05,      /* K = 17 */
(PID.TID 0000.0001)                 7.115862770365155E-05,      /* K = 18 */
(PID.TID 0000.0001)                 5.484365820533800E-05,      /* K = 19 */
(PID.TID 0000.0001)                 4.290935507113214E-05,      /* K = 20 */
(PID.TID 0000.0001)                 6.658747741703880E-05,      /* K = 21 */
(PID.TID 0000.0001)                 0.000000000000000E+00,      /* K = 22 */
(PID.TID 0000.0001)                 2.323718420342036E-05,      /* K = 23 */
(PID.TID 0000.0001)                 1.974682037962757E-05,      /* K = 24 */
(PID.TID 0000.0001)                 1.709468932536602E-05,      /* K = 25 */
(PID.TID 0000.0001)                 0.000000000000000E+00,      /* K = 26 */
(PID.TID 0000.0001)                 1.455436545977052E-05,      /* K = 27 */
(PID.TID 0000.0001)                 0.000000000000000E+00,      /* K = 28 */
(PID.TID 0000.0001)                 1.315287111980149E-05,      /* K = 29 */
(PID.TID 0000.0001)     2 @  0.000000000000000E+00,             /* K = 30: 31 */
(PID.TID 0000.0001)                 1.240968507885233E-05,      /* K = 32 */
(PID.TID 0000.0001)     2 @  0.000000000000000E+00,             /* K = 33: 34 */
(PID.TID 0000.0001)                 1.045141607964570E-05,      /* K = 35 */
(PID.TID 0000.0001)     3 @  0.000000000000000E+00,             /* K = 36: 38 */
(PID.TID 0000.0001)                 6.628797113709505E-06,      /* K = 39 */
(PID.TID 0000.0001)    11 @  0.000000000000000E+00              /* K = 40: 50 */
(PID.TID 0000.0001)     ;
(PID.TID 0000.0001) rotateGrid = /* use rotated grid ( True/False ) */
(PID.TID 0000.0001)                   F
(PID.TID 0000.0001)     ;
(PID.TID 0000.0001) phiEuler = /* Euler angle, rotation about original z-coordinate [rad] */
(PID.TID 0000.0001)                 0.000000000000000E+00
(PID.TID 0000.0001)     ;
(PID.TID 0000.0001) thetaEuler = /* Euler angle, rotation about new x-coordinate [rad] */
(PID.TID 0000.0001)                 0.000000000000000E+00
(PID.TID 0000.0001)     ;
(PID.TID 0000.0001) psiEuler = /* Euler angle, rotation about new z-coordinate [rad] */
(PID.TID 0000.0001)                 0.000000000000000E+00
(PID.TID 0000.0001)     ;
(PID.TID 0000.0001) dxF =  /* dxF(:,1,:,1) ( units: m ) */
(PID.TID 0000.0001)                 2.071152825743187E+04,      /* I =  1 */
(PID.TID 0000.0001)                 2.070365142756831E+04,      /* I =  2 */
(PID.TID 0000.0001)                 2.069635296570141E+04,      /* I =  3 */
(PID.TID 0000.0001)                 2.068965358413176E+04,      /* I =  4 */
(PID.TID 0000.0001)                 2.068357195583360E+04,      /* I =  5 */
(PID.TID 0000.0001)                 2.067812475356784E+04,      /* I =  6 */
(PID.TID 0000.0001)                 2.067332670125947E+04,      /* I =  7 */
(PID.TID 0000.0001)                 2.066919060389092E+04,      /* I =  8 */
(PID.TID 0000.0001)                 2.066572738985245E+04,      /* I =  9 */
(PID.TID 0000.0001)                 2.066294615597989E+04,      /* I = 10 */
(PID.TID 0000.0001)                 2.066085425372315E+04,      /* I = 11 */
(PID.TID 0000.0001)                 2.065945771525925E+04,      /* I = 12 */
(PID.TID 0000.0001)                 2.065874381268158E+04,      /* I = 13 */
(PID.TID 0000.0001)                 2.065874381268158E+04,      /* I = 14 */
(PID.TID 0000.0001)                 2.065945771525925E+04,      /* I = 15 */
(PID.TID 0000.0001)                 2.066085425372316E+04,      /* I = 16 */
(PID.TID 0000.0001)                 2.066294615597989E+04,      /* I = 17 */
(PID.TID 0000.0001)                 2.066572738985245E+04,      /* I = 18 */
(PID.TID 0000.0001)                 2.066919060389088E+04,      /* I = 19 */
(PID.TID 0000.0001)                 2.067332670125956E+04,      /* I = 20 */
(PID.TID 0000.0001)                 2.067812475356780E+04,      /* I = 21 */
(PID.TID 0000.0001)                 2.068357195583360E+04,      /* I = 22 */
(PID.TID 0000.0001)                 2.068965358413182E+04,      /* I = 23 */
(PID.TID 0000.0001)                 2.069635296570133E+04,      /* I = 24 */
(PID.TID 0000.0001)                 2.070365142756836E+04,      /* I = 25 */
(PID.TID 0000.0001)                 2.071152825743182E+04,      /* I = 26 */
(PID.TID 0000.0001)                 2.071996065138743E+04,      /* I = 27 */
(PID.TID 0000.0001)                 2.072892365863983E+04,      /* I = 28 */
(PID.TID 0000.0001)                 2.073839012765668E+04,      /* I = 29 */
(PID.TID 0000.0001)                 2.074833063718403E+04       /* I = 30 */
(PID.TID 0000.0001)     ;
(PID.TID 0000.0001) dxF =  /* dxF(1,:,1,:) ( units: m ) */
(PID.TID 0000.0001)                 2.071152825743187E+04,      /* J =  1 */
(PID.TID 0000.0001)                 2.109117491456033E+04,      /* J =  2 */
(PID.TID 0000.0001)                 2.148525648961724E+04,      /* J =  3 */
(PID.TID 0000.0001)                 2.189377348588603E+04,      /* J =  4 */
(PID.TID 0000.0001)                 2.231672440915243E+04,      /* J =  5 */
(PID.TID 0000.0001)                 2.275410689480659E+04,      /* J =  6 */
(PID.TID 0000.0001)                 2.320591873318126E+04,      /* J =  7 */
(PID.TID 0000.0001)                 2.367215879054831E+04,      /* J =  8 */
(PID.TID 0000.0001)                 2.415282782538908E+04,      /* J =  9 */
(PID.TID 0000.0001)                 2.464792920101809E+04,      /* J = 10 */
(PID.TID 0000.0001)                 2.515746949702995E+04,      /* J = 11 */
(PID.TID 0000.0001)                 2.568145902315334E+04,      /* J = 12 */
(PID.TID 0000.0001)                 2.621991223981432E+04,      /* J = 13 */
(PID.TID 0000.0001)                 2.677284809033052E+04,      /* J = 14 */
(PID.TID 0000.0001)                 2.734029025013979E+04,      /* J = 15 */
(PID.TID 0000.0001)                 2.792226729855568E+04,      /* J = 16 */
(PID.TID 0000.0001)                 2.851881281852892E+04,      /* J = 17 */
(PID.TID 0000.0001)                 2.912996543046302E+04,      /* J = 18 */
(PID.TID 0000.0001)                 2.975576876502299E+04,      /* J = 19 */
(PID.TID 0000.0001)                 3.039627138062681E+04,      /* J = 20 */
(PID.TID 0000.0001)                 3.105152663065675E+04,      /* J = 21 */
(PID.TID 0000.0001)                 3.172159248542454E+04,      /* J = 22 */
(PID.TID 0000.0001)                 3.240653131349731E+04,      /* J = 23 */
(PID.TID 0000.0001)                 3.310640962675057E+04,      /* J = 24 */
(PID.TID 0000.0001)                 3.382129779388320E+04,      /* J = 25 */
(PID.TID 0000.0001)                 3.455126972555294E+04,      /* J = 26 */
(PID.TID 0000.0001)                 3.529640253603521E+04,      /* J = 27 */
(PID.TID 0000.0001)                 3.605677618612848E+04,      /* J = 28 */
(PID.TID 0000.0001)                 3.683247311866502E+04,      /* J = 29 */
(PID.TID 0000.0001)                 3.762357793548112E+04       /* J = 30 */
(PID.TID 0000.0001)     ;
(PID.TID 0000.0001) dyF =  /* dyF(:,1,:,1) ( units: m ) */
(PID.TID 0000.0001)                 3.700742300337598E+04,      /* I =  1 */
(PID.TID 0000.0001)                 3.707905556394973E+04,      /* I =  2 */
(PID.TID 0000.0001)                 3.714471828319018E+04,      /* I =  3 */
(PID.TID 0000.0001)                 3.720441078960103E+04,      /* I =  4 */
(PID.TID 0000.0001)                 3.725813297080282E+04,      /* I =  5 */
(PID.TID 0000.0001)                 3.730588490725751E+04,      /* I =  6 */
(PID.TID 0000.0001)                 3.734766681359038E+04,      /* I =  7 */
(PID.TID 0000.0001)                 3.738347898712025E+04,      /* I =  8 */
(PID.TID 0000.0001)                 3.741332176340629E+04,      /* I =  9 */
(PID.TID 0000.0001)                 3.743719547859261E+04,      /* I = 10 */
(PID.TID 0000.0001)                 3.745510043824806E+04,      /* I = 11 */
(PID.TID 0000.0001)                 3.746703689267323E+04,      /* I = 12 */
(PID.TID 0000.0001)     2 @  3.747300501832417E+04,             /* I = 13: 14 */
(PID.TID 0000.0001)                 3.746703689267323E+04,      /* I = 15 */
(PID.TID 0000.0001)                 3.745510043824806E+04,      /* I = 16 */
(PID.TID 0000.0001)                 3.743719547859261E+04,      /* I = 17 */
(PID.TID 0000.0001)                 3.741332176340628E+04,      /* I = 18 */
(PID.TID 0000.0001)                 3.738347898712024E+04,      /* I = 19 */
(PID.TID 0000.0001)                 3.734766681359040E+04,      /* I = 20 */
(PID.TID 0000.0001)                 3.730588490725750E+04,      /* I = 21 */
(PID.TID 0000.0001)                 3.725813297080281E+04,      /* I = 22 */
(PID.TID 0000.0001)                 3.720441078960103E+04,      /* I = 23 */
(PID.TID 0000.0001)                 3.714471828319017E+04,      /* I = 24 */
(PID.TID 0000.0001)                 3.707905556394973E+04,      /* I = 25 */
(PID.TID 0000.0001)                 3.700742300337599E+04,      /* I = 26 */
(PID.TID 0000.0001)                 3.692982130617692E+04,      /* I = 27 */
(PID.TID 0000.0001)                 3.684625159269555E+04,      /* I = 28 */
(PID.TID 0000.0001)                 3.675671548992459E+04,      /* I = 29 */
(PID.TID 0000.0001)                 3.666121523181524E+04       /* I = 30 */
(PID.TID 0000.0001)     ;
(PID.TID 0000.0001) dyF =  /* dyF(1,:,1,:) ( units: m ) */
(PID.TID 0000.0001)                 3.700742300337598E+04,      /* J =  1 */
(PID.TID 0000.0001)                 3.745555642044499E+04,      /* J =  2 */
(PID.TID 0000.0001)                 3.790206217653974E+04,      /* J =  3 */
(PID.TID 0000.0001)                 3.834684105117956E+04,      /* J =  4 */
(PID.TID 0000.0001)                 3.878979459357282E+04,      /* J =  5 */
(PID.TID 0000.0001)                 3.923082521328924E+04,      /* J =  6 */
(PID.TID 0000.0001)                 3.966983623246408E+04,      /* J =  7 */
(PID.TID 0000.0001)                 4.010673190475840E+04,      /* J =  8 */
(PID.TID 0000.0001)                 4.054141740950450E+04,      /* J =  9 */
(PID.TID 0000.0001)                 4.097379882434454E+04,      /* J = 10 */
(PID.TID 0000.0001)                 4.140378308084428E+04,      /* J = 11 */
(PID.TID 0000.0001)                 4.183127790875583E+04,      /* J = 12 */
(PID.TID 0000.0001)                 4.225619177206317E+04,      /* J = 13 */
(PID.TID 0000.0001)                 4.267843379867976E+04,      /* J = 14 */
(PID.TID 0000.0001)                 4.309791371221616E+04,      /* J = 15 */
(PID.TID 0000.0001)                 4.351454176087940E+04,      /* J = 16 */
(PID.TID 0000.0001)                 4.392822864881465E+04,      /* J = 17 */
(PID.TID 0000.0001)                 4.433888547805120E+04,      /* J = 18 */
(PID.TID 0000.0001)                 4.474642369096899E+04,      /* J = 19 */
(PID.TID 0000.0001)                 4.515075502217317E+04,      /* J = 20 */
(PID.TID 0000.0001)                 4.555179145554101E+04,      /* J = 21 */
(PID.TID 0000.0001)                 4.594944520275577E+04,      /* J = 22 */
(PID.TID 0000.0001)                 4.634362867401398E+04,      /* J = 23 */
(PID.TID 0000.0001)                 4.673425447947427E+04,      /* J = 24 */
(PID.TID 0000.0001)                 4.712123544873745E+04,      /* J = 25 */
(PID.TID 0000.0001)                 4.750448467975499E+04,      /* J = 26 */
(PID.TID 0000.0001)                 4.788391567392174E+04,      /* J = 27 */
(PID.TID 0000.0001)                 4.825944271092693E+04,      /* J = 28 */
(PID.TID 0000.0001)                 4.863098220111143E+04,      /* J = 29 */
(PID.TID 0000.0001)                 4.899845499569884E+04       /* J = 30 */
(PID.TID 0000.0001)     ;
(PID.TID 0000.0001) dxG =  /* dxG(:,1,:,1) ( units: m ) */
(PID.TID 0000.0001)                 2.052711702021451E+04,      /* I =  1 */
(PID.TID 0000.0001)                 2.051953983526162E+04,      /* I =  2 */
(PID.TID 0000.0001)                 2.051251425926268E+04,      /* I =  3 */
(PID.TID 0000.0001)                 2.050606148013825E+04,      /* I =  4 */
(PID.TID 0000.0001)                 2.050020059906299E+04,      /* I =  5 */
(PID.TID 0000.0001)                 2.049494867086169E+04,      /* I =  6 */
(PID.TID 0000.0001)                 2.049032075633103E+04,      /* I =  7 */
(PID.TID 0000.0001)                 2.048632995314923E+04,      /* I =  8 */
(PID.TID 0000.0001)                 2.048298743895549E+04,      /* I =  9 */
(PID.TID 0000.0001)                 2.048030251694177E+04,      /* I = 10 */
(PID.TID 0000.0001)                 2.047828270203973E+04,      /* I = 11 */
(PID.TID 0000.0001)                 2.047693414389448E+04,      /* I = 12 */
(PID.TID 0000.0001)     2 @  2.047624433858785E+04,             /* I = 13: 14 */
(PID.TID 0000.0001)                 2.047693414389443E+04,      /* I = 15 */
(PID.TID 0000.0001)                 2.047828270203978E+04,      /* I = 16 */
(PID.TID 0000.0001)                 2.048030251694177E+04,      /* I = 17 */
(PID.TID 0000.0001)                 2.048298743895548E+04,      /* I = 18 */
(PID.TID 0000.0001)                 2.048632995314927E+04,      /* I = 19 */
(PID.TID 0000.0001)                 2.049032075633093E+04,      /* I = 20 */
(PID.TID 0000.0001)                 2.049494867086174E+04,      /* I = 21 */
(PID.TID 0000.0001)                 2.050020059906297E+04,      /* I = 22 */
(PID.TID 0000.0001)                 2.050606148013830E+04,      /* I = 23 */
(PID.TID 0000.0001)                 2.051251425926268E+04,      /* I = 24 */
(PID.TID 0000.0001)                 2.051953983526163E+04,      /* I = 25 */
(PID.TID 0000.0001)                 2.052711702021443E+04,      /* I = 26 */
(PID.TID 0000.0001)                 2.053522248594683E+04,      /* I = 27 */
(PID.TID 0000.0001)                 2.054383070727552E+04,      /* I = 28 */
(PID.TID 0000.0001)                 2.055291390664790E+04,      /* I = 29 */
(PID.TID 0000.0001)                 2.056244198352907E+04       /* I = 30 */
(PID.TID 0000.0001)     ;
(PID.TID 0000.0001) dxG =  /* dxG(1,:,1,:) ( units: m ) */
(PID.TID 0000.0001)                 2.052711702021451E+04,      /* J =  1 */
(PID.TID 0000.0001)                 2.089954736357391E+04,      /* J =  2 */
(PID.TID 0000.0001)                 2.128641124518697E+04,      /* J =  3 */
(PID.TID 0000.0001)                 2.168771062037700E+04,      /* J =  4 */
(PID.TID 0000.0001)                 2.210344484655194E+04,      /* J =  5 */
(PID.TID 0000.0001)                 2.253361185972884E+04,      /* J =  6 */
(PID.TID 0000.0001)                 2.297820925105574E+04,      /* J =  7 */
(PID.TID 0000.0001)                 2.343723524028478E+04,      /* J =  8 */
(PID.TID 0000.0001)                 2.391068954427550E+04,      /* J =  9 */
(PID.TID 0000.0001)                 2.439857414125275E+04,      /* J = 10 */
(PID.TID 0000.0001)                 2.490089393241153E+04,      /* J = 11 */
(PID.TID 0000.0001)                 2.541765730414359E+04,      /* J = 12 */
(PID.TID 0000.0001)                 2.594887659459613E+04,      /* J = 13 */
(PID.TID 0000.0001)                 2.649456846940333E+04,      /* J = 14 */
(PID.TID 0000.0001)                 2.705475421181358E+04,      /* J = 15 */
(PID.TID 0000.0001)                 2.762945993231310E+04,      /* J = 16 */
(PID.TID 0000.0001)                 2.821871670385097E+04,      /* J = 17 */
(PID.TID 0000.0001)                 2.882256062780631E+04,      /* J = 18 */
(PID.TID 0000.0001)                 2.944103283669238E+04,      /* J = 19 */
(PID.TID 0000.0001)                 3.007417943861200E+04,      /* J = 20 */
(PID.TID 0000.0001)                 3.072205140902393E+04,      /* J = 21 */
(PID.TID 0000.0001)                 3.138470443467240E+04,      /* J = 22 */
(PID.TID 0000.0001)                 3.206219871470027E+04,      /* J = 23 */
(PID.TID 0000.0001)                 3.275459872326910E+04,      /* J = 24 */
(PID.TID 0000.0001)                 3.346197293831744E+04,      /* J = 25 */
(PID.TID 0000.0001)                 3.418439354048331E+04,      /* J = 26 */
(PID.TID 0000.0001)                 3.492193608585089E+04,      /* J = 27 */
(PID.TID 0000.0001)                 3.567467915738818E+04,      /* J = 28 */
(PID.TID 0000.0001)                 3.644270400216877E+04,      /* J = 29 */
(PID.TID 0000.0001)                 3.722609417427087E+04       /* J = 30 */
(PID.TID 0000.0001)     ;
(PID.TID 0000.0001) dyG =  /* dyG(:,1,:,1) ( units: m ) */
(PID.TID 0000.0001)                 3.696936823759973E+04,      /* I =  1 */
(PID.TID 0000.0001)                 3.704398547852144E+04,      /* I =  2 */
(PID.TID 0000.0001)                 3.711263318385338E+04,      /* I =  3 */
(PID.TID 0000.0001)                 3.717531082528212E+04,      /* I =  4 */
(PID.TID 0000.0001)                 3.723201816961422E+04,      /* I =  5 */
(PID.TID 0000.0001)                 3.728275520872145E+04,      /* I =  6 */
(PID.TID 0000.0001)                 3.732752209699158E+04,      /* I =  7 */
(PID.TID 0000.0001)                 3.736631909640826E+04,      /* I =  8 */
(PID.TID 0000.0001)                 3.739914652852553E+04,      /* I =  9 */
(PID.TID 0000.0001)                 3.742600473350589E+04,      /* I = 10 */
(PID.TID 0000.0001)                 3.744689403567852E+04,      /* I = 11 */
(PID.TID 0000.0001)                 3.746181471567877E+04,      /* I = 12 */
(PID.TID 0000.0001)                 3.747076698884368E+04,      /* I = 13 */
(PID.TID 0000.0001)                 3.747376174977726E+04,      /* I = 14 */
(PID.TID 0000.0001)                 3.747076698884368E+04,      /* I = 15 */
(PID.TID 0000.0001)                 3.746181471567877E+04,      /* I = 16 */
(PID.TID 0000.0001)                 3.744689403567852E+04,      /* I = 17 */
(PID.TID 0000.0001)                 3.742600473350589E+04,      /* I = 18 */
(PID.TID 0000.0001)                 3.739914652852552E+04,      /* I = 19 */
(PID.TID 0000.0001)                 3.736631909640826E+04,      /* I = 20 */
(PID.TID 0000.0001)                 3.732752209699157E+04,      /* I = 21 */
(PID.TID 0000.0001)                 3.728275520872146E+04,      /* I = 22 */
(PID.TID 0000.0001)                 3.723201816961422E+04,      /* I = 23 */
(PID.TID 0000.0001)                 3.717531082528211E+04,      /* I = 24 */
(PID.TID 0000.0001)                 3.711263318385338E+04,      /* I = 25 */
(PID.TID 0000.0001)                 3.704398547852145E+04,      /* I = 26 */
(PID.TID 0000.0001)                 3.696936823759972E+04,      /* I = 27 */
(PID.TID 0000.0001)                 3.688878236278851E+04,      /* I = 28 */
(PID.TID 0000.0001)                 3.680222921581766E+04,      /* I = 29 */
(PID.TID 0000.0001)                 3.670971071402137E+04       /* I = 30 */
(PID.TID 0000.0001)     ;
(PID.TID 0000.0001) dyG =  /* dyG(1,:,1,:) ( units: m ) */
(PID.TID 0000.0001)                 3.696936823759973E+04,      /* J =  1 */
(PID.TID 0000.0001)                 3.741746190559281E+04,      /* J =  2 */
(PID.TID 0000.0001)                 3.786390067184393E+04,      /* J =  3 */
(PID.TID 0000.0001)                 3.830858172733455E+04,      /* J =  4 */
(PID.TID 0000.0001)                 3.875140319955796E+04,      /* J =  5 */
(PID.TID 0000.0001)                 3.919226424948571E+04,      /* J =  6 */
(PID.TID 0000.0001)                 3.963106512715793E+04,      /* J =  7 */
(PID.TID 0000.0001)                 4.006770719102380E+04,      /* J =  8 */
(PID.TID 0000.0001)                 4.050209290047463E+04,      /* J =  9 */
(PID.TID 0000.0001)                 4.093412578484027E+04,      /* J = 10 */
(PID.TID 0000.0001)                 4.136371039407872E+04,      /* J = 11 */
(PID.TID 0000.0001)                 4.179075223673176E+04,      /* J = 12 */
(PID.TID 0000.0001)                 4.221515770920290E+04,      /* J = 13 */
(PID.TID 0000.0001)                 4.263683401805614E+04,      /* J = 14 */
(PID.TID 0000.0001)                 4.305568910412182E+04,      /* J = 15 */
(PID.TID 0000.0001)                 4.347163156363047E+04,      /* J = 16 */
(PID.TID 0000.0001)                 4.388457057225752E+04,      /* J = 17 */
(PID.TID 0000.0001)                 4.429441581934092E+04,      /* J = 18 */
(PID.TID 0000.0001)                 4.470107744374240E+04,      /* J = 19 */
(PID.TID 0000.0001)                 4.510446597891348E+04,      /* J = 20 */
(PID.TID 0000.0001)                 4.550449230395439E+04,      /* J = 21 */
(PID.TID 0000.0001)                 4.590106761654920E+04,      /* J = 22 */
(PID.TID 0000.0001)                 4.629410339849156E+04,      /* J = 23 */
(PID.TID 0000.0001)                 4.668351141269982E+04,      /* J = 24 */
(PID.TID 0000.0001)                 4.706920371856177E+04,      /* J = 25 */
(PID.TID 0000.0001)                 4.745109271730031E+04,      /* J = 26 */
(PID.TID 0000.0001)                 4.782909128417812E+04,      /* J = 27 */
(PID.TID 0000.0001)                 4.820311314005602E+04,      /* J = 28 */
(PID.TID 0000.0001)                 4.857307420014453E+04,      /* J = 29 */
(PID.TID 0000.0001)                 4.893889490827491E+04       /* J = 30 */
(PID.TID 0000.0001)     ;
(PID.TID 0000.0001) dxC =  /* dxC(:,1,:,1) ( units: m ) */
(PID.TID 0000.0001)                 2.071567651695695E+04,      /* I =  1 */
(PID.TID 0000.0001)                 2.070751892245589E+04,      /* I =  2 */
(PID.TID 0000.0001)                 2.069992855779408E+04,      /* I =  3 */
(PID.TID 0000.0001)                 2.069292717562287E+04,      /* I =  4 */
(PID.TID 0000.0001)                 2.068653446229046E+04,      /* I =  5 */
(PID.TID 0000.0001)                 2.068076808552306E+04,      /* I =  6 */
(PID.TID 0000.0001)                 2.067564373903614E+04,      /* I =  7 */
(PID.TID 0000.0001)                 2.067117518190149E+04,      /* I =  8 */
(PID.TID 0000.0001)                 2.066737427558298E+04,      /* I =  9 */
(PID.TID 0000.0001)                 2.066425102685107E+04,      /* I = 10 */
(PID.TID 0000.0001)                 2.066181364132844E+04,      /* I = 11 */
(PID.TID 0000.0001)                 2.066006869803818E+04,      /* I = 12 */
(PID.TID 0000.0001)                 2.065902266229015E+04,      /* I = 13 */
(PID.TID 0000.0001)                 2.065863826775786E+04,      /* I = 14 */
(PID.TID 0000.0001)                 2.065902266229016E+04,      /* I = 15 */
(PID.TID 0000.0001)                 2.066006869803813E+04,      /* I = 16 */
(PID.TID 0000.0001)                 2.066181364132850E+04,      /* I = 17 */
(PID.TID 0000.0001)                 2.066425102685108E+04,      /* I = 18 */
(PID.TID 0000.0001)                 2.066737427558298E+04,      /* I = 19 */
(PID.TID 0000.0001)                 2.067117518190149E+04,      /* I = 20 */
(PID.TID 0000.0001)                 2.067564373903615E+04,      /* I = 21 */
(PID.TID 0000.0001)                 2.068076808552304E+04,      /* I = 22 */
(PID.TID 0000.0001)                 2.068653446229045E+04,      /* I = 23 */
(PID.TID 0000.0001)                 2.069292717562287E+04,      /* I = 24 */
(PID.TID 0000.0001)                 2.069992855779413E+04,      /* I = 25 */
(PID.TID 0000.0001)                 2.070751892245584E+04,      /* I = 26 */
(PID.TID 0000.0001)                 2.071567651695691E+04,      /* I = 27 */
(PID.TID 0000.0001)                 2.072437747324421E+04,      /* I = 28 */
(PID.TID 0000.0001)                 2.073359574551806E+04,      /* I = 29 */
(PID.TID 0000.0001)                 2.074330305575613E+04       /* I = 30 */
(PID.TID 0000.0001)     ;
(PID.TID 0000.0001) dxC =  /* dxC(1,:,1,:) ( units: m ) */
(PID.TID 0000.0001)                 2.071567651695695E+04,      /* J =  1 */
(PID.TID 0000.0001)                 2.109563672137949E+04,      /* J =  2 */
(PID.TID 0000.0001)                 2.149002149497106E+04,      /* J =  3 */
(PID.TID 0000.0001)                 2.189882927482529E+04,      /* J =  4 */
(PID.TID 0000.0001)                 2.232205646389843E+04,      /* J =  5 */
(PID.TID 0000.0001)                 2.275969855854128E+04,      /* J =  6 */
(PID.TID 0000.0001)                 2.321175117362029E+04,      /* J =  7 */
(PID.TID 0000.0001)                 2.367821096276529E+04,      /* J =  8 */
(PID.TID 0000.0001)                 2.415907643347346E+04,      /* J =  9 */
(PID.TID 0000.0001)                 2.465434865814045E+04,      /* J = 10 */
(PID.TID 0000.0001)                 2.516403188365780E+04,      /* J = 11 */
(PID.TID 0000.0001)                 2.568813404310613E+04,      /* J = 12 */
(PID.TID 0000.0001)                 2.622666717399572E+04,      /* J = 13 */
(PID.TID 0000.0001)                 2.677964774799169E+04,      /* J = 14 */
(PID.TID 0000.0001)                 2.734709691757753E+04,      /* J = 15 */
(PID.TID 0000.0001)                 2.792904068517491E+04,      /* J = 16 */
(PID.TID 0000.0001)                 2.852551000032625E+04,      /* J = 17 */
(PID.TID 0000.0001)                 2.913654079081990E+04,      /* J = 18 */
(PID.TID 0000.0001)                 2.976217393306023E+04,      /* J = 19 */
(PID.TID 0000.0001)                 3.040245516699173E+04,      /* J = 20 */
(PID.TID 0000.0001)                 3.105743496108396E+04,      /* J = 21 */
(PID.TID 0000.0001)                 3.172716833208323E+04,      /* J = 22 */
(PID.TID 0000.0001)                 3.241171462422546E+04,      /* J = 23 */
(PID.TID 0000.0001)                 3.311113725244482E+04,      /* J = 24 */
(PID.TID 0000.0001)                 3.382550341391024E+04,      /* J = 25 */
(PID.TID 0000.0001)                 3.455488377140061E+04,      /* J = 26 */
(PID.TID 0000.0001)                 3.529935211332738E+04,      /* J = 27 */
(PID.TID 0000.0001)                 3.605898499520765E+04,      /* J = 28 */
(PID.TID 0000.0001)                 3.683386137397906E+04,      /* J = 29 */
(PID.TID 0000.0001)                 3.762406228407349E+04       /* J = 30 */
(PID.TID 0000.0001)     ;
(PID.TID 0000.0001) dyC =  /* dyC(:,1,:,1) ( units: m ) */
(PID.TID 0000.0001)                 3.678277710845771E+04,      /* I =  1 */
(PID.TID 0000.0001)                 3.685438685866048E+04,      /* I =  2 */
(PID.TID 0000.0001)                 3.692002588020908E+04,      /* I =  3 */
(PID.TID 0000.0001)                 3.697969453541307E+04,      /* I =  4 */
(PID.TID 0000.0001)                 3.703339337607873E+04,      /* I =  5 */
(PID.TID 0000.0001)                 3.708112307814123E+04,      /* I =  6 */
(PID.TID 0000.0001)                 3.712288438364359E+04,      /* I =  7 */
(PID.TID 0000.0001)                 3.715867804995441E+04,      /* I =  8 */
(PID.TID 0000.0001)                 3.718850480589901E+04,      /* I =  9 */
(PID.TID 0000.0001)                 3.721236531452968E+04,      /* I = 10 */
(PID.TID 0000.0001)                 3.723026014246432E+04,      /* I = 11 */
(PID.TID 0000.0001)                 3.724218973548726E+04,      /* I = 12 */
(PID.TID 0000.0001)     2 @  3.724815440020872E+04,             /* I = 13: 14 */
(PID.TID 0000.0001)                 3.724218973548726E+04,      /* I = 15 */
(PID.TID 0000.0001)                 3.723026014246432E+04,      /* I = 16 */
(PID.TID 0000.0001)                 3.721236531452968E+04,      /* I = 17 */
(PID.TID 0000.0001)                 3.718850480589901E+04,      /* I = 18 */
(PID.TID 0000.0001)                 3.715867804995440E+04,      /* I = 19 */
(PID.TID 0000.0001)                 3.712288438364359E+04,      /* I = 20 */
(PID.TID 0000.0001)                 3.708112307814122E+04,      /* I = 21 */
(PID.TID 0000.0001)                 3.703339337607873E+04,      /* I = 22 */
(PID.TID 0000.0001)                 3.697969453541307E+04,      /* I = 23 */
(PID.TID 0000.0001)                 3.692002588020908E+04,      /* I = 24 */
(PID.TID 0000.0001)                 3.685438685866047E+04,      /* I = 25 */
(PID.TID 0000.0001)                 3.678277710845772E+04,      /* I = 26 */
(PID.TID 0000.0001)                 3.670519653011381E+04,      /* I = 27 */
(PID.TID 0000.0001)                 3.662164536844059E+04,      /* I = 28 */
(PID.TID 0000.0001)                 3.653212430257830E+04,      /* I = 29 */
(PID.TID 0000.0001)                 3.643663454523116E+04       /* I = 30 */
(PID.TID 0000.0001)     ;
(PID.TID 0000.0001) dyC =  /* dyC(1,:,1,:) ( units: m ) */
(PID.TID 0000.0001)                 3.678277710845771E+04,      /* J =  1 */
(PID.TID 0000.0001)                 3.723168694115569E+04,      /* J =  2 */
(PID.TID 0000.0001)                 3.767901897410101E+04,      /* J =  3 */
(PID.TID 0000.0001)                 3.812467364657602E+04,      /* J =  4 */
(PID.TID 0000.0001)                 3.856855210935249E+04,      /* J =  5 */
(PID.TID 0000.0001)                 3.901055633269680E+04,      /* J =  6 */
(PID.TID 0000.0001)                 3.945058917911859E+04,      /* J =  7 */
(PID.TID 0000.0001)                 3.988855443472220E+04,      /* J =  8 */
(PID.TID 0000.0001)                 4.032435681898361E+04,      /* J =  9 */
(PID.TID 0000.0001)                 4.075790196435841E+04,      /* J = 10 */
(PID.TID 0000.0001)                 4.118909638222960E+04,      /* J = 11 */
(PID.TID 0000.0001)                 4.161784741043697E+04,      /* J = 12 */
(PID.TID 0000.0001)                 4.204406315499045E+04,      /* J = 13 */
(PID.TID 0000.0001)                 4.246765242091182E+04,      /* J = 14 */
(PID.TID 0000.0001)                 4.288852464034393E+04,      /* J = 15 */
(PID.TID 0000.0001)                 4.330658981118225E+04,      /* J = 16 */
(PID.TID 0000.0001)                 4.372175841431943E+04,      /* J = 17 */
(PID.TID 0000.0001)                 4.413394136293020E+04,      /* J = 18 */
(PID.TID 0000.0001)                 4.454304993440304E+04,      /* J = 19 */
(PID.TID 0000.0001)                 4.494899572325061E+04,      /* J = 20 */
(PID.TID 0000.0001)                 4.535169059286820E+04,      /* J = 21 */
(PID.TID 0000.0001)                 4.575104664412256E+04,      /* J = 22 */
(PID.TID 0000.0001)                 4.614697618947234E+04,      /* J = 23 */
(PID.TID 0000.0001)                 4.653939173844085E+04,      /* J = 24 */
(PID.TID 0000.0001)                 4.692820600744408E+04,      /* J = 25 */
(PID.TID 0000.0001)                 4.731333194957835E+04,      /* J = 26 */
(PID.TID 0000.0001)                 4.769468283927006E+04,      /* J = 27 */
(PID.TID 0000.0001)                 4.807217249390641E+04,      /* J = 28 */
(PID.TID 0000.0001)                 4.844571593362943E+04,      /* J = 29 */
(PID.TID 0000.0001)                 4.881523285497380E+04       /* J = 30 */
(PID.TID 0000.0001)     ;
(PID.TID 0000.0001) dxV =  /* dxV(:,1,:,1) ( units: m ) */
(PID.TID 0000.0001)                 2.053110526075532E+04,      /* I =  1 */
(PID.TID 0000.0001)                 2.052326088418283E+04,      /* I =  2 */
(PID.TID 0000.0001)                 2.051595672244828E+04,      /* I =  3 */
(PID.TID 0000.0001)                 2.050921502797681E+04,      /* I =  4 */
(PID.TID 0000.0001)                 2.050305593886370E+04,      /* I =  5 */
(PID.TID 0000.0001)                 2.049749752783181E+04,      /* I =  6 */
(PID.TID 0000.0001)                 2.049255584793284E+04,      /* I =  7 */
(PID.TID 0000.0001)                 2.048824497292525E+04,      /* I =  8 */
(PID.TID 0000.0001)                 2.048457703515834E+04,      /* I =  9 */
(PID.TID 0000.0001)                 2.048156226915133E+04,      /* I = 10 */
(PID.TID 0000.0001)                 2.047920906551970E+04,      /* I = 11 */
(PID.TID 0000.0001)                 2.047752414469434E+04,      /* I = 12 */
(PID.TID 0000.0001)                 2.047651405696554E+04,      /* I = 13 */
(PID.TID 0000.0001)                 2.047614194664622E+04,      /* I = 14 */
(PID.TID 0000.0001)                 2.047651405696559E+04,      /* I = 15 */
(PID.TID 0000.0001)                 2.047752414469430E+04,      /* I = 16 */
(PID.TID 0000.0001)                 2.047920906551971E+04,      /* I = 17 */
(PID.TID 0000.0001)                 2.048156226915138E+04,      /* I = 18 */
(PID.TID 0000.0001)                 2.048457703515829E+04,      /* I = 19 */
(PID.TID 0000.0001)                 2.048824497292535E+04,      /* I = 20 */
(PID.TID 0000.0001)                 2.049255584793274E+04,      /* I = 21 */
(PID.TID 0000.0001)                 2.049749752783187E+04,      /* I = 22 */
(PID.TID 0000.0001)                 2.050305593886373E+04,      /* I = 23 */
(PID.TID 0000.0001)                 2.050921502797675E+04,      /* I = 24 */
(PID.TID 0000.0001)                 2.051595672244826E+04,      /* I = 25 */
(PID.TID 0000.0001)                 2.052326088418290E+04,      /* I = 26 */
(PID.TID 0000.0001)                 2.053110526075532E+04,      /* I = 27 */
(PID.TID 0000.0001)                 2.053946543494557E+04,      /* I = 28 */
(PID.TID 0000.0001)                 2.054831476098181E+04,      /* I = 29 */
(PID.TID 0000.0001)                 2.055762430839241E+04       /* I = 30 */
(PID.TID 0000.0001)     ;
(PID.TID 0000.0001) dxV =  /* dxV(1,:,1,:) ( units: m ) */
(PID.TID 0000.0001)                 2.053110526075532E+04,      /* J =  1 */
(PID.TID 0000.0001)                 2.090385356266093E+04,      /* J =  2 */
(PID.TID 0000.0001)                 2.129102607314009E+04,      /* J =  3 */
(PID.TID 0000.0001)                 2.169262269996662E+04,      /* J =  4 */
(PID.TID 0000.0001)                 2.210864071595607E+04,      /* J =  5 */
(PID.TID 0000.0001)                 2.253907593617405E+04,      /* J =  6 */
(PID.TID 0000.0001)                 2.298392379458377E+04,      /* J =  7 */
(PID.TID 0000.0001)                 2.344318031700113E+04,      /* J =  8 */
(PID.TID 0000.0001)                 2.391684298864163E+04,      /* J =  9 */
(PID.TID 0000.0001)                 2.440491151699962E+04,      /* J = 10 */
(PID.TID 0000.0001)                 2.490738849171163E+04,      /* J = 11 */
(PID.TID 0000.0001)                 2.542427994477456E+04,      /* J = 12 */
(PID.TID 0000.0001)                 2.595559581485789E+04,      /* J = 13 */
(PID.TID 0000.0001)                 2.650135032062733E+04,      /* J = 14 */
(PID.TID 0000.0001)                 2.706156224833991E+04,      /* J = 15 */
(PID.TID 0000.0001)                 2.763625515890197E+04,      /* J = 16 */
(PID.TID 0000.0001)                 2.822545752042790E+04,      /* J = 17 */
(PID.TID 0000.0001)                 2.882920277162976E+04,      /* J = 18 */
(PID.TID 0000.0001)                 2.944752932187136E+04,      /* J = 19 */
(PID.TID 0000.0001)                 3.008048049319959E+04,      /* J = 20 */
(PID.TID 0000.0001)                 3.072810440966728E+04,      /* J = 21 */
(PID.TID 0000.0001)                 3.139045383903842E+04,      /* J = 22 */
(PID.TID 0000.0001)                 3.206758599174654E+04,      /* J = 23 */
(PID.TID 0000.0001)                 3.275956228156967E+04,      /* J = 24 */
(PID.TID 0000.0001)                 3.346644805244220E+04,      /* J = 25 */
(PID.TID 0000.0001)                 3.418831227550044E+04,      /* J = 26 */
(PID.TID 0000.0001)                 3.492522722017510E+04,      /* J = 27 */
(PID.TID 0000.0001)                 3.567726810399632E+04,      /* J = 28 */
(PID.TID 0000.0001)                 3.644451272859776E+04,      /* J = 29 */
(PID.TID 0000.0001)                 3.722704112152557E+04       /* J = 30 */
(PID.TID 0000.0001)     ;
(PID.TID 0000.0001) dyU =  /* dyU(:,1,:,1) ( units: m ) */
(PID.TID 0000.0001)                 3.674473316658630E+04,      /* I =  1 */
(PID.TID 0000.0001)                 3.681932833792822E+04,      /* I =  2 */
(PID.TID 0000.0001)                 3.688795269313092E+04,      /* I =  3 */
(PID.TID 0000.0001)                 3.695060647275718E+04,      /* I =  4 */
(PID.TID 0000.0001)                 3.700729014250917E+04,      /* I =  5 */
(PID.TID 0000.0001)                 3.705800432398131E+04,      /* I =  6 */
(PID.TID 0000.0001)                 3.710274973294064E+04,      /* I =  7 */
(PID.TID 0000.0001)                 3.714152712500728E+04,      /* I =  8 */
(PID.TID 0000.0001)                 3.717433724834998E+04,      /* I =  9 */
(PID.TID 0000.0001)                 3.720118080314009E+04,      /* I = 10 */
(PID.TID 0000.0001)                 3.722205840764935E+04,      /* I = 11 */
(PID.TID 0000.0001)                 3.723697057073888E+04,      /* I = 12 */
(PID.TID 0000.0001)                 3.724591767054543E+04,      /* I = 13 */
(PID.TID 0000.0001)                 3.724891083990022E+04,      /* I = 14 */
(PID.TID 0000.0001)                 3.724591767054542E+04,      /* I = 15 */
(PID.TID 0000.0001)                 3.723697057073889E+04,      /* I = 16 */
(PID.TID 0000.0001)                 3.722205840764935E+04,      /* I = 17 */
(PID.TID 0000.0001)                 3.720118080314008E+04,      /* I = 18 */
(PID.TID 0000.0001)                 3.717433724834998E+04,      /* I = 19 */
(PID.TID 0000.0001)                 3.714152712500728E+04,      /* I = 20 */
(PID.TID 0000.0001)                 3.710274973294063E+04,      /* I = 21 */
(PID.TID 0000.0001)                 3.705800432398131E+04,      /* I = 22 */
(PID.TID 0000.0001)                 3.700729014250917E+04,      /* I = 23 */
(PID.TID 0000.0001)                 3.695060647275716E+04,      /* I = 24 */
(PID.TID 0000.0001)                 3.688795269313094E+04,      /* I = 25 */
(PID.TID 0000.0001)                 3.681932833792821E+04,      /* I = 26 */
(PID.TID 0000.0001)                 3.674473316658630E+04,      /* I = 27 */
(PID.TID 0000.0001)                 3.666416724104654E+04,      /* I = 28 */
(PID.TID 0000.0001)                 3.657763101146962E+04,      /* I = 29 */
(PID.TID 0000.0001)                 3.648512541079492E+04       /* I = 30 */
(PID.TID 0000.0001)     ;
(PID.TID 0000.0001) dyU =  /* dyU(1,:,1,:) ( units: m ) */
(PID.TID 0000.0001)                 3.674473316658630E+04,      /* J =  1 */
(PID.TID 0000.0001)                 3.719361547538896E+04,      /* J =  2 */
(PID.TID 0000.0001)                 3.764089459751266E+04,      /* J =  3 */
(PID.TID 0000.0001)                 3.808646730382765E+04,      /* J =  4 */
(PID.TID 0000.0001)                 3.853023123895088E+04,      /* J =  5 */
(PID.TID 0000.0001)                 3.897208503739593E+04,      /* J =  6 */
(PID.TID 0000.0001)                 3.941192840112046E+04,      /* J =  7 */
(PID.TID 0000.0001)                 3.984966213263487E+04,      /* J =  8 */
(PID.TID 0000.0001)                 4.028518814419441E+04,      /* J =  9 */
(PID.TID 0000.0001)                 4.071840943468107E+04,      /* J = 10 */
(PID.TID 0000.0001)                 4.114923005120406E+04,      /* J = 11 */
(PID.TID 0000.0001)                 4.157755503103340E+04,      /* J = 12 */
(PID.TID 0000.0001)                 4.200329033666767E+04,      /* J = 13 */
(PID.TID 0000.0001)                 4.242634277960793E+04,      /* J = 14 */
(PID.TID 0000.0001)                 4.284661994092684E+04,      /* J = 15 */
(PID.TID 0000.0001)                 4.326403010205203E+04,      /* J = 16 */
(PID.TID 0000.0001)                 4.367848215462093E+04,      /* J = 17 */
(PID.TID 0000.0001)                 4.408988554208750E+04,      /* J = 18 */
(PID.TID 0000.0001)                 4.449815018464295E+04,      /* J = 19 */
(PID.TID 0000.0001)                 4.490318642518511E+04,      /* J = 20 */
(PID.TID 0000.0001)                 4.530490497491705E+04,      /* J = 21 */
(PID.TID 0000.0001)                 4.570321687598708E+04,      /* J = 22 */
(PID.TID 0000.0001)                 4.609803347024994E+04,      /* J = 23 */
(PID.TID 0000.0001)                 4.648926637992392E+04,      /* J = 24 */
(PID.TID 0000.0001)                 4.687682751321772E+04,      /* J = 25 */
(PID.TID 0000.0001)                 4.726062909013533E+04,      /* J = 26 */
(PID.TID 0000.0001)                 4.764058372401170E+04,      /* J = 27 */
(PID.TID 0000.0001)                 4.801660464021451E+04,      /* J = 28 */
(PID.TID 0000.0001)                 4.838860633247659E+04,      /* J = 29 */
(PID.TID 0000.0001)                 4.875650803021456E+04       /* J = 30 */
(PID.TID 0000.0001)     ;
(PID.TID 0000.0001) rA  =  /* rA (:,1,:,1) ( units: m^2 ) */
(PID.TID 0000.0001)                 7.665113621396177E+08,      /* I =  1 */
(PID.TID 0000.0001)                 7.677029697239892E+08,      /* I =  2 */
(PID.TID 0000.0001)                 7.687913877455838E+08,      /* I =  3 */
(PID.TID 0000.0001)                 7.697775979751738E+08,      /* I =  4 */
(PID.TID 0000.0001)                 7.706625466485583E+08,      /* I =  5 */
(PID.TID 0000.0001)                 7.714470546020026E+08,      /* I =  6 */
(PID.TID 0000.0001)                 7.721318586456149E+08,      /* I =  7 */
(PID.TID 0000.0001)                 7.727176271684608E+08,      /* I =  8 */
(PID.TID 0000.0001)                 7.732049082776864E+08,      /* I =  9 */
(PID.TID 0000.0001)                 7.735941717305043E+08,      /* I = 10 */
(PID.TID 0000.0001)                 7.738858051500469E+08,      /* I = 11 */
(PID.TID 0000.0001)                 7.740801100790358E+08,      /* I = 12 */
(PID.TID 0000.0001)                 7.741766386182301E+08,      /* I = 13 */
(PID.TID 0000.0001)                 7.741766369784317E+08,      /* I = 14 */
(PID.TID 0000.0001)                 7.740801094843833E+08,      /* I = 15 */
(PID.TID 0000.0001)                 7.738858062852919E+08,      /* I = 16 */
(PID.TID 0000.0001)                 7.735941726495122E+08,      /* I = 17 */
(PID.TID 0000.0001)                 7.732049061873938E+08,      /* I = 18 */
(PID.TID 0000.0001)                 7.727176277450933E+08,      /* I = 19 */
(PID.TID 0000.0001)                 7.721318658895597E+08,      /* I = 20 */
(PID.TID 0000.0001)                 7.714470531424019E+08,      /* I = 21 */
(PID.TID 0000.0001)                 7.706625470810328E+08,      /* I = 22 */
(PID.TID 0000.0001)                 7.697776024260553E+08,      /* I = 23 */
(PID.TID 0000.0001)                 7.687913844659867E+08,      /* I = 24 */
(PID.TID 0000.0001)                 7.677029712196296E+08,      /* I = 25 */
(PID.TID 0000.0001)                 7.665113646083255E+08,      /* I = 26 */
(PID.TID 0000.0001)                 7.652154604170089E+08,      /* I = 27 */
(PID.TID 0000.0001)                 7.638140926048064E+08,      /* I = 28 */
(PID.TID 0000.0001)                 7.623059927966076E+08,      /* I = 29 */
(PID.TID 0000.0001)                 7.606898330980235E+08       /* I = 30 */
(PID.TID 0000.0001)     ;
(PID.TID 0000.0001) rA  =  /* rA (1,:,1,:) ( units: m^2 ) */
(PID.TID 0000.0001)                 7.665113621396177E+08,      /* J =  1 */
(PID.TID 0000.0001)                 7.900134359449342E+08,      /* J =  2 */
(PID.TID 0000.0001)                 8.143679155417176E+08,      /* J =  3 */
(PID.TID 0000.0001)                 8.395900636155584E+08,      /* J =  4 */
(PID.TID 0000.0001)                 8.656947784023314E+08,      /* J =  5 */
(PID.TID 0000.0001)                 8.926966010402582E+08,      /* J =  6 */
(PID.TID 0000.0001)                 9.206097737377057E+08,      /* J =  7 */
(PID.TID 0000.0001)                 9.494482582794807E+08,      /* J =  8 */
(PID.TID 0000.0001)                 9.792257431806778E+08,      /* J =  9 */
(PID.TID 0000.0001)                 1.009955679131553E+09,      /* J = 10 */
(PID.TID 0000.0001)                 1.041651296044221E+09,      /* J = 11 */
(PID.TID 0000.0001)                 1.074325614369065E+09,      /* J = 12 */
(PID.TID 0000.0001)                 1.107991467925779E+09,      /* J = 13 */
(PID.TID 0000.0001)                 1.142661498173082E+09,      /* J = 14 */
(PID.TID 0000.0001)                 1.178348167164929E+09,      /* J = 15 */
(PID.TID 0000.0001)                 1.215063762235644E+09,      /* J = 16 */
(PID.TID 0000.0001)                 1.252820414073754E+09,      /* J = 17 */
(PID.TID 0000.0001)                 1.291630043617734E+09,      /* J = 18 */
(PID.TID 0000.0001)                 1.331504416619858E+09,      /* J = 19 */
(PID.TID 0000.0001)                 1.372455096362339E+09,      /* J = 20 */
(PID.TID 0000.0001)                 1.414493440828222E+09,      /* J = 21 */
(PID.TID 0000.0001)                 1.457630613639386E+09,      /* J = 22 */
(PID.TID 0000.0001)                 1.501877517761831E+09,      /* J = 23 */
(PID.TID 0000.0001)                 1.547244834049951E+09,      /* J = 24 */
(PID.TID 0000.0001)                 1.593742963439136E+09,      /* J = 25 */
(PID.TID 0000.0001)                 1.641382020566774E+09,      /* J = 26 */
(PID.TID 0000.0001)                 1.690171807481416E+09,      /* J = 27 */
(PID.TID 0000.0001)                 1.740121820832662E+09,      /* J = 28 */
(PID.TID 0000.0001)                 1.791241246411172E+09,      /* J = 29 */
(PID.TID 0000.0001)                 1.843539059771026E+09       /* J = 30 */
(PID.TID 0000.0001)     ;
(PID.TID 0000.0001) rAw =  /* rAw(:,1,:,1) ( units: m^2 ) */
(PID.TID 0000.0001)                 7.658765213139513E+08,      /* I =  1 */
(PID.TID 0000.0001)                 7.671201328724998E+08,      /* I =  2 */
(PID.TID 0000.0001)                 7.682600121490355E+08,      /* I =  3 */
(PID.TID 0000.0001)                 7.692972101823016E+08,      /* I =  4 */
(PID.TID 0000.0001)                 7.702326756407654E+08,      /* I =  5 */
(PID.TID 0000.0001)                 7.710673044850856E+08,      /* I =  6 */
(PID.TID 0000.0001)                 7.718018764844863E+08,      /* I =  7 */
(PID.TID 0000.0001)                 7.724370884091616E+08,      /* I =  8 */
(PID.TID 0000.0001)                 7.729735468223690E+08,      /* I =  9 */
(PID.TID 0000.0001)                 7.734117650170708E+08,      /* I = 10 */
(PID.TID 0000.0001)                 7.737521718456172E+08,      /* I = 11 */
(PID.TID 0000.0001)                 7.739951054308500E+08,      /* I = 12 */
(PID.TID 0000.0001)                 7.741408739107244E+08,      /* I = 13 */
(PID.TID 0000.0001)                 7.741880730050739E+08,      /* I = 14 */
(PID.TID 0000.0001)                 7.741408710636016E+08,      /* I = 15 */
(PID.TID 0000.0001)                 7.739951071427275E+08,      /* I = 16 */
(PID.TID 0000.0001)                 7.737521718095777E+08,      /* I = 17 */
(PID.TID 0000.0001)                 7.734117675938969E+08,      /* I = 18 */
(PID.TID 0000.0001)                 7.729735457051437E+08,      /* I = 19 */
(PID.TID 0000.0001)                 7.724370889497546E+08,      /* I = 20 */
(PID.TID 0000.0001)                 7.718018793856685E+08,      /* I = 21 */
(PID.TID 0000.0001)                 7.710673053320146E+08,      /* I = 22 */
(PID.TID 0000.0001)                 7.702326816053071E+08,      /* I = 23 */
(PID.TID 0000.0001)                 7.692972065242898E+08,      /* I = 24 */
(PID.TID 0000.0001)                 7.682600115363635E+08,      /* I = 25 */
(PID.TID 0000.0001)                 7.671201363863536E+08,      /* I = 26 */
(PID.TID 0000.0001)                 7.658765213499908E+08,      /* I = 27 */
(PID.TID 0000.0001)                 7.645280345158333E+08,      /* I = 28 */
(PID.TID 0000.0001)                 7.630734673343852E+08,      /* I = 29 */
(PID.TID 0000.0001)                 7.615115062009304E+08       /* I = 30 */
(PID.TID 0000.0001)     ;
(PID.TID 0000.0001) rAw =  /* rAw(1,:,1,:) ( units: m^2 ) */
(PID.TID 0000.0001)                 7.658765213139513E+08,      /* J =  1 */
(PID.TID 0000.0001)                 7.893768970448780E+08,      /* J =  2 */
(PID.TID 0000.0001)                 8.137283914516071E+08,      /* J =  3 */
(PID.TID 0000.0001)                 8.389460603348250E+08,      /* J =  4 */
(PID.TID 0000.0001)                 8.650445848102766E+08,      /* J =  5 */
(PID.TID 0000.0001)                 8.920382782103341E+08,      /* J =  6 */
(PID.TID 0000.0001)                 9.199411445401106E+08,      /* J =  7 */
(PID.TID 0000.0001)                 9.487668893433769E+08,      /* J =  8 */
(PID.TID 0000.0001)                 9.785289545527842E+08,      /* J =  9 */
(PID.TID 0000.0001)                 1.009240515336406E+09,      /* J = 10 */
(PID.TID 0000.0001)                 1.040914522930714E+09,      /* J = 11 */
(PID.TID 0000.0001)                 1.073563715488477E+09,      /* J = 12 */
(PID.TID 0000.0001)                 1.107200612276400E+09,      /* J = 13 */
(PID.TID 0000.0001)                 1.141837554111466E+09,      /* J = 14 */
(PID.TID 0000.0001)                 1.177486672294872E+09,      /* J = 15 */
(PID.TID 0000.0001)                 1.214159933192917E+09,      /* J = 16 */
(PID.TID 0000.0001)                 1.251869095602249E+09,      /* J = 17 */
(PID.TID 0000.0001)                 1.290625742284441E+09,      /* J = 18 */
(PID.TID 0000.0001)                 1.330441258846839E+09,      /* J = 19 */
(PID.TID 0000.0001)                 1.371326820624166E+09,      /* J = 20 */
(PID.TID 0000.0001)                 1.413293399742275E+09,      /* J = 21 */
(PID.TID 0000.0001)                 1.456351737475827E+09,      /* J = 22 */
(PID.TID 0000.0001)                 1.500512320083793E+09,      /* J = 23 */
(PID.TID 0000.0001)                 1.545785394792978E+09,      /* J = 24 */
(PID.TID 0000.0001)                 1.592180902277974E+09,      /* J = 25 */
(PID.TID 0000.0001)                 1.639708504465653E+09,      /* J = 26 */
(PID.TID 0000.0001)                 1.688377519501836E+09,      /* J = 27 */
(PID.TID 0000.0001)                 1.738196956421325E+09,      /* J = 28 */
(PID.TID 0000.0001)                 1.789175499722981E+09,      /* J = 29 */
(PID.TID 0000.0001)                 1.841321602441802E+09       /* J = 30 */
(PID.TID 0000.0001)     ;
(PID.TID 0000.0001) rAs =  /* rAs(:,1,:,1) ( units: m^2 ) */
(PID.TID 0000.0001)                 7.550751050606852E+08,      /* I =  1 */
(PID.TID 0000.0001)                 7.562658447772087E+08,      /* I =  2 */
(PID.TID 0000.0001)                 7.573533970032284E+08,      /* I =  3 */
(PID.TID 0000.0001)                 7.583387692957978E+08,      /* I =  4 */
(PID.TID 0000.0001)                 7.592229121974397E+08,      /* I =  5 */
(PID.TID 0000.0001)                 7.600066705467438E+08,      /* I =  6 */
(PID.TID 0000.0001)                 7.606907923080522E+08,      /* I =  7 */
(PID.TID 0000.0001)                 7.612759532224941E+08,      /* I =  8 */
(PID.TID 0000.0001)                 7.617627129118443E+08,      /* I =  9 */
(PID.TID 0000.0001)                 7.621515550445726E+08,      /* I = 10 */
(PID.TID 0000.0001)                 7.624428588466020E+08,      /* I = 11 */
(PID.TID 0000.0001)                 7.626369483673384E+08,      /* I = 12 */
(PID.TID 0000.0001)                 7.627333738515058E+08,      /* I = 13 */
(PID.TID 0000.0001)                 7.627333728604188E+08,      /* I = 14 */
(PID.TID 0000.0001)                 7.626369508901051E+08,      /* I = 15 */
(PID.TID 0000.0001)                 7.624428655319341E+08,      /* I = 16 */
(PID.TID 0000.0001)                 7.621515526659639E+08,      /* I = 17 */
(PID.TID 0000.0001)                 7.617627197953936E+08,      /* I = 18 */
(PID.TID 0000.0001)                 7.612759510961621E+08,      /* I = 19 */
(PID.TID 0000.0001)                 7.606907969030919E+08,      /* I = 20 */
(PID.TID 0000.0001)                 7.600066694295187E+08,      /* I = 21 */
(PID.TID 0000.0001)                 7.592229103594238E+08,      /* I = 22 */
(PID.TID 0000.0001)                 7.583387684488690E+08,      /* I = 23 */
(PID.TID 0000.0001)                 7.573533915792797E+08,      /* I = 24 */
(PID.TID 0000.0001)                 7.562658465071062E+08,      /* I = 25 */
(PID.TID 0000.0001)                 7.550751079979067E+08,      /* I = 26 */
(PID.TID 0000.0001)                 7.537800585200102E+08,      /* I = 27 */
(PID.TID 0000.0001)                 7.523795064624999E+08,      /* I = 28 */
(PID.TID 0000.0001)                 7.508721675027735E+08,      /* I = 29 */
(PID.TID 0000.0001)                 7.492566800675046E+08       /* I = 30 */
(PID.TID 0000.0001)     ;
(PID.TID 0000.0001) rAs =  /* rAs(1,:,1,:) ( units: m^2 ) */
(PID.TID 0000.0001)                 7.550751050606852E+08,      /* J =  1 */
(PID.TID 0000.0001)                 7.781568160584769E+08,      /* J =  2 */
(PID.TID 0000.0001)                 8.020831616625657E+08,      /* J =  3 */
(PID.TID 0000.0001)                 8.268695937660589E+08,      /* J =  4 */
(PID.TID 0000.0001)                 8.525311818286231E+08,      /* J =  5 */
(PID.TID 0000.0001)                 8.790826547724357E+08,      /* J =  6 */
(PID.TID 0000.0001)                 9.065383887828039E+08,      /* J =  7 */
(PID.TID 0000.0001)                 9.349124897125442E+08,      /* J =  8 */
(PID.TID 0000.0001)                 9.642187819277472E+08,      /* J =  9 */
(PID.TID 0000.0001)                 9.944708240750725E+08,      /* J = 10 */
(PID.TID 0000.0001)                 1.025681954725808E+09,      /* J = 11 */
(PID.TID 0000.0001)                 1.057865313008499E+09,      /* J = 12 */
(PID.TID 0000.0001)                 1.091033805921100E+09,      /* J = 13 */
(PID.TID 0000.0001)                 1.125200178247652E+09,      /* J = 14 */
(PID.TID 0000.0001)                 1.160376979600140E+09,      /* J = 15 */
(PID.TID 0000.0001)                 1.196576586510721E+09,      /* J = 16 */
(PID.TID 0000.0001)                 1.233811208089928E+09,      /* J = 17 */
(PID.TID 0000.0001)                 1.272092866313053E+09,      /* J = 18 */
(PID.TID 0000.0001)                 1.311433405822894E+09,      /* J = 19 */
(PID.TID 0000.0001)                 1.351844507714875E+09,      /* J = 20 */
(PID.TID 0000.0001)                 1.393337606051485E+09,      /* J = 21 */
(PID.TID 0000.0001)                 1.435923987908001E+09,      /* J = 22 */
(PID.TID 0000.0001)                 1.479614675036705E+09,      /* J = 23 */
(PID.TID 0000.0001)                 1.524420466465598E+09,      /* J = 24 */
(PID.TID 0000.0001)                 1.570351910729954E+09,      /* J = 25 */
(PID.TID 0000.0001)                 1.617419255741331E+09,      /* J = 26 */
(PID.TID 0000.0001)                 1.665632470339211E+09,      /* J = 27 */
(PID.TID 0000.0001)                 1.715001205152071E+09,      /* J = 28 */
(PID.TID 0000.0001)                 1.765534790867491E+09,      /* J = 29 */
(PID.TID 0000.0001)                 1.817242347954489E+09       /* J = 30 */
(PID.TID 0000.0001)     ;
(PID.TID 0000.0001) globalArea = /* Integrated horizontal Area (m^2) */
(PID.TID 0000.0001)                 3.580138611494435E+14
(PID.TID 0000.0001)     ;
(PID.TID 0000.0001) hasWetCSCorners = /* Domain contains CS corners (True/False) */
(PID.TID 0000.0001)                   F
(PID.TID 0000.0001)     ;
(PID.TID 0000.0001) // =======================================================
(PID.TID 0000.0001) // End of Model config. summary
(PID.TID 0000.0001) // =======================================================
(PID.TID 0000.0001) 
(PID.TID 0000.0001) == Packages configuration : Check & print summary ==
(PID.TID 0000.0001) 
(PID.TID 0000.0001) GGL90_CHECK: #define ALLOW_GGL90
(PID.TID 0000.0001) GGL90_CHECK: Some form of convection has been enabled
(PID.TID 0000.0001) GMREDI_CHECK: #define GMREDI
(PID.TID 0000.0001) GM_AdvForm =     /* if FALSE => use SkewFlux Form */
(PID.TID 0000.0001)                   T
(PID.TID 0000.0001)     ;
(PID.TID 0000.0001) GM_InMomAsStress = /* if TRUE => apply as Eddy Stress */
(PID.TID 0000.0001)                   F
(PID.TID 0000.0001)     ;
(PID.TID 0000.0001) GM_AdvSeparate = /* Calc Bolus & Euler Adv. separately */
(PID.TID 0000.0001)                   F
(PID.TID 0000.0001)     ;
(PID.TID 0000.0001) GM_ExtraDiag =   /* Tensor Extra Diag (line 1&2) non 0 */
(PID.TID 0000.0001)                   T
(PID.TID 0000.0001)     ;
(PID.TID 0000.0001) GM_isopycK =    /* Background Isopyc. Diffusivity [m^2/s] */
(PID.TID 0000.0001)                 1.000000000000000E+03
(PID.TID 0000.0001)     ;
(PID.TID 0000.0001) GM_skewflx*K =  /* Background GM_SkewFlx Diffusivity [m^2/s] */
(PID.TID 0000.0001)                 0.000000000000000E+00
(PID.TID 0000.0001)     ;
(PID.TID 0000.0001) GM_advec*K =    /* Backg. GM-Advec(=Bolus) Diffusivity [m^2/s]*/
(PID.TID 0000.0001)                 1.000000000000000E+03
(PID.TID 0000.0001)     ;
(PID.TID 0000.0001) GM_Kmin_horiz = /* Minimum Horizontal Diffusivity [m^2/s] */
(PID.TID 0000.0001)                 1.000000000000000E+02
(PID.TID 0000.0001)     ;
(PID.TID 0000.0001) GM_Visbeck_alpha = /* Visbeck alpha coeff. [-] */
(PID.TID 0000.0001)                 0.000000000000000E+00
(PID.TID 0000.0001)     ;
(PID.TID 0000.0001) GM_Small_Number =  /* epsilon used in slope calc */
(PID.TID 0000.0001)                 9.999999999999999E-21
(PID.TID 0000.0001)     ;
(PID.TID 0000.0001) GM_slopeSqCutoff = /* Slope^2 cut-off value */
(PID.TID 0000.0001)                 1.000000000000000E+08
(PID.TID 0000.0001)     ;
(PID.TID 0000.0001) GM_taper_scheme =  /* Type of Tapering/Clipping scheme */
(PID.TID 0000.0001)               'stableGmAdjTap                          '
(PID.TID 0000.0001)     ;
(PID.TID 0000.0001) GM_maxSlope =  /* Maximum Slope (Tapering/Clipping) */
(PID.TID 0000.0001)                 4.000000000000000E-03
(PID.TID 0000.0001)     ;
(PID.TID 0000.0001) GM_facTrL2dz = /* Minimum Trans.Layer Thick. (factor of dz) */
(PID.TID 0000.0001)                 1.000000000000000E+00
(PID.TID 0000.0001)     ;
(PID.TID 0000.0001) GM_facTrL2ML = /* Max.Trans.Layer Thick. (factor of MxL Depth)*/
(PID.TID 0000.0001)                 5.000000000000000E+00
(PID.TID 0000.0001)     ;
(PID.TID 0000.0001) GM_maxTransLay = /* Maximum Transition Layer Thickness [m] */
(PID.TID 0000.0001)                 5.000000000000000E+02
(PID.TID 0000.0001)     ;
(PID.TID 0000.0001) GM_UseBVP = /* if TRUE => use bvp a la Ferrari et al. (2010) */
(PID.TID 0000.0001)                   F
(PID.TID 0000.0001)     ;
(PID.TID 0000.0001) GM_BVP_ModeNumber = /* Vertical mode number for BVP wave speed */
(PID.TID 0000.0001)                       1
(PID.TID 0000.0001)     ;
(PID.TID 0000.0001) GM_BVP_cMin = /* Minimum wave speed for BVP [m/s] */
(PID.TID 0000.0001)                 1.000000000000000E-01
(PID.TID 0000.0001)     ;
(PID.TID 0000.0001) GM_useSubMeso = /* if TRUE => use Sub-Meso param. (B.Fox-Kemper) */
(PID.TID 0000.0001)                   F
(PID.TID 0000.0001)     ;
(PID.TID 0000.0001) subMeso_Ceff = /* efficiency coeff. of Mixed-Layer Eddies [-] */
(PID.TID 0000.0001)                 7.000000000000001E-02
(PID.TID 0000.0001)     ;
(PID.TID 0000.0001) subMeso_invTau = /* inverse of Sub-Meso mixing time-scale [/s] */
(PID.TID 0000.0001)                 2.000000000000000E-06
(PID.TID 0000.0001)     ;
(PID.TID 0000.0001) subMeso_LfMin = /* minimum length-scale "Lf" [m] */
(PID.TID 0000.0001)                 1.000000000000000E+03
(PID.TID 0000.0001)     ;
(PID.TID 0000.0001) subMeso_Lmax = /* maximum grid-scale length [m] */
(PID.TID 0000.0001)                 1.100000000000000E+05
(PID.TID 0000.0001)     ;
(PID.TID 0000.0001) SALT_PLUME_CHECK: #define SALT_PLUME
(PID.TID 0000.0001) CTRL_CHECK: #define ALLOW_CTRL
(PID.TID 0000.0001) GAD_CHECK: #define ALLOW_GENERIC_ADVDIFF
(PID.TID 0000.0001) // =======================================================
(PID.TID 0000.0001) // Check Model config. (CONFIG_CHECK):
(PID.TID 0000.0001) // CONFIG_CHECK : Normal End
(PID.TID 0000.0001) // =======================================================
(PID.TID 0000.0001) 
(PID.TID 0000.0001)  nRecords = 403 ; filePrec =  64 ; fileIter =     26280
(PID.TID 0000.0001)     nDims =   2 , dims:
(PID.TID 0000.0001)    1:  90   1  90
(PID.TID 0000.0001)    2:1170   11170
(PID.TID 0000.0001)     nFlds =  11 , nFl3D =   8 , fields:
(PID.TID 0000.0001)  >Uvel    < >Vvel    < >Theta   < >Salt    < >GuNm1   < >GuNm2   < >GvNm1   < >GvNm2   < >EtaN    < >dEtaHdt < >EtaH    <
(PID.TID 0000.0001) missingVal=  1.00000000000000E+00 ; nTimRec =   1 , timeList:
(PID.TID 0000.0001)   9.460800000000E+07
(PID.TID 0000.0001) READ_MFLDS_3D_RL: read field: "Uvel    ", #   1 in fldList, rec=   1
(PID.TID 0000.0001) READ_MFLDS_3D_RL: read field: "Vvel    ", #   2 in fldList, rec=   2
(PID.TID 0000.0001) READ_MFLDS_3D_RL: read field: "Theta   ", #   3 in fldList, rec=   3
(PID.TID 0000.0001) READ_MFLDS_3D_RL: read field: "Salt    ", #   4 in fldList, rec=   4
(PID.TID 0000.0001) READ_MFLDS_3D_RL: read field: "GuNm1   ", #   5 in fldList, rec=   5
(PID.TID 0000.0001) READ_MFLDS_3D_RL: read field: "GvNm1   ", #   7 in fldList, rec=   7
(PID.TID 0000.0001) READ_MFLDS_3D_RL: read field: "EtaN    ", #   9 in fldList, rec= 401
(PID.TID 0000.0001) READ_MFLDS_3D_RL: read field: "dEtaHdt ", #  10 in fldList, rec= 402
(PID.TID 0000.0001) READ_MFLDS_3D_RL: read field: "EtaH    ", #  11 in fldList, rec= 403
(PID.TID 0000.0001) READ_MFLDS_CHECK: - normal end ; reset MFLDS file-name: pickup.0000000001
(PID.TID 0000.0001) // =======================================================
(PID.TID 0000.0001) // Model current state
(PID.TID 0000.0001) // =======================================================
(PID.TID 0000.0001) 
(PID.TID 0000.0001) SOLVE_FOR_PRESSURE: putPmEinXvector =    F
 cg2d: Sum(rhs),rhsMax =   4.79296485389352E+01  3.22132423311997E-01
 cg2d: Sum(rhs),rhsMax =   4.77195290885103E+01  3.19415258740589E-01
 cg2d: Sum(rhs),rhsMax =   4.84930756172283E+01  3.25335427135821E-01
 cg2d: Sum(rhs),rhsMax =   4.94814932286620E+01  3.24691095770821E-01
 cg2d: Sum(rhs),rhsMax =   5.05228043405743E+01  3.19233315302725E-01
 cg2d: Sum(rhs),rhsMax =   5.16062254092320E+01  3.12578066002007E-01
 cg2d: Sum(rhs),rhsMax =   5.27345745422293E+01  3.09598389874390E-01
(PID.TID 0000.0001)      cg2d_init_res =   1.14631552953060E+00
(PID.TID 0000.0001)      cg2d_iters(min,last) =      -1      37
(PID.TID 0000.0001)      cg2d_last_res =   2.43179267341205E-05
(PID.TID 0000.0001) // =======================================================
(PID.TID 0000.0001) // Begin MONITOR dynamic field statistics
(PID.TID 0000.0001) // =======================================================
(PID.TID 0000.0001) %MON time_tsnumber                =                     8
(PID.TID 0000.0001) %MON time_secondsf                =   7.2000000000000E+03
(PID.TID 0000.0001) %MON dynstat_eta_max              =   1.1501251942540E+00
(PID.TID 0000.0001) %MON dynstat_eta_min              =  -4.5780797877324E+00
(PID.TID 0000.0001) %MON dynstat_eta_mean             =  -1.6681630158267E-03
(PID.TID 0000.0001) %MON dynstat_eta_sd               =   7.3554938762892E-01
(PID.TID 0000.0001) %MON dynstat_eta_del2             =   1.2245899590346E-04
(PID.TID 0000.0001) %MON dynstat_uvel_max             =   9.1801504851313E-01
(PID.TID 0000.0001) %MON dynstat_uvel_min             =  -1.1418137208356E+00
(PID.TID 0000.0001) %MON dynstat_uvel_mean            =   1.8207604995339E-03
(PID.TID 0000.0001) %MON dynstat_uvel_sd              =   2.1844021335557E-02
(PID.TID 0000.0001) %MON dynstat_uvel_del2            =   1.7391144410075E-05
(PID.TID 0000.0001) %MON dynstat_vvel_max             =   8.4209342855030E-01
(PID.TID 0000.0001) %MON dynstat_vvel_min             =  -9.4549429857786E-01
(PID.TID 0000.0001) %MON dynstat_vvel_mean            =   1.2398568544878E-03
(PID.TID 0000.0001) %MON dynstat_vvel_sd              =   2.3852365183475E-02
(PID.TID 0000.0001) %MON dynstat_vvel_del2            =   1.8678270537045E-05
(PID.TID 0000.0001) %MON dynstat_wvel_max             =   1.8657054631901E-03
(PID.TID 0000.0001) %MON dynstat_wvel_min             =  -1.4974449057998E-03
(PID.TID 0000.0001) %MON dynstat_wvel_mean            =   8.6973429463868E-08
(PID.TID 0000.0001) %MON dynstat_wvel_sd              =   3.3465846202510E-05
(PID.TID 0000.0001) %MON dynstat_wvel_del2            =   4.3286675737459E-08
(PID.TID 0000.0001) %MON dynstat_theta_max            =   3.2664058245218E+01
(PID.TID 0000.0001) %MON dynstat_theta_min            =  -2.0421616786933E+00
(PID.TID 0000.0001) %MON dynstat_theta_mean           =   3.5905906101238E+00
(PID.TID 0000.0001) %MON dynstat_theta_sd             =   4.4366032767062E+00
(PID.TID 0000.0001) %MON dynstat_theta_del2           =   1.0937993596360E-04
(PID.TID 0000.0001) %MON dynstat_salt_max             =   4.0711526586810E+01
(PID.TID 0000.0001) %MON dynstat_salt_min             =   1.8893415883046E+01
(PID.TID 0000.0001) %MON dynstat_salt_mean            =   3.4725774675339E+01
(PID.TID 0000.0001) %MON dynstat_salt_sd              =   3.7776120342529E-01
(PID.TID 0000.0001) %MON dynstat_salt_del2            =   2.6862024684580E-05
(PID.TID 0000.0001) %MON dynstat_sst_max              =   3.2664058245218E+01
(PID.TID 0000.0001) %MON dynstat_sst_min              =  -1.9524580605002E+00
(PID.TID 0000.0001) %MON dynstat_sst_mean             =   1.8503841994764E+01
(PID.TID 0000.0001) %MON dynstat_sst_sd               =   1.0093620995354E+01
(PID.TID 0000.0001) %MON dynstat_sst_del2             =   8.8087311143751E-04
(PID.TID 0000.0001) %MON dynstat_sss_max              =   3.9666468065855E+01
(PID.TID 0000.0001) %MON dynstat_sss_min              =   1.8893415883046E+01
(PID.TID 0000.0001) %MON dynstat_sss_mean             =   3.4713400960544E+01
(PID.TID 0000.0001) %MON dynstat_sss_sd               =   1.1589125881167E+00
(PID.TID 0000.0001) %MON dynstat_sss_del2             =   3.7410717669806E-04
(PID.TID 0000.0001) %MON forcing_qnet_max             =   1.6879041748047E+03
(PID.TID 0000.0001) %MON forcing_qnet_min             =  -1.2690739795385E+03
(PID.TID 0000.0001) %MON forcing_qnet_mean            =  -2.4487916453116E+01
(PID.TID 0000.0001) %MON forcing_qnet_sd              =   2.2476825103664E+02
(PID.TID 0000.0001) %MON forcing_qnet_del2            =   4.2368591834270E-01
(PID.TID 0000.0001) %MON forcing_qsw_max              =   0.0000000000000E+00
(PID.TID 0000.0001) %MON forcing_qsw_min              =  -1.1192283683107E+02
(PID.TID 0000.0001) %MON forcing_qsw_mean             =  -2.2606701476023E+01
(PID.TID 0000.0001) %MON forcing_qsw_sd               =   3.0560827235947E+01
(PID.TID 0000.0001) %MON forcing_qsw_del2             =   2.2885626924159E-02
(PID.TID 0000.0001) %MON forcing_empmr_max            =   3.7068685051054E-03
(PID.TID 0000.0001) %MON forcing_empmr_min            =  -5.4987249895930E-03
(PID.TID 0000.0001) %MON forcing_empmr_mean           =   4.0809324557152E-05
(PID.TID 0000.0001) %MON forcing_empmr_sd             =   4.5424034533716E-04
(PID.TID 0000.0001) %MON forcing_empmr_del2           =   1.0096398282244E-06
(PID.TID 0000.0001) %MON forcing_fu_max               =   1.3843064308166E+00
(PID.TID 0000.0001) %MON forcing_fu_min               =  -1.3713696599007E+00
(PID.TID 0000.0001) %MON forcing_fu_mean              =   1.0619479410826E-02
(PID.TID 0000.0001) %MON forcing_fu_sd                =   1.2757090872968E-01
(PID.TID 0000.0001) %MON forcing_fu_del2              =   1.8443534517612E-04
(PID.TID 0000.0001) %MON forcing_fv_max               =   8.5317981243134E-01
(PID.TID 0000.0001) %MON forcing_fv_min               =  -8.4718835353851E-01
(PID.TID 0000.0001) %MON forcing_fv_mean              =  -5.9402207866859E-03
(PID.TID 0000.0001) %MON forcing_fv_sd                =   1.2110384927861E-01
(PID.TID 0000.0001) %MON forcing_fv_del2              =   1.5238240163250E-04
(PID.TID 0000.0001) %MON trAdv_CFL_u_max              =   2.4614081104247E-02
(PID.TID 0000.0001) %MON trAdv_CFL_v_max              =   2.4576500101718E-02
(PID.TID 0000.0001) %MON trAdv_CFL_w_max              =   8.2937096538940E-02
(PID.TID 0000.0001) %MON advcfl_uvel_max              =   2.3088845281259E-02
(PID.TID 0000.0001) %MON advcfl_vvel_max              =   2.1448294492902E-02
(PID.TID 0000.0001) %MON advcfl_wvel_max              =   8.3449353868523E-02
(PID.TID 0000.0001) %MON advcfl_W_hf_max              =   8.3783509602581E-02
(PID.TID 0000.0001) %MON pe_b_mean                    =   7.1167937287223E-04
(PID.TID 0000.0001) %MON ke_max                       =   6.6157326052095E-01
(PID.TID 0000.0001) %MON ke_mean                      =   5.0676408415537E-04
(PID.TID 0000.0001) %MON ke_vol                       =   1.3349972924925E+18
(PID.TID 0000.0001) %MON vort_r_min                   =  -4.8300715642491E-05
(PID.TID 0000.0001) %MON vort_r_max                   =   3.4235584833730E-05
(PID.TID 0000.0001) %MON vort_a_mean                  =  -1.9727864647440E-05
(PID.TID 0000.0001) %MON vort_a_sd                    =   7.4543398811613E-05
(PID.TID 0000.0001) %MON vort_p_mean                  =  -2.1760538044858E-05
(PID.TID 0000.0001) %MON vort_p_sd                    =   9.7241242581867E-05
(PID.TID 0000.0001) %MON surfExpan_theta_mean         =  -2.2790621275732E-06
(PID.TID 0000.0001) %MON surfExpan_salt_mean          =  -2.9794031156285E-07
(PID.TID 0000.0001) // =======================================================
(PID.TID 0000.0001) // End MONITOR dynamic field statistics
(PID.TID 0000.0001) // =======================================================
 cg2d: Sum(rhs),rhsMax =   5.38980252278692E+01  3.06956115156609E-01
 cg2d: Sum(rhs),rhsMax =   5.50709853067610E+01  3.03949939163594E-01
 cg2d: Sum(rhs),rhsMax =   5.62379021512777E+01  3.00903775407613E-01
 cg2d: Sum(rhs),rhsMax =   5.73805392723710E+01  2.98077321247847E-01
 cg2d: Sum(rhs),rhsMax =   5.84955003886234E+01  2.95628619490062E-01
 cg2d: Sum(rhs),rhsMax =   5.95680864079809E+01  2.93620399223921E-01
 cg2d: Sum(rhs),rhsMax =   6.06010620066136E+01  2.92045587117724E-01
 cg2d: Sum(rhs),rhsMax =   6.15872291547244E+01  2.90849505883660E-01
(PID.TID 0000.0001)      cg2d_init_res =   8.04857512560303E-01
(PID.TID 0000.0001)      cg2d_iters(min,last) =      -1      34
(PID.TID 0000.0001)      cg2d_last_res =   2.45897120733191E-05
(PID.TID 0000.0001) // =======================================================
(PID.TID 0000.0001) // Begin MONITOR dynamic field statistics
(PID.TID 0000.0001) // =======================================================
(PID.TID 0000.0001) %MON time_tsnumber                =                    16
(PID.TID 0000.0001) %MON time_secondsf                =   1.4400000000000E+04
(PID.TID 0000.0001) %MON dynstat_eta_max              =   1.1831295346171E+00
(PID.TID 0000.0001) %MON dynstat_eta_min              =  -4.2588967878986E+00
(PID.TID 0000.0001) %MON dynstat_eta_mean             =  -1.9482007547228E-03
(PID.TID 0000.0001) %MON dynstat_eta_sd               =   7.2635618882081E-01
(PID.TID 0000.0001) %MON dynstat_eta_del2             =   1.0803663903012E-04
(PID.TID 0000.0001) %MON dynstat_uvel_max             =   8.9753635083155E-01
(PID.TID 0000.0001) %MON dynstat_uvel_min             =  -1.2623142489005E+00
(PID.TID 0000.0001) %MON dynstat_uvel_mean            =   1.9622301051610E-03
(PID.TID 0000.0001) %MON dynstat_uvel_sd              =   2.1974038101425E-02
(PID.TID 0000.0001) %MON dynstat_uvel_del2            =   1.5537010513546E-05
(PID.TID 0000.0001) %MON dynstat_vvel_max             =   1.0920505868693E+00
(PID.TID 0000.0001) %MON dynstat_vvel_min             =  -1.1105687302373E+00
(PID.TID 0000.0001) %MON dynstat_vvel_mean            =   1.1990009983017E-03
(PID.TID 0000.0001) %MON dynstat_vvel_sd              =   2.3766438584948E-02
(PID.TID 0000.0001) %MON dynstat_vvel_del2            =   1.6837295321914E-05
(PID.TID 0000.0001) %MON dynstat_wvel_max             =   2.3586743783298E-03
(PID.TID 0000.0001) %MON dynstat_wvel_min             =  -2.6490381253840E-03
(PID.TID 0000.0001) %MON dynstat_wvel_mean            =  -1.1666104233113E-08
(PID.TID 0000.0001) %MON dynstat_wvel_sd              =   3.2138707655721E-05
(PID.TID 0000.0001) %MON dynstat_wvel_del2            =   4.0343534031121E-08
(PID.TID 0000.0001) %MON dynstat_theta_max            =   3.2660178128179E+01
(PID.TID 0000.0001) %MON dynstat_theta_min            =  -2.0421809357220E+00
(PID.TID 0000.0001) %MON dynstat_theta_mean           =   3.5906042884947E+00
(PID.TID 0000.0001) %MON dynstat_theta_sd             =   4.4366280099243E+00
(PID.TID 0000.0001) %MON dynstat_theta_del2           =   1.0902490673581E-04
(PID.TID 0000.0001) %MON dynstat_salt_max             =   4.0711523209388E+01
(PID.TID 0000.0001) %MON dynstat_salt_min             =   1.8872851558239E+01
(PID.TID 0000.0001) %MON dynstat_salt_mean            =   3.4725724944004E+01
(PID.TID 0000.0001) %MON dynstat_salt_sd              =   3.7757024022212E-01
(PID.TID 0000.0001) %MON dynstat_salt_del2            =   2.6745454300893E-05
(PID.TID 0000.0001) %MON dynstat_sst_max              =   3.2660178128179E+01
(PID.TID 0000.0001) %MON dynstat_sst_min              =  -1.9437052476415E+00
(PID.TID 0000.0001) %MON dynstat_sst_mean             =   1.8504245718146E+01
(PID.TID 0000.0001) %MON dynstat_sst_sd               =   1.0096916567404E+01
(PID.TID 0000.0001) %MON dynstat_sst_del2             =   8.7619882057949E-04
(PID.TID 0000.0001) %MON dynstat_sss_max              =   3.9618061342576E+01
(PID.TID 0000.0001) %MON dynstat_sss_min              =   1.8872851558239E+01
(PID.TID 0000.0001) %MON dynstat_sss_mean             =   3.4697990381294E+01
(PID.TID 0000.0001) %MON dynstat_sss_sd               =   1.1419982289751E+00
(PID.TID 0000.0001) %MON dynstat_sss_del2             =   3.7518418175971E-04
(PID.TID 0000.0001) %MON forcing_qnet_max             =   1.0091056518555E+03
(PID.TID 0000.0001) %MON forcing_qnet_min             =  -1.0768705444613E+03
(PID.TID 0000.0001) %MON forcing_qnet_mean            =  -2.4859806220506E+01
(PID.TID 0000.0001) %MON forcing_qnet_sd              =   2.2624625592354E+02
(PID.TID 0000.0001) %MON forcing_qnet_del2            =   4.3140399024076E-01
(PID.TID 0000.0001) %MON forcing_qsw_max              =   0.0000000000000E+00
(PID.TID 0000.0001) %MON forcing_qsw_min              =  -1.1027053169340E+02
(PID.TID 0000.0001) %MON forcing_qsw_mean             =  -2.1739995050963E+01
(PID.TID 0000.0001) %MON forcing_qsw_sd               =   3.0373596616103E+01
(PID.TID 0000.0001) %MON forcing_qsw_del2             =   2.2149498962218E-02
(PID.TID 0000.0001) %MON forcing_empmr_max            =   3.5525173880160E-03
(PID.TID 0000.0001) %MON forcing_empmr_min            =  -3.3997939899564E-03
(PID.TID 0000.0001) %MON forcing_empmr_mean           =   3.5666988202634E-05
(PID.TID 0000.0001) %MON forcing_empmr_sd             =   3.7372573743436E-04
(PID.TID 0000.0001) %MON forcing_empmr_del2           =   8.1328088429238E-07
(PID.TID 0000.0001) %MON forcing_fu_max               =   1.3111363053322E+00
(PID.TID 0000.0001) %MON forcing_fu_min               =  -1.2502372860908E+00
(PID.TID 0000.0001) %MON forcing_fu_mean              =   1.0263567362930E-02
(PID.TID 0000.0001) %MON forcing_fu_sd                =   1.2416018879594E-01
(PID.TID 0000.0001) %MON forcing_fu_del2              =   1.7828032545103E-04
(PID.TID 0000.0001) %MON forcing_fv_max               =   7.6695832610130E-01
(PID.TID 0000.0001) %MON forcing_fv_min               =  -7.9710170626640E-01
(PID.TID 0000.0001) %MON forcing_fv_mean              =  -5.4720089450956E-03
(PID.TID 0000.0001) %MON forcing_fv_sd                =   1.1688506502285E-01
(PID.TID 0000.0001) %MON forcing_fv_del2              =   1.4925903152466E-04
(PID.TID 0000.0001) %MON trAdv_CFL_u_max              =   2.6349629775886E-02
(PID.TID 0000.0001) %MON trAdv_CFL_v_max              =   2.2309597276068E-02
(PID.TID 0000.0001) %MON trAdv_CFL_w_max              =   7.0880472499349E-02
(PID.TID 0000.0001) %MON advcfl_uvel_max              =   2.4701072487887E-02
(PID.TID 0000.0001) %MON advcfl_vvel_max              =   2.4337469378878E-02
(PID.TID 0000.0001) %MON advcfl_wvel_max              =   7.1441195293350E-02
(PID.TID 0000.0001) %MON advcfl_W_hf_max              =   7.1726881010124E-02
(PID.TID 0000.0001) %MON pe_b_mean                    =   6.9400229743655E-04
(PID.TID 0000.0001) %MON ke_max                       =   7.3716322694405E-01
(PID.TID 0000.0001) %MON ke_mean                      =   5.0774731154607E-04
(PID.TID 0000.0001) %MON ke_vol                       =   1.3349971906249E+18
(PID.TID 0000.0001) %MON vort_r_min                   =  -5.4066681479866E-05
(PID.TID 0000.0001) %MON vort_r_max                   =   4.1862718014855E-05
(PID.TID 0000.0001) %MON vort_a_mean                  =  -1.9727864647440E-05
(PID.TID 0000.0001) %MON vort_a_sd                    =   7.4543383306715E-05
(PID.TID 0000.0001) %MON vort_p_mean                  =  -2.1760540367815E-05
(PID.TID 0000.0001) %MON vort_p_sd                    =   9.7242466292935E-05
(PID.TID 0000.0001) %MON surfExpan_theta_mean         =  -2.6252482676795E-06
(PID.TID 0000.0001) %MON surfExpan_salt_mean          =  -3.6436685055765E-07
(PID.TID 0000.0001) // =======================================================
(PID.TID 0000.0001) // End MONITOR dynamic field statistics
(PID.TID 0000.0001) // =======================================================
 cg2d: Sum(rhs),rhsMax =   6.25377272516399E+01  2.89949836557779E-01
 cg2d: Sum(rhs),rhsMax =   6.34503675844234E+01  2.89256427866713E-01
 cg2d: Sum(rhs),rhsMax =   6.43249830409807E+01  2.88691387014221E-01
 cg2d: Sum(rhs),rhsMax =   6.51558384494250E+01  2.88215318006905E-01
 cg2d: Sum(rhs),rhsMax =   6.59462395544503E+01  2.87838036806258E-01
 cg2d: Sum(rhs),rhsMax =   6.67003952021905E+01  2.87610795739353E-01
 cg2d: Sum(rhs),rhsMax =   6.74176916990593E+01  2.87610332238733E-01
 cg2d: Sum(rhs),rhsMax =   6.80988969890413E+01  2.87910319322519E-01
(PID.TID 0000.0001)      cg2d_init_res =   6.17561556398916E-01
(PID.TID 0000.0001)      cg2d_iters(min,last) =      -1      34
(PID.TID 0000.0001)      cg2d_last_res =   2.46885537412047E-05
(PID.TID 0000.0001) // =======================================================
(PID.TID 0000.0001) // Begin MONITOR dynamic field statistics
(PID.TID 0000.0001) // =======================================================
(PID.TID 0000.0001) %MON time_tsnumber                =                    24
(PID.TID 0000.0001) %MON time_secondsf                =   2.1600000000000E+04
(PID.TID 0000.0001) %MON dynstat_eta_max              =   1.1247061877982E+00
(PID.TID 0000.0001) %MON dynstat_eta_min              =  -3.9996669101862E+00
(PID.TID 0000.0001) %MON dynstat_eta_mean             =  -2.1541856052094E-03
(PID.TID 0000.0001) %MON dynstat_eta_sd               =   7.2117916591027E-01
(PID.TID 0000.0001) %MON dynstat_eta_del2             =   9.8921540962000E-05
(PID.TID 0000.0001) %MON dynstat_uvel_max             =   9.1824118527693E-01
(PID.TID 0000.0001) %MON dynstat_uvel_min             =  -1.3577129409827E+00
(PID.TID 0000.0001) %MON dynstat_uvel_mean            =   1.9012871186334E-03
(PID.TID 0000.0001) %MON dynstat_uvel_sd              =   2.2046896199431E-02
(PID.TID 0000.0001) %MON dynstat_uvel_del2            =   1.4473325932245E-05
(PID.TID 0000.0001) %MON dynstat_vvel_max             =   1.1528008873695E+00
(PID.TID 0000.0001) %MON dynstat_vvel_min             =  -1.0588374687337E+00
(PID.TID 0000.0001) %MON dynstat_vvel_mean            =   1.2849377600416E-03
(PID.TID 0000.0001) %MON dynstat_vvel_sd              =   2.3649813273340E-02
(PID.TID 0000.0001) %MON dynstat_vvel_del2            =   1.5599138404320E-05
(PID.TID 0000.0001) %MON dynstat_wvel_max             =   2.4614589096839E-03
(PID.TID 0000.0001) %MON dynstat_wvel_min             =  -3.6376131143692E-03
(PID.TID 0000.0001) %MON dynstat_wvel_mean            =   4.3321889967578E-08
(PID.TID 0000.0001) %MON dynstat_wvel_sd              =   3.3732426209220E-05
(PID.TID 0000.0001) %MON dynstat_wvel_del2            =   4.5477840038563E-08
(PID.TID 0000.0001) %MON dynstat_theta_max            =   3.2657132867914E+01
(PID.TID 0000.0001) %MON dynstat_theta_min            =  -2.0422115475575E+00
(PID.TID 0000.0001) %MON dynstat_theta_mean           =   3.5906098886473E+00
(PID.TID 0000.0001) %MON dynstat_theta_sd             =   4.4366365318732E+00
(PID.TID 0000.0001) %MON dynstat_theta_del2           =   1.0858946477030E-04
(PID.TID 0000.0001) %MON dynstat_salt_max             =   4.0711521902644E+01
(PID.TID 0000.0001) %MON dynstat_salt_min             =   1.8856254089952E+01
(PID.TID 0000.0001) %MON dynstat_salt_mean            =   3.4725694089329E+01
(PID.TID 0000.0001) %MON dynstat_salt_sd              =   3.7743892652060E-01
(PID.TID 0000.0001) %MON dynstat_salt_del2            =   2.6597283474960E-05
(PID.TID 0000.0001) %MON dynstat_sst_max              =   3.2657132867914E+01
(PID.TID 0000.0001) %MON dynstat_sst_min              =  -1.9417341845747E+00
(PID.TID 0000.0001) %MON dynstat_sst_mean             =   1.8502735335366E+01
(PID.TID 0000.0001) %MON dynstat_sst_sd               =   1.0100914998785E+01
(PID.TID 0000.0001) %MON dynstat_sst_del2             =   8.7337146413183E-04
(PID.TID 0000.0001) %MON dynstat_sss_max              =   3.9575143368005E+01
(PID.TID 0000.0001) %MON dynstat_sss_min              =   1.8856254089952E+01
(PID.TID 0000.0001) %MON dynstat_sss_mean             =   3.4690328837815E+01
(PID.TID 0000.0001) %MON dynstat_sss_sd               =   1.1323595984784E+00
(PID.TID 0000.0001) %MON dynstat_sss_del2             =   3.7461791488976E-04
(PID.TID 0000.0001) %MON forcing_qnet_max             =   3.2024299316406E+03
(PID.TID 0000.0001) %MON forcing_qnet_min             =  -1.0311357094237E+03
(PID.TID 0000.0001) %MON forcing_qnet_mean            =   6.8114163204442E-01
(PID.TID 0000.0001) %MON forcing_qnet_sd              =   2.0870127219773E+02
(PID.TID 0000.0001) %MON forcing_qnet_del2            =   5.1282234565211E-01
(PID.TID 0000.0001) %MON forcing_qsw_max              =   0.0000000000000E+00
(PID.TID 0000.0001) %MON forcing_qsw_min              =  -1.1188828071836E+02
(PID.TID 0000.0001) %MON forcing_qsw_mean             =  -1.8961284191239E+01
(PID.TID 0000.0001) %MON forcing_qsw_sd               =   2.7643432732576E+01
(PID.TID 0000.0001) %MON forcing_qsw_del2             =   2.2720029939854E-02
(PID.TID 0000.0001) %MON forcing_empmr_max            =   3.6189779639244E-03
(PID.TID 0000.0001) %MON forcing_empmr_min            =  -2.9354789294302E-03
(PID.TID 0000.0001) %MON forcing_empmr_mean           =   2.4637345796671E-05
(PID.TID 0000.0001) %MON forcing_empmr_sd             =   2.9070586666325E-04
(PID.TID 0000.0001) %MON forcing_empmr_del2           =   6.9290318769305E-07
(PID.TID 0000.0001) %MON forcing_fu_max               =   1.1639512181282E+00
(PID.TID 0000.0001) %MON forcing_fu_min               =  -1.0837950110435E+00
(PID.TID 0000.0001) %MON forcing_fu_mean              =   1.0356192668509E-02
(PID.TID 0000.0001) %MON forcing_fu_sd                =   1.1958733942357E-01
(PID.TID 0000.0001) %MON forcing_fu_del2              =   1.7057240383265E-04
(PID.TID 0000.0001) %MON forcing_fv_max               =   7.8679460287094E-01
(PID.TID 0000.0001) %MON forcing_fv_min               =  -7.9762138904101E-01
(PID.TID 0000.0001) %MON forcing_fv_mean              =  -6.1656150509707E-03
(PID.TID 0000.0001) %MON forcing_fv_sd                =   1.1362524437334E-01
(PID.TID 0000.0001) %MON forcing_fv_del2              =   1.4444281778201E-04
(PID.TID 0000.0001) %MON trAdv_CFL_u_max              =   2.2422210824291E-02
(PID.TID 0000.0001) %MON trAdv_CFL_v_max              =   2.1826367221850E-02
(PID.TID 0000.0001) %MON trAdv_CFL_w_max              =   6.7989319940539E-02
(PID.TID 0000.0001) %MON advcfl_uvel_max              =   2.3609548250845E-02
(PID.TID 0000.0001) %MON advcfl_vvel_max              =   2.3203808797147E-02
(PID.TID 0000.0001) %MON advcfl_wvel_max              =   6.9697588758098E-02
(PID.TID 0000.0001) %MON advcfl_W_hf_max              =   7.3403820767820E-02
(PID.TID 0000.0001) %MON pe_b_mean                    =   6.8414592625482E-04
(PID.TID 0000.0001) %MON ke_max                       =   8.4359999486369E-01
(PID.TID 0000.0001) %MON ke_mean                      =   5.0661609467539E-04
(PID.TID 0000.0001) %MON ke_vol                       =   1.3349971134257E+18
(PID.TID 0000.0001) %MON vort_r_min                   =  -5.1613338573437E-05
(PID.TID 0000.0001) %MON vort_r_max                   =   4.1735474791203E-05
(PID.TID 0000.0001) %MON vort_a_mean                  =  -1.9727864647440E-05
(PID.TID 0000.0001) %MON vort_a_sd                    =   7.4543370011980E-05
(PID.TID 0000.0001) %MON vort_p_mean                  =  -2.1760541764040E-05
(PID.TID 0000.0001) %MON vort_p_sd                    =   9.7243333738193E-05
(PID.TID 0000.0001) %MON surfExpan_theta_mean         =  -1.9066044139440E-06
(PID.TID 0000.0001) %MON surfExpan_salt_mean          =  -5.8894475225072E-07
(PID.TID 0000.0001) // =======================================================
(PID.TID 0000.0001) // End MONITOR dynamic field statistics
(PID.TID 0000.0001) // =======================================================
 cg2d: Sum(rhs),rhsMax =   6.87443782827123E+01  2.88560023711113E-01
 cg2d: Sum(rhs),rhsMax =   6.93585393215623E+01  2.89565441611954E-01
 cg2d: Sum(rhs),rhsMax =   6.99435985242669E+01  2.90884281033945E-01
 cg2d: Sum(rhs),rhsMax =   7.04951533821357E+01  2.92429544604787E-01
 cg2d: Sum(rhs),rhsMax =   7.10157417970130E+01  2.94084028262582E-01
 cg2d: Sum(rhs),rhsMax =   7.15069089714709E+01  2.95714806828776E-01
 cg2d: Sum(rhs),rhsMax =   7.19647483980359E+01  2.97195588699392E-01
 cg2d: Sum(rhs),rhsMax =   7.23892350694570E+01  2.98421536247262E-01
(PID.TID 0000.0001)      cg2d_init_res =   5.56563358681931E-01
(PID.TID 0000.0001)      cg2d_iters(min,last) =      -1      34
(PID.TID 0000.0001)      cg2d_last_res =   2.78385625846947E-05
(PID.TID 0000.0001) // =======================================================
(PID.TID 0000.0001) // Begin MONITOR dynamic field statistics
(PID.TID 0000.0001) // =======================================================
(PID.TID 0000.0001) %MON time_tsnumber                =                    32
(PID.TID 0000.0001) %MON time_secondsf                =   2.8800000000000E+04
(PID.TID 0000.0001) %MON dynstat_eta_max              =   1.0927677330659E+00
(PID.TID 0000.0001) %MON dynstat_eta_min              =  -3.9497951903779E+00
(PID.TID 0000.0001) %MON dynstat_eta_mean             =  -2.2899027011235E-03
(PID.TID 0000.0001) %MON dynstat_eta_sd               =   7.1937207615928E-01
(PID.TID 0000.0001) %MON dynstat_eta_del2             =   9.3983536062822E-05
(PID.TID 0000.0001) %MON dynstat_uvel_max             =   7.4671300567603E-01
(PID.TID 0000.0001) %MON dynstat_uvel_min             =  -1.4279291976534E+00
(PID.TID 0000.0001) %MON dynstat_uvel_mean            =   1.8593312347016E-03
(PID.TID 0000.0001) %MON dynstat_uvel_sd              =   2.1989412716169E-02
(PID.TID 0000.0001) %MON dynstat_uvel_del2            =   1.3850510723990E-05
(PID.TID 0000.0001) %MON dynstat_vvel_max             =   1.1761570651245E+00
(PID.TID 0000.0001) %MON dynstat_vvel_min             =  -9.3656175290910E-01
(PID.TID 0000.0001) %MON dynstat_vvel_mean            =   1.3807900667690E-03
(PID.TID 0000.0001) %MON dynstat_vvel_sd              =   2.3481552194950E-02
(PID.TID 0000.0001) %MON dynstat_vvel_del2            =   1.4874728183157E-05
(PID.TID 0000.0001) %MON dynstat_wvel_max             =   2.8155900287740E-03
(PID.TID 0000.0001) %MON dynstat_wvel_min             =  -3.9589756701040E-03
(PID.TID 0000.0001) %MON dynstat_wvel_mean            =   7.6721581232138E-08
(PID.TID 0000.0001) %MON dynstat_wvel_sd              =   3.5330582937696E-05
(PID.TID 0000.0001) %MON dynstat_wvel_del2            =   5.0093543821870E-08
(PID.TID 0000.0001) %MON dynstat_theta_max            =   3.2660603528181E+01
(PID.TID 0000.0001) %MON dynstat_theta_min            =  -2.0422670961440E+00
(PID.TID 0000.0001) %MON dynstat_theta_mean           =   3.5906019241578E+00
(PID.TID 0000.0001) %MON dynstat_theta_sd             =   4.4365987125704E+00
(PID.TID 0000.0001) %MON dynstat_theta_del2           =   1.0806328017045E-04
(PID.TID 0000.0001) %MON dynstat_salt_max             =   4.0711522007076E+01
(PID.TID 0000.0001) %MON dynstat_salt_min             =   1.8864136830423E+01
(PID.TID 0000.0001) %MON dynstat_salt_mean            =   3.4725671852290E+01
(PID.TID 0000.0001) %MON dynstat_salt_sd              =   3.7734109721016E-01
(PID.TID 0000.0001) %MON dynstat_salt_del2            =   2.6435299121680E-05
(PID.TID 0000.0001) %MON dynstat_sst_max              =   3.2660603528181E+01
(PID.TID 0000.0001) %MON dynstat_sst_min              =  -1.9404388352935E+00
(PID.TID 0000.0001) %MON dynstat_sst_mean             =   1.8498263216867E+01
(PID.TID 0000.0001) %MON dynstat_sst_sd               =   1.0103735360191E+01
(PID.TID 0000.0001) %MON dynstat_sst_del2             =   8.7132392842693E-04
(PID.TID 0000.0001) %MON dynstat_sss_max              =   3.9537064875267E+01
(PID.TID 0000.0001) %MON dynstat_sss_min              =   1.8864136830423E+01
(PID.TID 0000.0001) %MON dynstat_sss_mean             =   3.4686110223606E+01
(PID.TID 0000.0001) %MON dynstat_sss_sd               =   1.1266157195359E+00
(PID.TID 0000.0001) %MON dynstat_sss_del2             =   3.7353146743157E-04
(PID.TID 0000.0001) %MON forcing_qnet_max             =   1.8344753417969E+03
(PID.TID 0000.0001) %MON forcing_qnet_min             =  -1.1511315242014E+03
(PID.TID 0000.0001) %MON forcing_qnet_mean            =   2.9563531783314E+01
(PID.TID 0000.0001) %MON forcing_qnet_sd              =   1.9407899799667E+02
(PID.TID 0000.0001) %MON forcing_qnet_del2            =   5.0742528615941E-01
(PID.TID 0000.0001) %MON forcing_qsw_max              =   0.0000000000000E+00
(PID.TID 0000.0001) %MON forcing_qsw_min              =  -1.1018171692966E+02
(PID.TID 0000.0001) %MON forcing_qsw_mean             =  -1.6543529987495E+01
(PID.TID 0000.0001) %MON forcing_qsw_sd               =   2.5714674049256E+01
(PID.TID 0000.0001) %MON forcing_qsw_del2             =   2.1546088060041E-02
(PID.TID 0000.0001) %MON forcing_empmr_max            =   3.4837326966226E-03
(PID.TID 0000.0001) %MON forcing_empmr_min            =  -2.9081217944622E-03
(PID.TID 0000.0001) %MON forcing_empmr_mean           =   1.5352530380489E-05
(PID.TID 0000.0001) %MON forcing_empmr_sd             =   2.3515084230853E-04
(PID.TID 0000.0001) %MON forcing_empmr_del2           =   6.4870468700415E-07
(PID.TID 0000.0001) %MON forcing_fu_max               =   1.0939301252365E+00
(PID.TID 0000.0001) %MON forcing_fu_min               =  -9.8772156238556E-01
(PID.TID 0000.0001) %MON forcing_fu_mean              =   1.0809989724715E-02
(PID.TID 0000.0001) %MON forcing_fu_sd                =   1.1675041380397E-01
(PID.TID 0000.0001) %MON forcing_fu_del2              =   1.6439463600282E-04
(PID.TID 0000.0001) %MON forcing_fv_max               =   7.4532830715179E-01
(PID.TID 0000.0001) %MON forcing_fv_min               =  -8.1199412442942E-01
(PID.TID 0000.0001) %MON forcing_fv_mean              =  -7.4409067724492E-03
(PID.TID 0000.0001) %MON forcing_fv_sd                =   1.1227746944309E-01
(PID.TID 0000.0001) %MON forcing_fv_del2              =   1.4212386520104E-04
(PID.TID 0000.0001) %MON trAdv_CFL_u_max              =   2.2911436721130E-02
(PID.TID 0000.0001) %MON trAdv_CFL_v_max              =   2.2210871108567E-02
(PID.TID 0000.0001) %MON trAdv_CFL_w_max              =   5.7161472454649E-02
(PID.TID 0000.0001) %MON advcfl_uvel_max              =   2.3624967857204E-02
(PID.TID 0000.0001) %MON advcfl_vvel_max              =   2.0877711522831E-02
(PID.TID 0000.0001) %MON advcfl_wvel_max              =   5.8128462959634E-02
(PID.TID 0000.0001) %MON advcfl_W_hf_max              =   6.1101808865964E-02
(PID.TID 0000.0001) %MON pe_b_mean                    =   6.8072248408654E-04
(PID.TID 0000.0001) %MON ke_max                       =   9.3373839661637E-01
(PID.TID 0000.0001) %MON ke_mean                      =   5.0161831492067E-04
(PID.TID 0000.0001) %MON ke_vol                       =   1.3349970619297E+18
(PID.TID 0000.0001) %MON vort_r_min                   =  -4.4894242011628E-05
(PID.TID 0000.0001) %MON vort_r_max                   =   4.1250512563648E-05
(PID.TID 0000.0001) %MON vort_a_mean                  =  -1.9727864647440E-05
(PID.TID 0000.0001) %MON vort_a_sd                    =   7.4543356658665E-05
(PID.TID 0000.0001) %MON vort_p_mean                  =  -2.1760543027373E-05
(PID.TID 0000.0001) %MON vort_p_sd                    =   9.7243780007697E-05
(PID.TID 0000.0001) %MON surfExpan_theta_mean         =  -1.4503996801687E-06
(PID.TID 0000.0001) %MON surfExpan_salt_mean          =  -4.2746511303884E-07
(PID.TID 0000.0001) // =======================================================
(PID.TID 0000.0001) // End MONITOR dynamic field statistics
(PID.TID 0000.0001) // =======================================================
 cg2d: Sum(rhs),rhsMax =   7.27852119509992E+01  2.99321790964265E-01
 cg2d: Sum(rhs),rhsMax =   7.31514589960882E+01  2.99864144202784E-01
 cg2d: Sum(rhs),rhsMax =   7.34962336996691E+01  3.00057196756838E-01
 cg2d: Sum(rhs),rhsMax =   7.38108168514184E+01  2.99941190843250E-01
 cg2d: Sum(rhs),rhsMax =   7.41063691356578E+01  2.99583564903964E-01
 cg2d: Sum(rhs),rhsMax =   7.43818479336730E+01  2.99206687689318E-01
 cg2d: Sum(rhs),rhsMax =   7.46359652580319E+01  2.98724293345587E-01
 cg2d: Sum(rhs),rhsMax =   7.48716039863874E+01  2.98215961771712E-01
(PID.TID 0000.0001)      cg2d_init_res =   4.79131089667898E-01
(PID.TID 0000.0001)      cg2d_iters(min,last) =      -1      33
(PID.TID 0000.0001)      cg2d_last_res =   2.41727837889819E-05
(PID.TID 0000.0001) // =======================================================
(PID.TID 0000.0001) // Begin MONITOR dynamic field statistics
(PID.TID 0000.0001) // =======================================================
(PID.TID 0000.0001) %MON time_tsnumber                =                    40
(PID.TID 0000.0001) %MON time_secondsf                =   3.6000000000000E+04
(PID.TID 0000.0001) %MON dynstat_eta_max              =   1.1470020840635E+00
(PID.TID 0000.0001) %MON dynstat_eta_min              =  -3.7840616961398E+00
(PID.TID 0000.0001) %MON dynstat_eta_mean             =  -2.3684279581264E-03
(PID.TID 0000.0001) %MON dynstat_eta_sd               =   7.1775273827110E-01
(PID.TID 0000.0001) %MON dynstat_eta_del2             =   8.8510184349424E-05
(PID.TID 0000.0001) %MON dynstat_uvel_max             =   6.5073397182245E-01
(PID.TID 0000.0001) %MON dynstat_uvel_min             =  -1.3855362803115E+00
(PID.TID 0000.0001) %MON dynstat_uvel_mean            =   1.7925733631657E-03
(PID.TID 0000.0001) %MON dynstat_uvel_sd              =   2.1852276873424E-02
(PID.TID 0000.0001) %MON dynstat_uvel_del2            =   1.3498291074677E-05
(PID.TID 0000.0001) %MON dynstat_vvel_max             =   1.1813807330910E+00
(PID.TID 0000.0001) %MON dynstat_vvel_min             =  -9.3720600673219E-01
(PID.TID 0000.0001) %MON dynstat_vvel_mean            =   1.4630315768396E-03
(PID.TID 0000.0001) %MON dynstat_vvel_sd              =   2.3319725215182E-02
(PID.TID 0000.0001) %MON dynstat_vvel_del2            =   1.4388728839305E-05
(PID.TID 0000.0001) %MON dynstat_wvel_max             =   2.8672077808955E-03
(PID.TID 0000.0001) %MON dynstat_wvel_min             =  -4.0000962079257E-03
(PID.TID 0000.0001) %MON dynstat_wvel_mean            =   6.1982337843819E-08
(PID.TID 0000.0001) %MON dynstat_wvel_sd              =   3.5879860608765E-05
(PID.TID 0000.0001) %MON dynstat_wvel_del2            =   5.2791567824268E-08
(PID.TID 0000.0001) %MON dynstat_theta_max            =   3.2665420367052E+01
(PID.TID 0000.0001) %MON dynstat_theta_min            =  -2.0423337045154E+00
(PID.TID 0000.0001) %MON dynstat_theta_mean           =   3.5905815905163E+00
(PID.TID 0000.0001) %MON dynstat_theta_sd             =   4.4365136680257E+00
(PID.TID 0000.0001) %MON dynstat_theta_del2           =   1.0747699328437E-04
(PID.TID 0000.0001) %MON dynstat_salt_max             =   4.0711522911678E+01
(PID.TID 0000.0001) %MON dynstat_salt_min             =   1.8868129956977E+01
(PID.TID 0000.0001) %MON dynstat_salt_mean            =   3.4725655520344E+01
(PID.TID 0000.0001) %MON dynstat_salt_sd              =   3.7726678265388E-01
(PID.TID 0000.0001) %MON dynstat_salt_del2            =   2.6265178679908E-05
(PID.TID 0000.0001) %MON dynstat_sst_max              =   3.2665420367052E+01
(PID.TID 0000.0001) %MON dynstat_sst_min              =  -1.9334686467249E+00
(PID.TID 0000.0001) %MON dynstat_sst_mean             =   1.8491685133255E+01
(PID.TID 0000.0001) %MON dynstat_sst_sd               =   1.0105118781082E+01
(PID.TID 0000.0001) %MON dynstat_sst_del2             =   8.6874546158192E-04
(PID.TID 0000.0001) %MON dynstat_sss_max              =   3.9503138628394E+01
(PID.TID 0000.0001) %MON dynstat_sss_min              =   1.8868129956977E+01
(PID.TID 0000.0001) %MON dynstat_sss_mean             =   3.4684075283937E+01
(PID.TID 0000.0001) %MON dynstat_sss_sd               =   1.1235201338545E+00
(PID.TID 0000.0001) %MON dynstat_sss_del2             =   3.7224578575474E-04
(PID.TID 0000.0001) %MON forcing_qnet_max             =   2.0724409179688E+03
(PID.TID 0000.0001) %MON forcing_qnet_min             =  -1.2078927001953E+03
(PID.TID 0000.0001) %MON forcing_qnet_mean            =   5.2564892789467E+01
(PID.TID 0000.0001) %MON forcing_qnet_sd              =   1.8687823721287E+02
(PID.TID 0000.0001) %MON forcing_qnet_del2            =   5.0751016736837E-01
(PID.TID 0000.0001) %MON forcing_qsw_max              =   0.0000000000000E+00
(PID.TID 0000.0001) %MON forcing_qsw_min              =  -1.0942356841700E+02
(PID.TID 0000.0001) %MON forcing_qsw_mean             =  -1.4318192992139E+01
(PID.TID 0000.0001) %MON forcing_qsw_sd               =   2.5952867350590E+01
(PID.TID 0000.0001) %MON forcing_qsw_del2             =   1.9469423400739E-02
(PID.TID 0000.0001) %MON forcing_empmr_max            =   3.5153538919985E-03
(PID.TID 0000.0001) %MON forcing_empmr_min            =  -2.9031033627689E-03
(PID.TID 0000.0001) %MON forcing_empmr_mean           =   8.5224130214572E-06
(PID.TID 0000.0001) %MON forcing_empmr_sd             =   2.0016100913307E-04
(PID.TID 0000.0001) %MON forcing_empmr_del2           =   6.9508621685381E-07
(PID.TID 0000.0001) %MON forcing_fu_max               =   1.0692466497421E+00
(PID.TID 0000.0001) %MON forcing_fu_min               =  -9.2534703016281E-01
(PID.TID 0000.0001) %MON forcing_fu_mean              =   1.1165424983345E-02
(PID.TID 0000.0001) %MON forcing_fu_sd                =   1.1480605420056E-01
(PID.TID 0000.0001) %MON forcing_fu_del2              =   1.5898894800495E-04
(PID.TID 0000.0001) %MON forcing_fv_max               =   7.7347660064697E-01
(PID.TID 0000.0001) %MON forcing_fv_min               =  -8.1567919397788E-01
(PID.TID 0000.0001) %MON forcing_fv_mean              =  -8.6645830225335E-03
(PID.TID 0000.0001) %MON forcing_fv_sd                =   1.1168358290010E-01
(PID.TID 0000.0001) %MON forcing_fv_del2              =   1.4116402239412E-04
(PID.TID 0000.0001) %MON trAdv_CFL_u_max              =   2.2190863968970E-02
(PID.TID 0000.0001) %MON trAdv_CFL_v_max              =   2.2278016561846E-02
(PID.TID 0000.0001) %MON trAdv_CFL_w_max              =   6.6799617857388E-02
(PID.TID 0000.0001) %MON advcfl_uvel_max              =   2.2923580623704E-02
(PID.TID 0000.0001) %MON advcfl_vvel_max              =   2.0970435731298E-02
(PID.TID 0000.0001) %MON advcfl_wvel_max              =   6.3936099610715E-02
(PID.TID 0000.0001) %MON advcfl_W_hf_max              =   6.4808247057037E-02
(PID.TID 0000.0001) %MON pe_b_mean                    =   6.7766178904098E-04
(PID.TID 0000.0001) %MON ke_max                       =   8.7187681430076E-01
(PID.TID 0000.0001) %MON ke_mean                      =   4.9506240978963E-04
(PID.TID 0000.0001) %MON ke_vol                       =   1.3349970316779E+18
(PID.TID 0000.0001) %MON vort_r_min                   =  -3.9230473044085E-05
(PID.TID 0000.0001) %MON vort_r_max                   =   3.9819208842353E-05
(PID.TID 0000.0001) %MON vort_a_mean                  =  -1.9727864647440E-05
(PID.TID 0000.0001) %MON vort_a_sd                    =   7.4543351747257E-05
(PID.TID 0000.0001) %MON vort_p_mean                  =  -2.1760543870958E-05
(PID.TID 0000.0001) %MON vort_p_sd                    =   9.7244039453913E-05
(PID.TID 0000.0001) %MON surfExpan_theta_mean         =  -1.6407166637955E-06
(PID.TID 0000.0001) %MON surfExpan_salt_mean          =  -3.1715973359965E-07
(PID.TID 0000.0001) // =======================================================
(PID.TID 0000.0001) // End MONITOR dynamic field statistics
(PID.TID 0000.0001) // =======================================================
 cg2d: Sum(rhs),rhsMax =   7.50914265277960E+01  2.97751127456885E-01
 cg2d: Sum(rhs),rhsMax =   7.52919271732269E+01  2.97381978457718E-01
 cg2d: Sum(rhs),rhsMax =   7.54664555726504E+01  2.97142218173735E-01
 cg2d: Sum(rhs),rhsMax =   7.56332926011117E+01  2.97045410912440E-01
 cg2d: Sum(rhs),rhsMax =   7.57797912290178E+01  2.97086305506134E-01
 cg2d: Sum(rhs),rhsMax =   7.59133365683848E+01  2.97246125882934E-01
 cg2d: Sum(rhs),rhsMax =   7.60302735986970E+01  2.97493972111513E-01
 cg2d: Sum(rhs),rhsMax =   7.61301892313893E+01  2.97793913705804E-01
(PID.TID 0000.0001)      cg2d_init_res =   4.18451081656353E-01
(PID.TID 0000.0001)      cg2d_iters(min,last) =      -1      31
(PID.TID 0000.0001)      cg2d_last_res =   2.40901784454857E-05
(PID.TID 0000.0001) // =======================================================
(PID.TID 0000.0001) // Begin MONITOR dynamic field statistics
(PID.TID 0000.0001) // =======================================================
(PID.TID 0000.0001) %MON time_tsnumber                =                    48
(PID.TID 0000.0001) %MON time_secondsf                =   4.3200000000000E+04
(PID.TID 0000.0001) %MON dynstat_eta_max              =   1.1207743510524E+00
(PID.TID 0000.0001) %MON dynstat_eta_min              =  -3.4913357978502E+00
(PID.TID 0000.0001) %MON dynstat_eta_mean             =  -2.4082410290805E-03
(PID.TID 0000.0001) %MON dynstat_eta_sd               =   7.1373531072262E-01
(PID.TID 0000.0001) %MON dynstat_eta_del2             =   8.8697371387952E-05
(PID.TID 0000.0001) %MON dynstat_uvel_max             =   7.4062213861909E-01
(PID.TID 0000.0001) %MON dynstat_uvel_min             =  -1.3498116642134E+00
(PID.TID 0000.0001) %MON dynstat_uvel_mean            =   1.7469303903422E-03
(PID.TID 0000.0001) %MON dynstat_uvel_sd              =   2.1763511660123E-02
(PID.TID 0000.0001) %MON dynstat_uvel_del2            =   1.3381318118397E-05
(PID.TID 0000.0001) %MON dynstat_vvel_max             =   1.2465651315999E+00
(PID.TID 0000.0001) %MON dynstat_vvel_min             =  -9.3679365443902E-01
(PID.TID 0000.0001) %MON dynstat_vvel_mean            =   1.5416189934681E-03
(PID.TID 0000.0001) %MON dynstat_vvel_sd              =   2.3175969638030E-02
(PID.TID 0000.0001) %MON dynstat_vvel_del2            =   1.4079485589312E-05
(PID.TID 0000.0001) %MON dynstat_wvel_max             =   3.3952709047065E-03
(PID.TID 0000.0001) %MON dynstat_wvel_min             =  -3.4328256144738E-03
(PID.TID 0000.0001) %MON dynstat_wvel_mean            =   5.6434031876027E-08
(PID.TID 0000.0001) %MON dynstat_wvel_sd              =   3.5414927655968E-05
(PID.TID 0000.0001) %MON dynstat_wvel_del2            =   5.3933170757800E-08
(PID.TID 0000.0001) %MON dynstat_theta_max            =   3.2666454159069E+01
(PID.TID 0000.0001) %MON dynstat_theta_min            =  -2.0423588476198E+00
(PID.TID 0000.0001) %MON dynstat_theta_mean           =   3.5905551392920E+00
(PID.TID 0000.0001) %MON dynstat_theta_sd             =   4.4364040467497E+00
(PID.TID 0000.0001) %MON dynstat_theta_del2           =   1.0687566446507E-04
(PID.TID 0000.0001) %MON dynstat_salt_max             =   4.0711524268710E+01
(PID.TID 0000.0001) %MON dynstat_salt_min             =   1.8869471456241E+01
(PID.TID 0000.0001) %MON dynstat_salt_mean            =   3.4725643532645E+01
(PID.TID 0000.0001) %MON dynstat_salt_sd              =   3.7721063343876E-01
(PID.TID 0000.0001) %MON dynstat_salt_del2            =   2.6095316396162E-05
(PID.TID 0000.0001) %MON dynstat_sst_max              =   3.2666454159069E+01
(PID.TID 0000.0001) %MON dynstat_sst_min              =  -1.9263769001737E+00
(PID.TID 0000.0001) %MON dynstat_sst_mean             =   1.8485052598920E+01
(PID.TID 0000.0001) %MON dynstat_sst_sd               =   1.0105711883392E+01
(PID.TID 0000.0001) %MON dynstat_sst_del2             =   8.6566841489775E-04
(PID.TID 0000.0001) %MON dynstat_sss_max              =   3.9472730445975E+01
(PID.TID 0000.0001) %MON dynstat_sss_min              =   1.8869471456241E+01
(PID.TID 0000.0001) %MON dynstat_sss_mean             =   3.4683548774641E+01
(PID.TID 0000.0001) %MON dynstat_sss_sd               =   1.1223471070196E+00
(PID.TID 0000.0001) %MON dynstat_sss_del2             =   3.7026509629471E-04
(PID.TID 0000.0001) %MON forcing_qnet_max             =   1.5817143554688E+03
(PID.TID 0000.0001) %MON forcing_qnet_min             =  -1.0429369971125E+03
(PID.TID 0000.0001) %MON forcing_qnet_mean            =   5.7071766870212E+01
(PID.TID 0000.0001) %MON forcing_qnet_sd              =   1.7677622085427E+02
(PID.TID 0000.0001) %MON forcing_qnet_del2            =   4.3885058760495E-01
(PID.TID 0000.0001) %MON forcing_qsw_max              =   0.0000000000000E+00
(PID.TID 0000.0001) %MON forcing_qsw_min              =  -1.1153892165934E+02
(PID.TID 0000.0001) %MON forcing_qsw_mean             =  -1.3512330831110E+01
(PID.TID 0000.0001) %MON forcing_qsw_sd               =   2.4741629866499E+01
(PID.TID 0000.0001) %MON forcing_qsw_del2             =   1.9578517826795E-02
(PID.TID 0000.0001) %MON forcing_empmr_max            =   3.3055285457522E-03
(PID.TID 0000.0001) %MON forcing_empmr_min            =  -2.8982206713408E-03
(PID.TID 0000.0001) %MON forcing_empmr_mean           =   3.6136771534198E-06
(PID.TID 0000.0001) %MON forcing_empmr_sd             =   1.7479908880945E-04
(PID.TID 0000.0001) %MON forcing_empmr_del2           =   6.3562967971194E-07
(PID.TID 0000.0001) %MON forcing_fu_max               =   1.0790709853172E+00
(PID.TID 0000.0001) %MON forcing_fu_min               =  -8.5544019937515E-01
(PID.TID 0000.0001) %MON forcing_fu_mean              =   1.0889522025338E-02
(PID.TID 0000.0001) %MON forcing_fu_sd                =   1.1304194869888E-01
(PID.TID 0000.0001) %MON forcing_fu_del2              =   1.5521522205115E-04
(PID.TID 0000.0001) %MON forcing_fv_max               =   7.9812178015709E-01
(PID.TID 0000.0001) %MON forcing_fv_min               =  -8.0593156814575E-01
(PID.TID 0000.0001) %MON forcing_fv_mean              =  -9.1650440107691E-03
(PID.TID 0000.0001) %MON forcing_fv_sd                =   1.1118018498027E-01
(PID.TID 0000.0001) %MON forcing_fv_del2              =   1.4278322590044E-04
(PID.TID 0000.0001) %MON trAdv_CFL_u_max              =   2.1626563805271E-02
(PID.TID 0000.0001) %MON trAdv_CFL_v_max              =   2.3430570455106E-02
(PID.TID 0000.0001) %MON trAdv_CFL_w_max              =   8.6064712775437E-02
(PID.TID 0000.0001) %MON advcfl_uvel_max              =   2.2332519870540E-02
(PID.TID 0000.0001) %MON advcfl_vvel_max              =   2.2127509993070E-02
(PID.TID 0000.0001) %MON advcfl_wvel_max              =   8.3337210648617E-02
(PID.TID 0000.0001) %MON advcfl_W_hf_max              =   8.4473526382472E-02
(PID.TID 0000.0001) %MON pe_b_mean                    =   6.7009730142469E-04
(PID.TID 0000.0001) %MON ke_max                       =   9.3592797017225E-01
(PID.TID 0000.0001) %MON ke_mean                      =   4.9000831790570E-04
(PID.TID 0000.0001) %MON ke_vol                       =   1.3349970158872E+18
(PID.TID 0000.0001) %MON vort_r_min                   =  -3.8850365925834E-05
(PID.TID 0000.0001) %MON vort_r_max                   =   3.7344896202845E-05
(PID.TID 0000.0001) %MON vort_a_mean                  =  -1.9727864647440E-05
(PID.TID 0000.0001) %MON vort_a_sd                    =   7.4543358730466E-05
(PID.TID 0000.0001) %MON vort_p_mean                  =  -2.1760544250771E-05
(PID.TID 0000.0001) %MON vort_p_sd                    =   9.7244253154753E-05
(PID.TID 0000.0001) %MON surfExpan_theta_mean         =  -2.2712037920137E-06
(PID.TID 0000.0001) %MON surfExpan_salt_mean          =  -2.2903553061214E-07
(PID.TID 0000.0001) // =======================================================
(PID.TID 0000.0001) // End MONITOR dynamic field statistics
(PID.TID 0000.0001) // =======================================================
 cg2d: Sum(rhs),rhsMax =   7.62205646263744E+01  2.98108337013797E-01
 cg2d: Sum(rhs),rhsMax =   7.62944575257276E+01  2.98402172724375E-01
 cg2d: Sum(rhs),rhsMax =   7.63543809628379E+01  2.98646152840602E-01
 cg2d: Sum(rhs),rhsMax =   7.64081804198190E+01  2.98820052609244E-01
 cg2d: Sum(rhs),rhsMax =   7.64483559127099E+01  2.98911955371237E-01
 cg2d: Sum(rhs),rhsMax =   7.64805590564717E+01  2.98920142083968E-01
 cg2d: Sum(rhs),rhsMax =   7.65025460568967E+01  2.98851481046647E-01
 cg2d: Sum(rhs),rhsMax =   7.65166916414588E+01  2.98720804678352E-01
(PID.TID 0000.0001)      cg2d_init_res =   3.85019398933756E-01
(PID.TID 0000.0001)      cg2d_iters(min,last) =      -1      32
(PID.TID 0000.0001)      cg2d_last_res =   2.67637762041957E-05
(PID.TID 0000.0001) // =======================================================
(PID.TID 0000.0001) // Begin MONITOR dynamic field statistics
(PID.TID 0000.0001) // =======================================================
(PID.TID 0000.0001) %MON time_tsnumber                =                    56
(PID.TID 0000.0001) %MON time_secondsf                =   5.0400000000000E+04
(PID.TID 0000.0001) %MON dynstat_eta_max              =   1.0868037027476E+00
(PID.TID 0000.0001) %MON dynstat_eta_min              =  -3.2751422055095E+00
(PID.TID 0000.0001) %MON dynstat_eta_mean             =  -2.4204673347177E-03
(PID.TID 0000.0001) %MON dynstat_eta_sd               =   7.0852220141349E-01
(PID.TID 0000.0001) %MON dynstat_eta_del2             =   8.8756933482588E-05
(PID.TID 0000.0001) %MON dynstat_uvel_max             =   1.0962587770791E+00
(PID.TID 0000.0001) %MON dynstat_uvel_min             =  -1.3464327959049E+00
(PID.TID 0000.0001) %MON dynstat_uvel_mean            =   1.7106743702080E-03
(PID.TID 0000.0001) %MON dynstat_uvel_sd              =   2.1724603694626E-02
(PID.TID 0000.0001) %MON dynstat_uvel_del2            =   1.3354477041999E-05
(PID.TID 0000.0001) %MON dynstat_vvel_max             =   1.3299706526010E+00
(PID.TID 0000.0001) %MON dynstat_vvel_min             =  -1.2386590869114E+00
(PID.TID 0000.0001) %MON dynstat_vvel_mean            =   1.5905618713967E-03
(PID.TID 0000.0001) %MON dynstat_vvel_sd              =   2.3031532666110E-02
(PID.TID 0000.0001) %MON dynstat_vvel_del2            =   1.3866341727106E-05
(PID.TID 0000.0001) %MON dynstat_wvel_max             =   3.7088353293243E-03
(PID.TID 0000.0001) %MON dynstat_wvel_min             =  -2.5891627911624E-03
(PID.TID 0000.0001) %MON dynstat_wvel_mean            =   6.4746492422637E-08
(PID.TID 0000.0001) %MON dynstat_wvel_sd              =   3.4602102502538E-05
(PID.TID 0000.0001) %MON dynstat_wvel_del2            =   5.4085208833460E-08
(PID.TID 0000.0001) %MON dynstat_theta_max            =   3.2657683621270E+01
(PID.TID 0000.0001) %MON dynstat_theta_min            =  -2.0423214176175E+00
(PID.TID 0000.0001) %MON dynstat_theta_mean           =   3.5905318331574E+00
(PID.TID 0000.0001) %MON dynstat_theta_sd             =   4.4363049217578E+00
(PID.TID 0000.0001) %MON dynstat_theta_del2           =   1.0629384667498E-04
(PID.TID 0000.0001) %MON dynstat_salt_max             =   4.0711525710153E+01
(PID.TID 0000.0001) %MON dynstat_salt_min             =   1.8870337503796E+01
(PID.TID 0000.0001) %MON dynstat_salt_mean            =   3.4725634749668E+01
(PID.TID 0000.0001) %MON dynstat_salt_sd              =   3.7716921108951E-01
(PID.TID 0000.0001) %MON dynstat_salt_del2            =   2.5948925152904E-05
(PID.TID 0000.0001) %MON dynstat_sst_max              =   3.2657683621270E+01
(PID.TID 0000.0001) %MON dynstat_sst_min              =  -1.9041970510681E+00
(PID.TID 0000.0001) %MON dynstat_sst_mean             =   1.8480983127797E+01
(PID.TID 0000.0001) %MON dynstat_sst_sd               =   1.0106377784610E+01
(PID.TID 0000.0001) %MON dynstat_sst_del2             =   8.6240084599742E-04
(PID.TID 0000.0001) %MON dynstat_sss_max              =   3.9445250658567E+01
(PID.TID 0000.0001) %MON dynstat_sss_min              =   1.8870337503796E+01
(PID.TID 0000.0001) %MON dynstat_sss_mean             =   3.4684007699382E+01
(PID.TID 0000.0001) %MON dynstat_sss_sd               =   1.1225860204582E+00
(PID.TID 0000.0001) %MON dynstat_sss_del2             =   3.6913262580189E-04
(PID.TID 0000.0001) %MON forcing_qnet_max             =   3.7219977794849E+03
(PID.TID 0000.0001) %MON forcing_qnet_min             =  -7.3393823242188E+02
(PID.TID 0000.0001) %MON forcing_qnet_mean            =   4.3779906002420E+01
(PID.TID 0000.0001) %MON forcing_qnet_sd              =   1.7868209719280E+02
(PID.TID 0000.0001) %MON forcing_qnet_del2            =   4.6716416176012E-01
(PID.TID 0000.0001) %MON forcing_qsw_max              =   0.0000000000000E+00
(PID.TID 0000.0001) %MON forcing_qsw_min              =  -9.9209588280323E+01
(PID.TID 0000.0001) %MON forcing_qsw_mean             =  -1.4556214194529E+01
(PID.TID 0000.0001) %MON forcing_qsw_sd               =   2.4321342006503E+01
(PID.TID 0000.0001) %MON forcing_qsw_del2             =   2.1339098745817E-02
(PID.TID 0000.0001) %MON forcing_empmr_max            =   2.5854492560029E-03
(PID.TID 0000.0001) %MON forcing_empmr_min            =  -2.8941514901817E-03
(PID.TID 0000.0001) %MON forcing_empmr_mean           =   5.1160738685337E-07
(PID.TID 0000.0001) %MON forcing_empmr_sd             =   1.5712409027695E-04
(PID.TID 0000.0001) %MON forcing_empmr_del2           =   6.0627773821699E-07
(PID.TID 0000.0001) %MON forcing_fu_max               =   1.0734739899635E+00
(PID.TID 0000.0001) %MON forcing_fu_min               =  -7.6437279582024E-01
(PID.TID 0000.0001) %MON forcing_fu_mean              =   1.0307615036264E-02
(PID.TID 0000.0001) %MON forcing_fu_sd                =   1.1149412171553E-01
(PID.TID 0000.0001) %MON forcing_fu_del2              =   1.5265320210351E-04
(PID.TID 0000.0001) %MON forcing_fv_max               =   8.1781601905823E-01
(PID.TID 0000.0001) %MON forcing_fv_min               =  -8.6583548784256E-01
(PID.TID 0000.0001) %MON forcing_fv_mean              =  -9.0330017849774E-03
(PID.TID 0000.0001) %MON forcing_fv_sd                =   1.1054762472615E-01
(PID.TID 0000.0001) %MON forcing_fv_del2              =   1.4557578206583E-04
(PID.TID 0000.0001) %MON trAdv_CFL_u_max              =   2.1508320032685E-02
(PID.TID 0000.0001) %MON trAdv_CFL_v_max              =   2.4926904018876E-02
(PID.TID 0000.0001) %MON trAdv_CFL_w_max              =   7.9761749664626E-02
(PID.TID 0000.0001) %MON advcfl_uvel_max              =   2.2276616780028E-02
(PID.TID 0000.0001) %MON advcfl_vvel_max              =   2.5147969856746E-02
(PID.TID 0000.0001) %MON advcfl_wvel_max              =   8.3115244110712E-02
(PID.TID 0000.0001) %MON advcfl_W_hf_max              =   8.8382036990892E-02
(PID.TID 0000.0001) %MON pe_b_mean                    =   6.6034448499162E-04
(PID.TID 0000.0001) %MON ke_max                       =   1.0476362317385E+00
(PID.TID 0000.0001) %MON ke_mean                      =   4.8598728976499E-04
(PID.TID 0000.0001) %MON ke_vol                       =   1.3349970105386E+18
(PID.TID 0000.0001) %MON vort_r_min                   =  -3.9112756178997E-05
(PID.TID 0000.0001) %MON vort_r_max                   =   3.9029263015022E-05
(PID.TID 0000.0001) %MON vort_a_mean                  =  -1.9727864647440E-05
(PID.TID 0000.0001) %MON vort_a_sd                    =   7.4543359936170E-05
(PID.TID 0000.0001) %MON vort_p_mean                  =  -2.1760544423027E-05
(PID.TID 0000.0001) %MON vort_p_sd                    =   9.7244604938844E-05
(PID.TID 0000.0001) %MON surfExpan_theta_mean         =  -2.7454489299765E-06
(PID.TID 0000.0001) %MON surfExpan_salt_mean          =  -2.6656153282212E-07
(PID.TID 0000.0001) // =======================================================
(PID.TID 0000.0001) // End MONITOR dynamic field statistics
(PID.TID 0000.0001) // =======================================================
 cg2d: Sum(rhs),rhsMax =   7.65155668752404E+01  2.98548072623146E-01
 cg2d: Sum(rhs),rhsMax =   7.65046167239467E+01  2.98356536410540E-01
 cg2d: Sum(rhs),rhsMax =   7.64878746486883E+01  2.98170894686884E-01
 cg2d: Sum(rhs),rhsMax =   7.64623104670664E+01  2.98014056474744E-01
 cg2d: Sum(rhs),rhsMax =   7.64280317529794E+01  2.97906920416167E-01
 cg2d: Sum(rhs),rhsMax =   7.63852513066966E+01  2.97864649032236E-01
 cg2d: Sum(rhs),rhsMax =   7.63379931483107E+01  2.97897912413363E-01
 cg2d: Sum(rhs),rhsMax =   7.62817853598110E+01  2.98011869287244E-01
(PID.TID 0000.0001)      cg2d_init_res =   3.59429224755810E-01
(PID.TID 0000.0001)      cg2d_iters(min,last) =      -1      32
(PID.TID 0000.0001)      cg2d_last_res =   2.79652959969371E-05
(PID.TID 0000.0001) // =======================================================
(PID.TID 0000.0001) // Begin MONITOR dynamic field statistics
(PID.TID 0000.0001) // =======================================================
(PID.TID 0000.0001) %MON time_tsnumber                =                    64
(PID.TID 0000.0001) %MON time_secondsf                =   5.7600000000000E+04
(PID.TID 0000.0001) %MON dynstat_eta_max              =   1.0886817424072E+00
(PID.TID 0000.0001) %MON dynstat_eta_min              =  -3.0789177836967E+00
(PID.TID 0000.0001) %MON dynstat_eta_mean             =  -2.4130364987883E-03
(PID.TID 0000.0001) %MON dynstat_eta_sd               =   7.0291095946328E-01
(PID.TID 0000.0001) %MON dynstat_eta_del2             =   8.7353458580008E-05
(PID.TID 0000.0001) %MON dynstat_uvel_max             =   1.0577199827534E+00
(PID.TID 0000.0001) %MON dynstat_uvel_min             =  -1.3516763223558E+00
(PID.TID 0000.0001) %MON dynstat_uvel_mean            =   1.6115623230031E-03
(PID.TID 0000.0001) %MON dynstat_uvel_sd              =   2.1656353422669E-02
(PID.TID 0000.0001) %MON dynstat_uvel_del2            =   1.3353304816745E-05
(PID.TID 0000.0001) %MON dynstat_vvel_max             =   1.3586224062417E+00
(PID.TID 0000.0001) %MON dynstat_vvel_min             =  -1.1374843393646E+00
(PID.TID 0000.0001) %MON dynstat_vvel_mean            =   1.6286910347915E-03
(PID.TID 0000.0001) %MON dynstat_vvel_sd              =   2.2927096537623E-02
(PID.TID 0000.0001) %MON dynstat_vvel_del2            =   1.3674944961834E-05
(PID.TID 0000.0001) %MON dynstat_wvel_max             =   4.2736522314443E-03
(PID.TID 0000.0001) %MON dynstat_wvel_min             =  -2.5009063313229E-03
(PID.TID 0000.0001) %MON dynstat_wvel_mean            =   7.4051476229810E-08
(PID.TID 0000.0001) %MON dynstat_wvel_sd              =   3.3677702979363E-05
(PID.TID 0000.0001) %MON dynstat_wvel_del2            =   5.3712730956480E-08
(PID.TID 0000.0001) %MON dynstat_theta_max            =   3.2637591863888E+01
(PID.TID 0000.0001) %MON dynstat_theta_min            =  -2.0422941194741E+00
(PID.TID 0000.0001) %MON dynstat_theta_mean           =   3.5905156416081E+00
(PID.TID 0000.0001) %MON dynstat_theta_sd             =   4.4362321872516E+00
(PID.TID 0000.0001) %MON dynstat_theta_del2           =   1.0573918354499E-04
(PID.TID 0000.0001) %MON dynstat_salt_max             =   4.0711527007417E+01
(PID.TID 0000.0001) %MON dynstat_salt_min             =   1.8871285057059E+01
(PID.TID 0000.0001) %MON dynstat_salt_mean            =   3.4725628000908E+01
(PID.TID 0000.0001) %MON dynstat_salt_sd              =   3.7713783947009E-01
(PID.TID 0000.0001) %MON dynstat_salt_del2            =   2.5815828986085E-05
(PID.TID 0000.0001) %MON dynstat_sst_max              =   3.2614163894986E+01
(PID.TID 0000.0001) %MON dynstat_sst_min              =  -1.8981545482531E+00
(PID.TID 0000.0001) %MON dynstat_sst_mean             =   1.8479731800261E+01
(PID.TID 0000.0001) %MON dynstat_sst_sd               =   1.0107232254010E+01
(PID.TID 0000.0001) %MON dynstat_sst_del2             =   8.5944288762556E-04
(PID.TID 0000.0001) %MON dynstat_sss_max              =   3.9420090490128E+01
(PID.TID 0000.0001) %MON dynstat_sss_min              =   1.8871285057059E+01
(PID.TID 0000.0001) %MON dynstat_sss_mean             =   3.4684805752290E+01
(PID.TID 0000.0001) %MON dynstat_sss_sd               =   1.1233334455266E+00
(PID.TID 0000.0001) %MON dynstat_sss_del2             =   3.6821467582086E-04
(PID.TID 0000.0001) %MON forcing_qnet_max             =   1.3011058349609E+03
(PID.TID 0000.0001) %MON forcing_qnet_min             =  -7.9942483038897E+02
(PID.TID 0000.0001) %MON forcing_qnet_mean            =   2.7800262911243E+01
(PID.TID 0000.0001) %MON forcing_qnet_sd              =   1.9650972758879E+02
(PID.TID 0000.0001) %MON forcing_qnet_del2            =   3.8350137604461E-01
(PID.TID 0000.0001) %MON forcing_qsw_max              =   0.0000000000000E+00
(PID.TID 0000.0001) %MON forcing_qsw_min              =  -1.0350512855947E+02
(PID.TID 0000.0001) %MON forcing_qsw_mean             =  -1.5800519419885E+01
(PID.TID 0000.0001) %MON forcing_qsw_sd               =   2.7463129040103E+01
(PID.TID 0000.0001) %MON forcing_qsw_del2             =   2.2560172930806E-02
(PID.TID 0000.0001) %MON forcing_empmr_max            =   1.9451226107776E-03
(PID.TID 0000.0001) %MON forcing_empmr_min            =  -2.8900825418532E-03
(PID.TID 0000.0001) %MON forcing_empmr_mean           =  -2.0328830999410E-06
(PID.TID 0000.0001) %MON forcing_empmr_sd             =   1.4466149521895E-04
(PID.TID 0000.0001) %MON forcing_empmr_del2           =   5.5704854131056E-07
(PID.TID 0000.0001) %MON forcing_fu_max               =   1.0344576239586E+00
(PID.TID 0000.0001) %MON forcing_fu_min               =  -7.5532829761505E-01
(PID.TID 0000.0001) %MON forcing_fu_mean              =   9.5497785125953E-03
(PID.TID 0000.0001) %MON forcing_fu_sd                =   1.0989441330257E-01
(PID.TID 0000.0001) %MON forcing_fu_del2              =   1.5111169949961E-04
(PID.TID 0000.0001) %MON forcing_fv_max               =   8.7413534522057E-01
(PID.TID 0000.0001) %MON forcing_fv_min               =  -9.2380571365357E-01
(PID.TID 0000.0001) %MON forcing_fv_mean              =  -8.6246290661358E-03
(PID.TID 0000.0001) %MON forcing_fv_sd                =   1.0993389431158E-01
(PID.TID 0000.0001) %MON forcing_fv_del2              =   1.4732422760422E-04
(PID.TID 0000.0001) %MON trAdv_CFL_u_max              =   2.1532007783000E-02
(PID.TID 0000.0001) %MON trAdv_CFL_v_max              =   2.5456980734501E-02
(PID.TID 0000.0001) %MON trAdv_CFL_w_max              =   7.7354624611099E-02
(PID.TID 0000.0001) %MON advcfl_uvel_max              =   2.2363370481867E-02
(PID.TID 0000.0001) %MON advcfl_vvel_max              =   2.4116614614704E-02
(PID.TID 0000.0001) %MON advcfl_wvel_max              =   8.0620313742958E-02
(PID.TID 0000.0001) %MON advcfl_W_hf_max              =   8.5771749539874E-02
(PID.TID 0000.0001) %MON pe_b_mean                    =   6.4992659230607E-04
(PID.TID 0000.0001) %MON ke_max                       =   1.0898771507380E+00
(PID.TID 0000.0001) %MON ke_mean                      =   4.8214548571398E-04
(PID.TID 0000.0001) %MON ke_vol                       =   1.3349970124022E+18
(PID.TID 0000.0001) %MON vort_r_min                   =  -3.9206996615475E-05
(PID.TID 0000.0001) %MON vort_r_max                   =   3.9293608450064E-05
(PID.TID 0000.0001) %MON vort_a_mean                  =  -1.9727864647440E-05
(PID.TID 0000.0001) %MON vort_a_sd                    =   7.4543347936208E-05
(PID.TID 0000.0001) %MON vort_p_mean                  =  -2.1760544263445E-05
(PID.TID 0000.0001) %MON vort_p_sd                    =   9.7244937373727E-05
(PID.TID 0000.0001) %MON surfExpan_theta_mean         =  -2.7014757797815E-06
(PID.TID 0000.0001) %MON surfExpan_salt_mean          =  -2.7783204864412E-07
(PID.TID 0000.0001) // =======================================================
(PID.TID 0000.0001) // End MONITOR dynamic field statistics
(PID.TID 0000.0001) // =======================================================
 cg2d: Sum(rhs),rhsMax =   7.62198493457794E+01  2.98205242090828E-01
 cg2d: Sum(rhs),rhsMax =   7.61500263062127E+01  2.98472284822395E-01
 cg2d: Sum(rhs),rhsMax =   7.60741928147359E+01  2.98803169509833E-01
 cg2d: Sum(rhs),rhsMax =   7.59916083350386E+01  2.99184674554174E-01
 cg2d: Sum(rhs),rhsMax =   7.59057951135719E+01  2.99601935718115E-01
 cg2d: Sum(rhs),rhsMax =   7.58105686872370E+01  3.00039170673158E-01
 cg2d: Sum(rhs),rhsMax =   7.57169293806477E+01  3.00480765947652E-01
 cg2d: Sum(rhs),rhsMax =   7.56142655833350E+01  3.00911915399963E-01
(PID.TID 0000.0001)      cg2d_init_res =   3.32007372703684E-01
(PID.TID 0000.0001)      cg2d_iters(min,last) =      -1      32
(PID.TID 0000.0001)      cg2d_last_res =   2.24367291694315E-05
(PID.TID 0000.0001) // =======================================================
(PID.TID 0000.0001) // Begin MONITOR dynamic field statistics
(PID.TID 0000.0001) // =======================================================
(PID.TID 0000.0001) %MON time_tsnumber                =                    72
(PID.TID 0000.0001) %MON time_secondsf                =   6.4800000000000E+04
(PID.TID 0000.0001) %MON dynstat_eta_max              =   1.0819312524506E+00
(PID.TID 0000.0001) %MON dynstat_eta_min              =  -2.9997823663556E+00
(PID.TID 0000.0001) %MON dynstat_eta_mean             =  -2.3919207163417E-03
(PID.TID 0000.0001) %MON dynstat_eta_sd               =   6.9730861103531E-01
(PID.TID 0000.0001) %MON dynstat_eta_del2             =   8.5042412305511E-05
(PID.TID 0000.0001) %MON dynstat_uvel_max             =   8.8595442840205E-01
(PID.TID 0000.0001) %MON dynstat_uvel_min             =  -1.3649215519109E+00
(PID.TID 0000.0001) %MON dynstat_uvel_mean            =   1.4126203676668E-03
(PID.TID 0000.0001) %MON dynstat_uvel_sd              =   2.1526255869016E-02
(PID.TID 0000.0001) %MON dynstat_uvel_del2            =   1.3321806894181E-05
(PID.TID 0000.0001) %MON dynstat_vvel_max             =   1.3383228030127E+00
(PID.TID 0000.0001) %MON dynstat_vvel_min             =  -9.2589971206246E-01
(PID.TID 0000.0001) %MON dynstat_vvel_mean            =   1.6732030371996E-03
(PID.TID 0000.0001) %MON dynstat_vvel_sd              =   2.2842933971719E-02
(PID.TID 0000.0001) %MON dynstat_vvel_del2            =   1.3476728560713E-05
(PID.TID 0000.0001) %MON dynstat_wvel_max             =   4.1527351210317E-03
(PID.TID 0000.0001) %MON dynstat_wvel_min             =  -2.4443237539789E-03
(PID.TID 0000.0001) %MON dynstat_wvel_mean            =   5.8003925226784E-08
(PID.TID 0000.0001) %MON dynstat_wvel_sd              =   3.2845675837976E-05
(PID.TID 0000.0001) %MON dynstat_wvel_del2            =   5.2945874058540E-08
(PID.TID 0000.0001) %MON dynstat_theta_max            =   3.2632031923093E+01
(PID.TID 0000.0001) %MON dynstat_theta_min            =  -2.0422831087793E+00
(PID.TID 0000.0001) %MON dynstat_theta_mean           =   3.5905067124237E+00
(PID.TID 0000.0001) %MON dynstat_theta_sd             =   4.4361912058714E+00
(PID.TID 0000.0001) %MON dynstat_theta_del2           =   1.0522207610018E-04
(PID.TID 0000.0001) %MON dynstat_salt_max             =   4.0711528110868E+01
(PID.TID 0000.0001) %MON dynstat_salt_min             =   1.8872886680561E+01
(PID.TID 0000.0001) %MON dynstat_salt_mean            =   3.4725622642772E+01
(PID.TID 0000.0001) %MON dynstat_salt_sd              =   3.7711344591870E-01
(PID.TID 0000.0001) %MON dynstat_salt_del2            =   2.5667713011126E-05
(PID.TID 0000.0001) %MON dynstat_sst_max              =   3.2592939659295E+01
(PID.TID 0000.0001) %MON dynstat_sst_min              =  -1.8903369965079E+00
(PID.TID 0000.0001) %MON dynstat_sst_mean             =   1.8480782059090E+01
(PID.TID 0000.0001) %MON dynstat_sst_sd               =   1.0108855898623E+01
(PID.TID 0000.0001) %MON dynstat_sst_del2             =   8.5670222086623E-04
(PID.TID 0000.0001) %MON dynstat_sss_max              =   3.9396603015764E+01
(PID.TID 0000.0001) %MON dynstat_sss_min              =   1.8872886680561E+01
(PID.TID 0000.0001) %MON dynstat_sss_mean             =   3.4685718893195E+01
(PID.TID 0000.0001) %MON dynstat_sss_sd               =   1.1242273779456E+00
(PID.TID 0000.0001) %MON dynstat_sss_del2             =   3.6719210615846E-04
(PID.TID 0000.0001) %MON forcing_qnet_max             =   1.2054187011719E+03
(PID.TID 0000.0001) %MON forcing_qnet_min             =  -1.1125668945312E+03
(PID.TID 0000.0001) %MON forcing_qnet_mean            =   1.2745995380553E+01
(PID.TID 0000.0001) %MON forcing_qnet_sd              =   2.0737925201005E+02
(PID.TID 0000.0001) %MON forcing_qnet_del2            =   3.6949783236584E-01
(PID.TID 0000.0001) %MON forcing_qsw_max              =   0.0000000000000E+00
(PID.TID 0000.0001) %MON forcing_qsw_min              =  -1.0960410739138E+02
(PID.TID 0000.0001) %MON forcing_qsw_mean             =  -1.7340095820989E+01
(PID.TID 0000.0001) %MON forcing_qsw_sd               =   2.9337428180299E+01
(PID.TID 0000.0001) %MON forcing_qsw_del2             =   2.2722415898874E-02
(PID.TID 0000.0001) %MON forcing_empmr_max            =   1.7803277587518E-03
(PID.TID 0000.0001) %MON forcing_empmr_min            =  -2.8864203486592E-03
(PID.TID 0000.0001) %MON forcing_empmr_mean           =  -3.7130708060343E-06
(PID.TID 0000.0001) %MON forcing_empmr_sd             =   1.3650902899436E-04
(PID.TID 0000.0001) %MON forcing_empmr_del2           =   5.3876168082257E-07
(PID.TID 0000.0001) %MON forcing_fu_max               =   9.9168547987938E-01
(PID.TID 0000.0001) %MON forcing_fu_min               =  -8.9515680074692E-01
(PID.TID 0000.0001) %MON forcing_fu_mean              =   9.0973024463716E-03
(PID.TID 0000.0001) %MON forcing_fu_sd                =   1.0861397098224E-01
(PID.TID 0000.0001) %MON forcing_fu_del2              =   1.5039413749051E-04
(PID.TID 0000.0001) %MON forcing_fv_max               =   9.3527910113335E-01
(PID.TID 0000.0001) %MON forcing_fv_min               =  -9.3745422363281E-01
(PID.TID 0000.0001) %MON forcing_fv_mean              =  -8.6540284922261E-03
(PID.TID 0000.0001) %MON forcing_fv_sd                =   1.0953476146668E-01
(PID.TID 0000.0001) %MON forcing_fv_del2              =   1.4733297514710E-04
(PID.TID 0000.0001) %MON trAdv_CFL_u_max              =   2.2174951111153E-02
(PID.TID 0000.0001) %MON trAdv_CFL_v_max              =   2.5101988440758E-02
(PID.TID 0000.0001) %MON trAdv_CFL_w_max              =   9.6603737840746E-02
(PID.TID 0000.0001) %MON advcfl_uvel_max              =   2.2581609536358E-02
(PID.TID 0000.0001) %MON advcfl_vvel_max              =   2.3756280716443E-02
(PID.TID 0000.0001) %MON advcfl_wvel_max              =   1.0055904630780E-01
(PID.TID 0000.0001) %MON advcfl_W_hf_max              =   1.0594772800670E-01
(PID.TID 0000.0001) %MON pe_b_mean                    =   6.3960775946547E-04
(PID.TID 0000.0001) %MON ke_max                       =   1.0724018277575E+00
(PID.TID 0000.0001) %MON ke_mean                      =   4.7736002061313E-04
(PID.TID 0000.0001) %MON ke_vol                       =   1.3349970194358E+18
(PID.TID 0000.0001) %MON vort_r_min                   =  -3.9967663224299E-05
(PID.TID 0000.0001) %MON vort_r_max                   =   3.9356010280329E-05
(PID.TID 0000.0001) %MON vort_a_mean                  =  -1.9727864647440E-05
(PID.TID 0000.0001) %MON vort_a_sd                    =   7.4543321488304E-05
(PID.TID 0000.0001) %MON vort_p_mean                  =  -2.1760543835286E-05
(PID.TID 0000.0001) %MON vort_p_sd                    =   9.7245126645295E-05
(PID.TID 0000.0001) %MON surfExpan_theta_mean         =  -2.3253532081106E-06
(PID.TID 0000.0001) %MON surfExpan_salt_mean          =  -1.8226537502407E-07
(PID.TID 0000.0001) // =======================================================
(PID.TID 0000.0001) // End MONITOR dynamic field statistics
(PID.TID 0000.0001) // =======================================================
 cg2d: Sum(rhs),rhsMax =   7.55177015911626E+01  3.01319840831216E-01
 cg2d: Sum(rhs),rhsMax =   7.54176489559818E+01  3.01693216688070E-01
 cg2d: Sum(rhs),rhsMax =   7.53056449831091E+01  3.02023243576145E-01
 cg2d: Sum(rhs),rhsMax =   7.51916501994769E+01  3.02302816386432E-01
 cg2d: Sum(rhs),rhsMax =   7.50746875743099E+01  3.02527354186348E-01
 cg2d: Sum(rhs),rhsMax =   7.49595610767917E+01  3.02838461312308E-01
 cg2d: Sum(rhs),rhsMax =   7.48366418747251E+01  3.03154926073699E-01
 cg2d: Sum(rhs),rhsMax =   7.47162394870515E+01  3.03410944443899E-01
(PID.TID 0000.0001)      cg2d_init_res =   3.13907401854987E-01
(PID.TID 0000.0001)      cg2d_iters(min,last) =      -1      31
(PID.TID 0000.0001)      cg2d_last_res =   2.09781284972948E-05
(PID.TID 0000.0001) // =======================================================
(PID.TID 0000.0001) // Begin MONITOR dynamic field statistics
(PID.TID 0000.0001) // =======================================================
(PID.TID 0000.0001) %MON time_tsnumber                =                    80
(PID.TID 0000.0001) %MON time_secondsf                =   7.2000000000000E+04
(PID.TID 0000.0001) %MON dynstat_eta_max              =   1.0800713236735E+00
(PID.TID 0000.0001) %MON dynstat_eta_min              =  -2.9867404657072E+00
(PID.TID 0000.0001) %MON dynstat_eta_mean             =  -2.3635132828111E-03
(PID.TID 0000.0001) %MON dynstat_eta_sd               =   6.9259229772564E-01
(PID.TID 0000.0001) %MON dynstat_eta_del2             =   8.2967469877895E-05
(PID.TID 0000.0001) %MON dynstat_uvel_max             =   9.1377903267834E-01
(PID.TID 0000.0001) %MON dynstat_uvel_min             =  -1.3425053423603E+00
(PID.TID 0000.0001) %MON dynstat_uvel_mean            =   1.1578145738998E-03
(PID.TID 0000.0001) %MON dynstat_uvel_sd              =   2.1344662238889E-02
(PID.TID 0000.0001) %MON dynstat_uvel_del2            =   1.3279659853274E-05
(PID.TID 0000.0001) %MON dynstat_vvel_max             =   1.3290021531334E+00
(PID.TID 0000.0001) %MON dynstat_vvel_min             =  -9.2057640468730E-01
(PID.TID 0000.0001) %MON dynstat_vvel_mean            =   1.6819933344782E-03
(PID.TID 0000.0001) %MON dynstat_vvel_sd              =   2.2711491091103E-02
(PID.TID 0000.0001) %MON dynstat_vvel_del2            =   1.3243157400439E-05
(PID.TID 0000.0001) %MON dynstat_wvel_max             =   3.5674923502138E-03
(PID.TID 0000.0001) %MON dynstat_wvel_min             =  -2.2844673435085E-03
(PID.TID 0000.0001) %MON dynstat_wvel_mean            =   3.8936375428581E-08
(PID.TID 0000.0001) %MON dynstat_wvel_sd              =   3.2236118938133E-05
(PID.TID 0000.0001) %MON dynstat_wvel_del2            =   5.2003529176553E-08
(PID.TID 0000.0001) %MON dynstat_theta_max            =   3.2624477377129E+01
(PID.TID 0000.0001) %MON dynstat_theta_min            =  -2.0422745168685E+00
(PID.TID 0000.0001) %MON dynstat_theta_mean           =   3.5905037954492E+00
(PID.TID 0000.0001) %MON dynstat_theta_sd             =   4.4361794975702E+00
(PID.TID 0000.0001) %MON dynstat_theta_del2           =   1.0473692584556E-04
(PID.TID 0000.0001) %MON dynstat_salt_max             =   4.0711529060426E+01
(PID.TID 0000.0001) %MON dynstat_salt_min             =   1.8874527200571E+01
(PID.TID 0000.0001) %MON dynstat_salt_mean            =   3.4725618101594E+01
(PID.TID 0000.0001) %MON dynstat_salt_sd              =   3.7709338921449E-01
(PID.TID 0000.0001) %MON dynstat_salt_del2            =   2.5515132164863E-05
(PID.TID 0000.0001) %MON dynstat_sst_max              =   3.2571243317320E+01
(PID.TID 0000.0001) %MON dynstat_sst_min              =  -1.8836162418807E+00
(PID.TID 0000.0001) %MON dynstat_sst_mean             =   1.8483293502744E+01
(PID.TID 0000.0001) %MON dynstat_sst_sd               =   1.0111544364319E+01
(PID.TID 0000.0001) %MON dynstat_sst_del2             =   8.5442257006328E-04
(PID.TID 0000.0001) %MON dynstat_sss_max              =   3.9374225846199E+01
(PID.TID 0000.0001) %MON dynstat_sss_min              =   1.8874527200571E+01
(PID.TID 0000.0001) %MON dynstat_sss_mean             =   3.4686609538567E+01
(PID.TID 0000.0001) %MON dynstat_sss_sd               =   1.1251321948260E+00
(PID.TID 0000.0001) %MON dynstat_sss_del2             =   3.6620427765999E-04
(PID.TID 0000.0001) %MON forcing_qnet_max             =   1.7678049316406E+03
(PID.TID 0000.0001) %MON forcing_qnet_min             =  -8.2356690807112E+02
(PID.TID 0000.0001) %MON forcing_qnet_mean            =   1.9518370245897E+00
(PID.TID 0000.0001) %MON forcing_qnet_sd              =   1.9643920460253E+02
(PID.TID 0000.0001) %MON forcing_qnet_del2            =   3.5867514052584E-01
(PID.TID 0000.0001) %MON forcing_qsw_max              =   0.0000000000000E+00
(PID.TID 0000.0001) %MON forcing_qsw_min              =  -1.0971287314437E+02
(PID.TID 0000.0001) %MON forcing_qsw_mean             =  -1.8935513782829E+01
(PID.TID 0000.0001) %MON forcing_qsw_sd               =   2.8662202225119E+01
(PID.TID 0000.0001) %MON forcing_qsw_del2             =   2.1712833773775E-02
(PID.TID 0000.0001) %MON forcing_empmr_max            =   1.6315375687554E-03
(PID.TID 0000.0001) %MON forcing_empmr_min            =  -4.0112845599651E-03
(PID.TID 0000.0001) %MON forcing_empmr_mean           =  -4.3546274574067E-06
(PID.TID 0000.0001) %MON forcing_empmr_sd             =   1.3913729957316E-04
(PID.TID 0000.0001) %MON forcing_empmr_del2           =   5.8539398295728E-07
(PID.TID 0000.0001) %MON forcing_fu_max               =   9.2088949680328E-01
(PID.TID 0000.0001) %MON forcing_fu_min               =  -1.0305238366127E+00
(PID.TID 0000.0001) %MON forcing_fu_mean              =   8.7513171947719E-03
(PID.TID 0000.0001) %MON forcing_fu_sd                =   1.0717489655777E-01
(PID.TID 0000.0001) %MON forcing_fu_del2              =   1.5000291542866E-04
(PID.TID 0000.0001) %MON forcing_fv_max               =   9.6912416815758E-01
(PID.TID 0000.0001) %MON forcing_fv_min               =  -9.4995570182801E-01
(PID.TID 0000.0001) %MON forcing_fv_mean              =  -9.1440512748575E-03
(PID.TID 0000.0001) %MON forcing_fv_sd                =   1.0909417276637E-01
(PID.TID 0000.0001) %MON forcing_fv_del2              =   1.4665024095006E-04
(PID.TID 0000.0001) %MON trAdv_CFL_u_max              =   2.2894084376151E-02
(PID.TID 0000.0001) %MON trAdv_CFL_v_max              =   2.4651454098386E-02
(PID.TID 0000.0001) %MON trAdv_CFL_w_max              =   1.1165739947367E-01
(PID.TID 0000.0001) %MON advcfl_uvel_max              =   2.2045359415537E-02
(PID.TID 0000.0001) %MON advcfl_vvel_max              =   2.3590989861683E-02
(PID.TID 0000.0001) %MON advcfl_wvel_max              =   1.1625246092521E-01
(PID.TID 0000.0001) %MON advcfl_W_hf_max              =   1.2255365332248E-01
(PID.TID 0000.0001) %MON pe_b_mean                    =   6.3098484196215E-04
(PID.TID 0000.0001) %MON ke_max                       =   1.0516319070742E+00
(PID.TID 0000.0001) %MON ke_mean                      =   4.7041746880284E-04
(PID.TID 0000.0001) %MON ke_vol                       =   1.3349970294052E+18
(PID.TID 0000.0001) %MON vort_r_min                   =  -3.9340880072147E-05
(PID.TID 0000.0001) %MON vort_r_max                   =   3.9484930770045E-05
(PID.TID 0000.0001) %MON vort_a_mean                  =  -1.9727864647440E-05
(PID.TID 0000.0001) %MON vort_a_sd                    =   7.4543279775115E-05
(PID.TID 0000.0001) %MON vort_p_mean                  =  -2.1760543285291E-05
(PID.TID 0000.0001) %MON vort_p_sd                    =   9.7245169197618E-05
(PID.TID 0000.0001) %MON surfExpan_theta_mean         =  -1.9822608188474E-06
(PID.TID 0000.0001) %MON surfExpan_salt_mean          =  -1.1409859484433E-07
(PID.TID 0000.0001) // =======================================================
(PID.TID 0000.0001) // End MONITOR dynamic field statistics
(PID.TID 0000.0001) // =======================================================
 cg2d: Sum(rhs),rhsMax =   7.46049234537852E+01  3.03601994439900E-01
 cg2d: Sum(rhs),rhsMax =   7.44994105790713E+01  3.03726806114767E-01
 cg2d: Sum(rhs),rhsMax =   7.44000574119439E+01  3.03783172536586E-01
 cg2d: Sum(rhs),rhsMax =   7.43012192462493E+01  3.03770741702881E-01
 cg2d: Sum(rhs),rhsMax =   7.41962632714739E+01  3.03688099715331E-01
 cg2d: Sum(rhs),rhsMax =   7.40889535957639E+01  3.03536199486345E-01
 cg2d: Sum(rhs),rhsMax =   7.39873806685675E+01  3.03314318085375E-01
 cg2d: Sum(rhs),rhsMax =   7.38865300188625E+01  3.03024002274778E-01
(PID.TID 0000.0001)      cg2d_init_res =   2.88938584360118E-01
(PID.TID 0000.0001)      cg2d_iters(min,last) =      -1      31
(PID.TID 0000.0001)      cg2d_last_res =   2.56941575063599E-05
(PID.TID 0000.0001) // =======================================================
(PID.TID 0000.0001) // Begin MONITOR dynamic field statistics
(PID.TID 0000.0001) // =======================================================
(PID.TID 0000.0001) %MON time_tsnumber                =                    88
(PID.TID 0000.0001) %MON time_secondsf                =   7.9200000000000E+04
(PID.TID 0000.0001) %MON dynstat_eta_max              =   1.0844322829562E+00
(PID.TID 0000.0001) %MON dynstat_eta_min              =  -2.8797551620849E+00
(PID.TID 0000.0001) %MON dynstat_eta_mean             =  -2.3372669224161E-03
(PID.TID 0000.0001) %MON dynstat_eta_sd               =   6.8881600878800E-01
(PID.TID 0000.0001) %MON dynstat_eta_del2             =   8.1995027872259E-05
(PID.TID 0000.0001) %MON dynstat_uvel_max             =   9.6206793940691E-01
(PID.TID 0000.0001) %MON dynstat_uvel_min             =  -1.2937845249895E+00
(PID.TID 0000.0001) %MON dynstat_uvel_mean            =   9.5453374078295E-04
(PID.TID 0000.0001) %MON dynstat_uvel_sd              =   2.1150020083921E-02
(PID.TID 0000.0001) %MON dynstat_uvel_del2            =   1.3213331005904E-05
(PID.TID 0000.0001) %MON dynstat_vvel_max             =   1.3416932117746E+00
(PID.TID 0000.0001) %MON dynstat_vvel_min             =  -9.1452736906465E-01
(PID.TID 0000.0001) %MON dynstat_vvel_mean            =   1.6261093948161E-03
(PID.TID 0000.0001) %MON dynstat_vvel_sd              =   2.2516280156023E-02
(PID.TID 0000.0001) %MON dynstat_vvel_del2            =   1.3001213139454E-05
(PID.TID 0000.0001) %MON dynstat_wvel_max             =   3.8817535959674E-03
(PID.TID 0000.0001) %MON dynstat_wvel_min             =  -2.0635065205656E-03
(PID.TID 0000.0001) %MON dynstat_wvel_mean            =   3.5946222649640E-08
(PID.TID 0000.0001) %MON dynstat_wvel_sd              =   3.1661713499546E-05
(PID.TID 0000.0001) %MON dynstat_wvel_del2            =   5.0870753593953E-08
(PID.TID 0000.0001) %MON dynstat_theta_max            =   3.2611763478553E+01
(PID.TID 0000.0001) %MON dynstat_theta_min            =  -2.0422705800307E+00
(PID.TID 0000.0001) %MON dynstat_theta_mean           =   3.5905052174346E+00
(PID.TID 0000.0001) %MON dynstat_theta_sd             =   4.4361888876275E+00
(PID.TID 0000.0001) %MON dynstat_theta_del2           =   1.0427327166041E-04
(PID.TID 0000.0001) %MON dynstat_salt_max             =   4.0711529988002E+01
(PID.TID 0000.0001) %MON dynstat_salt_min             =   1.8876956446726E+01
(PID.TID 0000.0001) %MON dynstat_salt_mean            =   3.4725614200033E+01
(PID.TID 0000.0001) %MON dynstat_salt_sd              =   3.7707632866172E-01
(PID.TID 0000.0001) %MON dynstat_salt_del2            =   2.5360528871663E-05
(PID.TID 0000.0001) %MON dynstat_sst_max              =   3.2551125049269E+01
(PID.TID 0000.0001) %MON dynstat_sst_min              =  -1.8796120688561E+00
(PID.TID 0000.0001) %MON dynstat_sst_mean             =   1.8485791196745E+01
(PID.TID 0000.0001) %MON dynstat_sst_sd               =   1.0114603790947E+01
(PID.TID 0000.0001) %MON dynstat_sst_del2             =   8.5179580433326E-04
(PID.TID 0000.0001) %MON dynstat_sss_max              =   3.9353040533048E+01
(PID.TID 0000.0001) %MON dynstat_sss_min              =   1.8876956446726E+01
(PID.TID 0000.0001) %MON dynstat_sss_mean             =   3.4687400648021E+01
(PID.TID 0000.0001) %MON dynstat_sss_sd               =   1.1259423918550E+00
(PID.TID 0000.0001) %MON dynstat_sss_del2             =   3.6531993928730E-04
(PID.TID 0000.0001) %MON forcing_qnet_max             =   1.8561309814453E+03
(PID.TID 0000.0001) %MON forcing_qnet_min             =  -8.2477806646411E+02
(PID.TID 0000.0001) %MON forcing_qnet_mean            =  -6.7068094820253E+00
(PID.TID 0000.0001) %MON forcing_qnet_sd              =   1.8684375186321E+02
(PID.TID 0000.0001) %MON forcing_qnet_del2            =   3.6913447855726E-01
(PID.TID 0000.0001) %MON forcing_qsw_max              =   0.0000000000000E+00
(PID.TID 0000.0001) %MON forcing_qsw_min              =  -1.0734982996633E+02
(PID.TID 0000.0001) %MON forcing_qsw_mean             =  -2.0298848772250E+01
(PID.TID 0000.0001) %MON forcing_qsw_sd               =   2.9301412149426E+01
(PID.TID 0000.0001) %MON forcing_qsw_del2             =   2.0414073686654E-02
(PID.TID 0000.0001) %MON forcing_empmr_max            =   1.4968533068895E-03
(PID.TID 0000.0001) %MON forcing_empmr_min            =  -4.5673288404942E-03
(PID.TID 0000.0001) %MON forcing_empmr_mean           =  -3.6474941801069E-06
(PID.TID 0000.0001) %MON forcing_empmr_sd             =   1.3080280103891E-04
(PID.TID 0000.0001) %MON forcing_empmr_del2           =   5.9430700569767E-07
(PID.TID 0000.0001) %MON forcing_fu_max               =   8.6437740921974E-01
(PID.TID 0000.0001) %MON forcing_fu_min               =  -1.1604360342026E+00
(PID.TID 0000.0001) %MON forcing_fu_mean              =   8.4547922308961E-03
(PID.TID 0000.0001) %MON forcing_fu_sd                =   1.0568080108090E-01
(PID.TID 0000.0001) %MON forcing_fu_del2              =   1.5081056349571E-04
(PID.TID 0000.0001) %MON forcing_fv_max               =   9.7200590372086E-01
(PID.TID 0000.0001) %MON forcing_fv_min               =  -9.9848213791848E-01
(PID.TID 0000.0001) %MON forcing_fv_mean              =  -9.6912102226767E-03
(PID.TID 0000.0001) %MON forcing_fv_sd                =   1.0922442417288E-01
(PID.TID 0000.0001) %MON forcing_fv_del2              =   1.4682120565880E-04
(PID.TID 0000.0001) %MON trAdv_CFL_u_max              =   2.3181068047089E-02
(PID.TID 0000.0001) %MON trAdv_CFL_v_max              =   2.4566182292747E-02
(PID.TID 0000.0001) %MON trAdv_CFL_w_max              =   1.2083846407134E-01
(PID.TID 0000.0001) %MON advcfl_uvel_max              =   2.2663533750840E-02
(PID.TID 0000.0001) %MON advcfl_vvel_max              =   2.3816267627435E-02
(PID.TID 0000.0001) %MON advcfl_wvel_max              =   1.2582777344589E-01
(PID.TID 0000.0001) %MON advcfl_W_hf_max              =   1.3271250430379E-01
(PID.TID 0000.0001) %MON pe_b_mean                    =   6.2412275228489E-04
(PID.TID 0000.0001) %MON ke_max                       =   1.0528284463795E+00
(PID.TID 0000.0001) %MON ke_mean                      =   4.6187575374024E-04
(PID.TID 0000.0001) %MON ke_vol                       =   1.3349970390232E+18
(PID.TID 0000.0001) %MON vort_r_min                   =  -3.7675193431408E-05
(PID.TID 0000.0001) %MON vort_r_max                   =   4.0204305048191E-05
(PID.TID 0000.0001) %MON vort_a_mean                  =  -1.9727864647440E-05
(PID.TID 0000.0001) %MON vort_a_sd                    =   7.4543230025371E-05
(PID.TID 0000.0001) %MON vort_p_mean                  =  -2.1760542763096E-05
(PID.TID 0000.0001) %MON vort_p_sd                    =   9.7245254479423E-05
(PID.TID 0000.0001) %MON surfExpan_theta_mean         =  -1.6918493731493E-06
(PID.TID 0000.0001) %MON surfExpan_salt_mean          =  -1.0997844957754E-07
(PID.TID 0000.0001) // =======================================================
(PID.TID 0000.0001) // End MONITOR dynamic field statistics
(PID.TID 0000.0001) // =======================================================
 cg2d: Sum(rhs),rhsMax =   7.37923914899297E+01  3.02666538631549E-01
 cg2d: Sum(rhs),rhsMax =   7.37106414861510E+01  3.02243866173120E-01
 cg2d: Sum(rhs),rhsMax =   7.36227512029006E+01  3.01759027022567E-01
 cg2d: Sum(rhs),rhsMax =   7.35277475994208E+01  3.01215809692972E-01
 cg2d: Sum(rhs),rhsMax =   7.34493068160127E+01  3.00619121498882E-01
 cg2d: Sum(rhs),rhsMax =   7.33791895257719E+01  2.99974775813341E-01
 cg2d: Sum(rhs),rhsMax =   7.33145910416290E+01  2.99289773767107E-01
 cg2d: Sum(rhs),rhsMax =   7.32427762518152E+01  2.98571770769536E-01
(PID.TID 0000.0001)      cg2d_init_res =   2.77803148322264E-01
(PID.TID 0000.0001)      cg2d_iters(min,last) =      -1      32
(PID.TID 0000.0001)      cg2d_last_res =   2.20607751131156E-05
(PID.TID 0000.0001) // =======================================================
(PID.TID 0000.0001) // Begin MONITOR dynamic field statistics
(PID.TID 0000.0001) // =======================================================
(PID.TID 0000.0001) %MON time_tsnumber                =                    96
(PID.TID 0000.0001) %MON time_secondsf                =   8.6400000000000E+04
(PID.TID 0000.0001) %MON dynstat_eta_max              =   1.0814892324315E+00
(PID.TID 0000.0001) %MON dynstat_eta_min              =  -2.8722325275596E+00
(PID.TID 0000.0001) %MON dynstat_eta_mean             =  -2.3169029347513E-03
(PID.TID 0000.0001) %MON dynstat_eta_sd               =   6.8550427652164E-01
(PID.TID 0000.0001) %MON dynstat_eta_del2             =   8.0188462752756E-05
(PID.TID 0000.0001) %MON dynstat_uvel_max             =   9.6628863752659E-01
(PID.TID 0000.0001) %MON dynstat_uvel_min             =  -1.2692535815486E+00
(PID.TID 0000.0001) %MON dynstat_uvel_mean            =   8.5498450777740E-04
(PID.TID 0000.0001) %MON dynstat_uvel_sd              =   2.0999680759145E-02
(PID.TID 0000.0001) %MON dynstat_uvel_del2            =   1.3091594653460E-05
(PID.TID 0000.0001) %MON dynstat_vvel_max             =   1.3487892432739E+00
(PID.TID 0000.0001) %MON dynstat_vvel_min             =  -9.0742562946362E-01
(PID.TID 0000.0001) %MON dynstat_vvel_mean            =   1.5101900831768E-03
(PID.TID 0000.0001) %MON dynstat_vvel_sd              =   2.2288559070587E-02
(PID.TID 0000.0001) %MON dynstat_vvel_del2            =   1.2738050998243E-05
(PID.TID 0000.0001) %MON dynstat_wvel_max             =   4.0784598626128E-03
(PID.TID 0000.0001) %MON dynstat_wvel_min             =  -1.9612988685042E-03
(PID.TID 0000.0001) %MON dynstat_wvel_mean            =   3.3907864370271E-08
(PID.TID 0000.0001) %MON dynstat_wvel_sd              =   3.0972101676498E-05
(PID.TID 0000.0001) %MON dynstat_wvel_del2            =   4.9576508357577E-08
(PID.TID 0000.0001) %MON dynstat_theta_max            =   3.2584776593852E+01
(PID.TID 0000.0001) %MON dynstat_theta_min            =  -2.0422559424107E+00
(PID.TID 0000.0001) %MON dynstat_theta_mean           =   3.5905114746963E+00
(PID.TID 0000.0001) %MON dynstat_theta_sd             =   4.4362230542775E+00
(PID.TID 0000.0001) %MON dynstat_theta_del2           =   1.0382650178875E-04
(PID.TID 0000.0001) %MON dynstat_salt_max             =   4.0711531079136E+01
(PID.TID 0000.0001) %MON dynstat_salt_min             =   1.8878547995671E+01
(PID.TID 0000.0001) %MON dynstat_salt_mean            =   3.4725610823532E+01
(PID.TID 0000.0001) %MON dynstat_salt_sd              =   3.7706128612181E-01
(PID.TID 0000.0001) %MON dynstat_salt_del2            =   2.5207976345288E-05
(PID.TID 0000.0001) %MON dynstat_sst_max              =   3.2540429828835E+01
(PID.TID 0000.0001) %MON dynstat_sst_min              =  -1.8751609511259E+00
(PID.TID 0000.0001) %MON dynstat_sst_mean             =   1.8488148468457E+01
(PID.TID 0000.0001) %MON dynstat_sst_sd               =   1.0117745005378E+01
(PID.TID 0000.0001) %MON dynstat_sst_del2             =   8.4854512609918E-04
(PID.TID 0000.0001) %MON dynstat_sss_max              =   3.9333536549304E+01
(PID.TID 0000.0001) %MON dynstat_sss_min              =   1.8878547995671E+01
(PID.TID 0000.0001) %MON dynstat_sss_mean             =   3.4688095518227E+01
(PID.TID 0000.0001) %MON dynstat_sss_sd               =   1.1266630347369E+00
(PID.TID 0000.0001) %MON dynstat_sss_del2             =   3.6439648504164E-04
(PID.TID 0000.0001) %MON forcing_qnet_max             =   1.4724687500000E+03
(PID.TID 0000.0001) %MON forcing_qnet_min             =  -9.0157226562500E+02
(PID.TID 0000.0001) %MON forcing_qnet_mean            =  -1.9646361387909E+01
(PID.TID 0000.0001) %MON forcing_qnet_sd              =   2.0038537177403E+02
(PID.TID 0000.0001) %MON forcing_qnet_del2            =   3.5363681807723E-01
(PID.TID 0000.0001) %MON forcing_qsw_max              =   0.0000000000000E+00
(PID.TID 0000.0001) %MON forcing_qsw_min              =  -1.0636220688572E+02
(PID.TID 0000.0001) %MON forcing_qsw_mean             =  -2.2164202860593E+01
(PID.TID 0000.0001) %MON forcing_qsw_sd               =   3.0620613258940E+01
(PID.TID 0000.0001) %MON forcing_qsw_del2             =   1.9343603177298E-02
(PID.TID 0000.0001) %MON forcing_empmr_max            =   1.3741048751399E-03
(PID.TID 0000.0001) %MON forcing_empmr_min            =  -5.7206219062209E-03
(PID.TID 0000.0001) %MON forcing_empmr_mean           =  -2.5973459629671E-06
(PID.TID 0000.0001) %MON forcing_empmr_sd             =   1.3135323349004E-04
(PID.TID 0000.0001) %MON forcing_empmr_del2           =   7.0684574585246E-07
(PID.TID 0000.0001) %MON forcing_fu_max               =   8.0678233504295E-01
(PID.TID 0000.0001) %MON forcing_fu_min               =  -1.2594709396362E+00
(PID.TID 0000.0001) %MON forcing_fu_mean              =   7.9972522193487E-03
(PID.TID 0000.0001) %MON forcing_fu_sd                =   1.0461075040849E-01
(PID.TID 0000.0001) %MON forcing_fu_del2              =   1.5158173996145E-04
(PID.TID 0000.0001) %MON forcing_fv_max               =   9.6230524778366E-01
(PID.TID 0000.0001) %MON forcing_fv_min               =  -1.1167135238648E+00
(PID.TID 0000.0001) %MON forcing_fv_mean              =  -9.8905764831342E-03
(PID.TID 0000.0001) %MON forcing_fv_sd                =   1.0905513044868E-01
(PID.TID 0000.0001) %MON forcing_fv_del2              =   1.4656163911475E-04
(PID.TID 0000.0001) %MON trAdv_CFL_u_max              =   2.3083473528839E-02
(PID.TID 0000.0001) %MON trAdv_CFL_v_max              =   2.4608867000313E-02
(PID.TID 0000.0001) %MON trAdv_CFL_w_max              =   1.2556119437402E-01
(PID.TID 0000.0001) %MON advcfl_uvel_max              =   2.2762961172095E-02
(PID.TID 0000.0001) %MON advcfl_vvel_max              =   2.3942228602565E-02
(PID.TID 0000.0001) %MON advcfl_wvel_max              =   1.3075145282657E-01
(PID.TID 0000.0001) %MON advcfl_W_hf_max              =   1.3799117974019E-01
(PID.TID 0000.0001) %MON pe_b_mean                    =   6.1813572790676E-04
(PID.TID 0000.0001) %MON ke_max                       =   1.0563628352255E+00
(PID.TID 0000.0001) %MON ke_mean                      =   4.5363806270433E-04
(PID.TID 0000.0001) %MON ke_vol                       =   1.3349970466426E+18
(PID.TID 0000.0001) %MON vort_r_min                   =  -3.6443038729506E-05
(PID.TID 0000.0001) %MON vort_r_max                   =   3.9505671039849E-05
(PID.TID 0000.0001) %MON vort_a_mean                  =  -1.9727864647440E-05
(PID.TID 0000.0001) %MON vort_a_sd                    =   7.4543177854187E-05
(PID.TID 0000.0001) %MON vort_p_mean                  =  -2.1760542378335E-05
(PID.TID 0000.0001) %MON vort_p_sd                    =   9.7245491703982E-05
(PID.TID 0000.0001) %MON surfExpan_theta_mean         =  -1.5301490735874E-06
(PID.TID 0000.0001) %MON surfExpan_salt_mean          =  -1.1236925945160E-07
(PID.TID 0000.0001) // =======================================================
(PID.TID 0000.0001) // End MONITOR dynamic field statistics
(PID.TID 0000.0001) // =======================================================
(PID.TID 0000.0001) %CHECKPOINT        96 0000000096
 cg2d: Sum(rhs),rhsMax =   7.31752745866816E+01  2.97829605193384E-01
(PID.TID 0000.0001) %CHECKPOINT        97 ckptA
