(PID.TID 0000.0001) 
(PID.TID 0000.0001) // ======================================================
(PID.TID 0000.0001) //                      MITgcm UV
(PID.TID 0000.0001) //                      =========
(PID.TID 0000.0001) // ======================================================
(PID.TID 0000.0001) // execution environment starting up...
(PID.TID 0000.0001) 
(PID.TID 0000.0001) // MITgcmUV version:  checkpoint67p
(PID.TID 0000.0001) // Build user:        estrobac
(PID.TID 0000.0001) // Build host:        r435i2n10
(PID.TID 0000.0001) // Build date:        Wed Mar 11 13:34:33 PDT 2020
(PID.TID 0000.0001) 
(PID.TID 0000.0001) // =======================================================
(PID.TID 0000.0001) // Execution Environment parameter file "eedata"
(PID.TID 0000.0001) // =======================================================
(PID.TID 0000.0001) ># Example "eedata" file
(PID.TID 0000.0001) ># Lines beginning "#" are comments
(PID.TID 0000.0001) ># nTx - No. threads per process in X
(PID.TID 0000.0001) ># nTy - No. threads per process in Y
(PID.TID 0000.0001) > &EEPARMS
(PID.TID 0000.0001) > useCubedSphereExchange=.TRUE.,
(PID.TID 0000.0001) > nTx=1,
(PID.TID 0000.0001) > nTy=1,
(PID.TID 0000.0001) >#debugMode=.TRUE.,
(PID.TID 0000.0001) > &
(PID.TID 0000.0001) ># Note: Some systems use & as the namelist terminator (as shown here).
(PID.TID 0000.0001) >#       Other systems use a / character.
(PID.TID 0000.0001) 
(PID.TID 0000.0001) // =======================================================
(PID.TID 0000.0001) // Computational Grid Specification ( see files "SIZE.h" )
(PID.TID 0000.0001) //                                  ( and "eedata"       )
(PID.TID 0000.0001) // =======================================================
(PID.TID 0000.0001)      nPx =   96 ; /* No. processes in X */
(PID.TID 0000.0001)      nPy =    1 ; /* No. processes in Y */
(PID.TID 0000.0001)      nSx =    1 ; /* No. tiles in X per process */
(PID.TID 0000.0001)      nSy =    1 ; /* No. tiles in Y per process */
(PID.TID 0000.0001)      sNx =   30 ; /* Tile size in X */
(PID.TID 0000.0001)      sNy =   30 ; /* Tile size in Y */
(PID.TID 0000.0001)      OLx =    4 ; /* Tile overlap distance in X */
(PID.TID 0000.0001)      OLy =    4 ; /* Tile overlap distance in Y */
(PID.TID 0000.0001)      nTx =    1 ; /* No. threads in X per process */
(PID.TID 0000.0001)      nTy =    1 ; /* No. threads in Y per process */
(PID.TID 0000.0001)       Nr =   50 ; /* No. levels in the vertical   */
(PID.TID 0000.0001)       Nx = 2880 ; /* Total domain size in X ( = nPx*nSx*sNx ) */
(PID.TID 0000.0001)       Ny =   30 ; /* Total domain size in Y ( = nPy*nSy*sNy ) */
(PID.TID 0000.0001)   nTiles =    1 ; /* Total no. tiles per process ( = nSx*nSy ) */
(PID.TID 0000.0001)   nProcs =   96 ; /* Total no. processes ( = nPx*nPy ) */
(PID.TID 0000.0001) nThreads =    1 ; /* Total no. threads per process ( = nTx*nTy ) */
(PID.TID 0000.0001) usingMPI =    T ; /* Flag used to control whether MPI is in use */
(PID.TID 0000.0001)                   /*  note: To execute a program with MPI calls */
(PID.TID 0000.0001)                   /*  it must be launched appropriately e.g     */
(PID.TID 0000.0001)                   /*  "mpirun -np 64 ......"                    */
(PID.TID 0000.0001) useCoupler=    F ;/* Flag used to control communications with   */
(PID.TID 0000.0001)                   /*  other model components, through a coupler */
(PID.TID 0000.0001) useNest2W_parent =    F ;/* Control 2-W Nesting comm */
(PID.TID 0000.0001) useNest2W_child  =    F ;/* Control 2-W Nesting comm */
(PID.TID 0000.0001) debugMode =    F ; /* print debug msg. (sequence of S/R calls)  */
(PID.TID 0000.0001) printMapIncludesZeros=    F ; /* print zeros in Std.Output maps */
(PID.TID 0000.0001) maxLengthPrt1D=   65 /* maxLength of 1D array printed to StdOut */
(PID.TID 0000.0001) 
(PID.TID 0000.0001) ======= Starting MPI parallel Run =========
(PID.TID 0000.0001)  My Processor Name (len:  9 ) = r435i2n10
(PID.TID 0000.0001)  Located at (  0,  0) on processor grid (0: 95,0:  0)
(PID.TID 0000.0001)  Origin at  (     1,     1) on global grid (1:  2880,1:    30)
(PID.TID 0000.0001)  North neighbor = processor 0000
(PID.TID 0000.0001)  South neighbor = processor 0000
(PID.TID 0000.0001)   East neighbor = processor 0001
(PID.TID 0000.0001)   West neighbor = processor 0095
(PID.TID 0000.0001) // ======================================================
(PID.TID 0000.0001) // Mapping of tiles to threads
(PID.TID 0000.0001) // ======================================================
(PID.TID 0000.0001) // -o- Thread   1, tiles (   1:   1,   1:   1)
(PID.TID 0000.0001) 
(PID.TID 0000.0001) W2_READPARMS: opening data.exch2
(PID.TID 0000.0001)  OPEN_COPY_DATA_FILE: opening file data.exch2
(PID.TID 0000.0001) // =======================================================
(PID.TID 0000.0001) // Parameter file "data.exch2"
(PID.TID 0000.0001) // =======================================================
(PID.TID 0000.0001) ># EXCH2 Package: Wrapper-2 User Choice
(PID.TID 0000.0001) >#--------------------
(PID.TID 0000.0001) >#  preDefTopol   :: pre-defined Topology selector:
(PID.TID 0000.0001) >#                :: = 0 : topology defined from processing "data.exch2";
(PID.TID 0000.0001) >#                :: = 1 : simple, single facet topology;
(PID.TID 0000.0001) >#                :: = 2 : customized topology (w2_set_myown_facets)
(PID.TID 0000.0001) >#                :: = 3 : 6-facet Cube (3 face-dims: nRed, nGreen, nBlue).
(PID.TID 0000.0001) >#  dimsFacets    :: facet pair of dimensions (n1x,n1y, n2x,n2y ...)
(PID.TID 0000.0001) >#  facetEdgeLink :: Face-Edge connectivity map:
(PID.TID 0000.0001) >#    facetEdgeLink(i,j)=XX.1 : face(j)-edge(i) (i=1,2,3,4 <==> N,S,E,W)
(PID.TID 0000.0001) >#    is connected to Northern edge of face "XX" ; similarly,
(PID.TID 0000.0001) >#    = XX.2 : to Southern.E, XX.3 = Eastern.E, XX.4 = Western.E of face "XX"
(PID.TID 0000.0001) >#  blankList     :: List of "blank" tiles
(PID.TID 0000.0001) >#  W2_mapIO      :: global map IO selector (-1 = old type ; 0 = 1 long line in X
(PID.TID 0000.0001) >#                :: 1 = compact, mostly in Y dir)
(PID.TID 0000.0001) >#  W2_printMsg   :: option for information messages printing
(PID.TID 0000.0001) >#                :: <0 : write to log file ; =0 : minimum print ;
(PID.TID 0000.0001) >#                :: =1 : no duplicated print ; =2 : all processes do print
(PID.TID 0000.0001) >#--------------------
(PID.TID 0000.0001) > &W2_EXCH2_PARM01
(PID.TID 0000.0001) ># W2_printMsg= 0,
(PID.TID 0000.0001) >  W2_mapIO   = 1,
(PID.TID 0000.0001) >#
(PID.TID 0000.0001) >  preDefTopol=0,
(PID.TID 0000.0001) >#-- 5 facets llc_120 topology (drop facet 6 and its connection):
(PID.TID 0000.0001) >  dimsFacets(1:10) = 90, 270, 90, 270, 90, 90, 270, 90, 270, 90,
(PID.TID 0000.0001) >  facetEdgeLink(1:4,1)= 3.4, 0. , 2.4, 5.1,
(PID.TID 0000.0001) >  facetEdgeLink(1:4,2)= 3.2, 0. , 4.2, 1.3,
(PID.TID 0000.0001) >  facetEdgeLink(1:4,3)= 5.4, 2.1, 4.4, 1.1,
(PID.TID 0000.0001) >  facetEdgeLink(1:4,4)= 5.2, 2.3, 0. , 3.3,
(PID.TID 0000.0001) >  facetEdgeLink(1:4,5)= 1.4, 4.1, 0. , 3.1,
(PID.TID 0000.0001) >#-- full 6 facets llc_120 topology (equivalent to default preDefTopol=3):
(PID.TID 0000.0001) ># dimsFacets(1:12) = 120, 360, 120, 360, 120, 120, 360, 120, 360, 120, 120, 120,
(PID.TID 0000.0001) ># facetEdgeLink(1:4,1)= 3.4, 6.1, 2.4, 5.1,
(PID.TID 0000.0001) ># facetEdgeLink(1:4,2)= 3.2, 6.3, 4.2, 1.3,
(PID.TID 0000.0001) ># facetEdgeLink(1:4,3)= 5.4, 2.1, 4.4, 1.1,
(PID.TID 0000.0001) ># facetEdgeLink(1:4,4)= 5.2, 2.3, 6.2, 3.3,
(PID.TID 0000.0001) ># facetEdgeLink(1:4,5)= 1.4, 4.1, 6.4, 3.1,
(PID.TID 0000.0001) ># facetEdgeLink(1:4,6)= 1.2, 4.3, 2.2, 5.3,
(PID.TID 0000.0001) >#
(PID.TID 0000.0001) >#90x30   nprocs = 36
(PID.TID 0000.0001) ># blankList(1:3)=1,10,11,
(PID.TID 0000.0001) >#30x90
(PID.TID 0000.0001) >#
(PID.TID 0000.0001) >#45x30   nprocs = 72
(PID.TID 0000.0001) ># blankList(1:6)=1,2,19,20,21,22
(PID.TID 0000.0001) >#30x45   nprocs = 68
(PID.TID 0000.0001) ># blankList(1:10)=2,3,19,20,21,35,51,60,69,78
(PID.TID 0000.0001) >#45x45   nprocs = 48
(PID.TID 0000.0001) ># blankList(1:4)=2,13,14,23
(PID.TID 0000.0001) >#30x30   nprocs = 96
(PID.TID 0000.0001) >  blankList(1:21)=1,2,3,5,6,28,29,30,31,32,33,49,50,52,53,72,81,90,99,108,117
(PID.TID 0000.0001) >#30x30   nprocs = 112
(PID.TID 0000.0001) ># blankList(1:5)=2,3,28,29,30
(PID.TID 0000.0001) >#15x30   nprocs = 192
(PID.TID 0000.0001) ># blankList(1:42)=1,2,3,4,5,6,9,10,11,12,55,56,57,58,59,60,61,62,63,64,65,66,
(PID.TID 0000.0001) >#            97,98,99,100,103,104,105,106,143,144,
(PID.TID 0000.0001) >#            161,162,179,180,197,198,215,216,233,234
(PID.TID 0000.0001) >#15x15   nprocs = 360
(PID.TID 0000.0001) ># blankList(1:108)=1,2,3,4,5,6,7,8,9,10,11,12,14,15,16,17,18,21,22,23,24,
(PID.TID 0000.0001) >#  65,71,75,76,90,95,96,101,102,109,110,111,112,113,114,115,116,117,118,119,
(PID.TID 0000.0001) >#  120,121,122,123,124,125,126,127,128,129,130,131,132,
(PID.TID 0000.0001) >#  188,189,190,193,194,195,196,199,
(PID.TID 0000.0001) >#  200,201,202,203,205,206,207,208,209,211,212,213,214,215,216,242,247,253,
(PID.TID 0000.0001) >#  267,268,269,270,287,288,305,306,323,324,341,342,359,360,362,376,377,378,
(PID.TID 0000.0001) >#  380,381,382,395,396,400,412,413,414,430,
(PID.TID 0000.0001) >#note: it seems that 8 of the followig 9 tiles could be added to 15x15 blank
(PID.TID 0000.0001) >#  list to reach 352=22*16 cores : 431 432 440 441 448 449 450 467 468
(PID.TID 0000.0001) > &
(PID.TID 0000.0001) 
(PID.TID 0000.0001) W2_READPARMS: finished reading data.exch2
(PID.TID 0000.0001) W2_useE2ioLayOut=    T ;/* T: use Exch2 glob IO map; F: use model default */
(PID.TID 0000.0001) W2_mapIO        =   1 ; /* select option for Exch2 global-IO map */
(PID.TID 0000.0001) W2_printMsg     =  -1 ; /* select option for printing information */
(PID.TID 0000.0001) ===== Start setting W2 TOPOLOGY:
(PID.TID 0000.0001)  write to log-file: w2_tile_topology.0000.log
(PID.TID 0000.0001) =====       setting W2 TOPOLOGY: Done
(PID.TID 0000.0001) 
(PID.TID 0000.0001)  INI_PARMS: opening model parameter file "data"
(PID.TID 0000.0001)  OPEN_COPY_DATA_FILE: opening file data
(PID.TID 0000.0001) // =======================================================
(PID.TID 0000.0001) // Parameter file "data"
(PID.TID 0000.0001) // =======================================================
(PID.TID 0000.0001) ># ====================
(PID.TID 0000.0001) ># | Model parameters |
(PID.TID 0000.0001) ># ====================
(PID.TID 0000.0001) >#
(PID.TID 0000.0001) ># Continuous equation parameters
(PID.TID 0000.0001) > &PARM01
(PID.TID 0000.0001) > tRef               = 3*23.,3*22.,21.,2*20.,19.,2*18.,17.,2*16.,15.,14.,13.,
(PID.TID 0000.0001) >                      12.,11.,2*9.,8.,7.,2*6.,2*5.,3*4.,3*3.,4*2.,12*1.,
(PID.TID 0000.0001) > sRef               = 50*34.5,
(PID.TID 0000.0001) > no_slip_sides  = .TRUE.,
(PID.TID 0000.0001) > no_slip_bottom = .TRUE.,
(PID.TID 0000.0001) >#
(PID.TID 0000.0001) > viscAr=0.5E-4,
(PID.TID 0000.0001) >#
(PID.TID 0000.0001) > viscAh=1.E0,
(PID.TID 0000.0001) > viscAhGrid=2.E-2,
(PID.TID 0000.0001) ># viscAh=2.0e4,
(PID.TID 0000.0001) >#
(PID.TID 0000.0001) > diffKhT=1.E1,
(PID.TID 0000.0001) > diffKrT=1.E-5,
(PID.TID 0000.0001) > diffKhS=1.E1,
(PID.TID 0000.0001) > diffKrS=1.E-5,
(PID.TID 0000.0001) >#
(PID.TID 0000.0001) >### diffKrBL79surf=0.1E-4,
(PID.TID 0000.0001) >### diffKrBL79deep=1.0E-4,
(PID.TID 0000.0001) > bottomDragQuadratic = 0.001,
(PID.TID 0000.0001) >#when using ggl90
(PID.TID 0000.0001) > ivdc_kappa=10.,
(PID.TID 0000.0001) > implicitDiffusion=.TRUE.,
(PID.TID 0000.0001) > implicitViscosity=.TRUE.,
(PID.TID 0000.0001) > useRealFreshWaterFlux=.TRUE.,
(PID.TID 0000.0001) ># balanceThetaClimRelax=.TRUE.,
(PID.TID 0000.0001) > balanceSaltClimRelax=.TRUE.,
(PID.TID 0000.0001) ># balanceEmPmR=.TRUE.,
(PID.TID 0000.0001) ># balanceQnet=.TRUE.,
(PID.TID 0000.0001) > allowFreezing=.FALSE.,
(PID.TID 0000.0001) >### hFacInf=0.2,
(PID.TID 0000.0001) >### hFacSup=2.0,
(PID.TID 0000.0001) > hFacMin=.2,
(PID.TID 0000.0001) > hFacMinDr=5.,
(PID.TID 0000.0001) > select_rStar=2,
(PID.TID 0000.0001) > nonlinFreeSurf=4,
(PID.TID 0000.0001) > gravity=9.81,
(PID.TID 0000.0001) > rhonil=1029.,
(PID.TID 0000.0001) > rhoConst=1029.,
(PID.TID 0000.0001) > rhoConstFresh=1000.,
(PID.TID 0000.0001) > convertFW2Salt=-1.,
(PID.TID 0000.0001) > eosType='JMD95Z',
(PID.TID 0000.0001) > implicitFreeSurface=.TRUE.,
(PID.TID 0000.0001) > exactConserv=.TRUE.,
(PID.TID 0000.0001) > useSingleCpuIO=.TRUE.,
(PID.TID 0000.0001) > tempAdvScheme=30,
(PID.TID 0000.0001) > saltAdvScheme=30,
(PID.TID 0000.0001) > tempVertAdvScheme=3,
(PID.TID 0000.0001) > saltVertAdvScheme=3,
(PID.TID 0000.0001) > tempImplVertAdv=.TRUE.,
(PID.TID 0000.0001) > saltImplVertAdv=.TRUE.,
(PID.TID 0000.0001) > staggerTimeStep=.TRUE.,
(PID.TID 0000.0001) > vectorInvariantMomentum=.TRUE.,
(PID.TID 0000.0001) >#when using the cd scheme:
(PID.TID 0000.0001) ># useCDscheme=.TRUE.,
(PID.TID 0000.0001) > useJamartWetPoints=.TRUE.,
(PID.TID 0000.0001) > readBinaryPrec=32,
(PID.TID 0000.0001) > writeBinaryPrec=32,
(PID.TID 0000.0001) > debugLevel=1,
(PID.TID 0000.0001) > &
(PID.TID 0000.0001) >
(PID.TID 0000.0001) ># Elliptic solver parameters
(PID.TID 0000.0001) > &PARM02
(PID.TID 0000.0001) > cg2dMaxIters=300,
(PID.TID 0000.0001) > cg2dTargetResWunit=1.E-12,
(PID.TID 0000.0001) > &
(PID.TID 0000.0001) >
(PID.TID 0000.0001) ># Time stepping parameters
(PID.TID 0000.0001) > &PARM03
(PID.TID 0000.0001) > nIter0=1,
(PID.TID 0000.0001) >#2 lev2 for testing:
(PID.TID 0000.0001) >#nTimeSteps       = 96,
(PID.TID 0000.0001) >#20y:
(PID.TID 0000.0001) > nTimeSteps       = 96,
(PID.TID 0000.0001) >#60 years
(PID.TID 0000.0001) >#nTimeSteps       = 96,
(PID.TID 0000.0001) >#
(PID.TID 0000.0001) > forcing_In_AB=.FALSE.,
(PID.TID 0000.0001) > momDissip_In_AB=.FALSE.,
(PID.TID 0000.0001) >#when using the cd scheme:
(PID.TID 0000.0001) ># epsAB_CD = 0.25,
(PID.TID 0000.0001) ># tauCD=172800.0,
(PID.TID 0000.0001) > deltaT = 900.,
(PID.TID 0000.0001) >#when using ab2:
(PID.TID 0000.0001) > abEps = 0.1,
(PID.TID 0000.0001) >#when using ab3:
(PID.TID 0000.0001) ># doAB_onGtGs=.FALSE.,
(PID.TID 0000.0001) ># alph_AB=0.5,
(PID.TID 0000.0001) ># beta_AB=0.281105,
(PID.TID 0000.0001) >#
(PID.TID 0000.0001) > pChkptFreq        = 86400.0,
(PID.TID 0000.0001) > chkptFreq        = 86400.0,
(PID.TID 0000.0001) ># taveFreq    =31536000.0,
(PID.TID 0000.0001) ># dumpFreq    =31536000.0,
(PID.TID 0000.0001) > monitorFreq = 7200.0,
(PID.TID 0000.0001) > dumpInitAndLast = .TRUE.,
(PID.TID 0000.0001) > pickupStrictlyMatch=.FALSE.,
(PID.TID 0000.0001) > &
(PID.TID 0000.0001) >
(PID.TID 0000.0001) ># Gridding parameters
(PID.TID 0000.0001) > &PARM04
(PID.TID 0000.0001) > usingCurvilinearGrid=.TRUE.,
(PID.TID 0000.0001) > delR =
(PID.TID 0000.0001) >     10.00, 10.00, 10.00, 10.00, 10.00, 10.00, 10.00, 10.01,
(PID.TID 0000.0001) >     10.03, 10.11, 10.32, 10.80, 11.76, 13.42, 16.04, 19.82, 24.85,
(PID.TID 0000.0001) >     31.10, 38.42, 46.50, 55.00, 63.50, 71.58, 78.90, 85.15, 90.18,
(PID.TID 0000.0001) >     93.96, 96.58, 98.25, 99.25,100.01,101.33,104.56,111.33,122.83,
(PID.TID 0000.0001) >     139.09,158.94,180.83,203.55,226.50,249.50,272.50,295.50,318.50,
(PID.TID 0000.0001) >     341.50,364.50,387.50,410.50,433.50,456.50,
(PID.TID 0000.0001) > &
(PID.TID 0000.0001) >
(PID.TID 0000.0001) ># Input datasets
(PID.TID 0000.0001) > &PARM05
(PID.TID 0000.0001) >#adTapeDir='tapes',
(PID.TID 0000.0001) > bathyFile      ='bathy.bin',
(PID.TID 0000.0001) > hydrogThetaFile='T_OWPv1_M_eccollc_90x50.bin',
(PID.TID 0000.0001) > hydrogSaltFile ='S_OWPv1_M_eccollc_90x50.bin',
(PID.TID 0000.0001) > viscA4Dfile    ='viscA4Dfld.bin',
(PID.TID 0000.0001) > viscA4Zfile    ='viscA4Zfld.bin',
(PID.TID 0000.0001) > geothermalFile='geothermalFlux.bin',
(PID.TID 0000.0001) >#
(PID.TID 0000.0001) > &
(PID.TID 0000.0001) 
(PID.TID 0000.0001)  INI_PARMS ; starts to read PARM01
(PID.TID 0000.0001)  INI_PARMS ; read PARM01 : OK
(PID.TID 0000.0001)  INI_PARMS ; starts to read PARM02
(PID.TID 0000.0001)  INI_PARMS ; read PARM02 : OK
(PID.TID 0000.0001)  INI_PARMS ; starts to read PARM03
(PID.TID 0000.0001)  INI_PARMS ; read PARM03 : OK
(PID.TID 0000.0001)  INI_PARMS ; starts to read PARM04
(PID.TID 0000.0001)  INI_PARMS ; read PARM04 : OK
(PID.TID 0000.0001)  INI_PARMS ; starts to read PARM05
(PID.TID 0000.0001)  INI_PARMS ; read PARM05 : OK
(PID.TID 0000.0001)  INI_PARMS: finished reading file "data"
(PID.TID 0000.0001)  PACKAGES_BOOT: opening data.pkg
(PID.TID 0000.0001)  OPEN_COPY_DATA_FILE: opening file data.pkg
(PID.TID 0000.0001) // =======================================================
(PID.TID 0000.0001) // Parameter file "data.pkg"
(PID.TID 0000.0001) // =======================================================
(PID.TID 0000.0001) ># Packages
(PID.TID 0000.0001) > &PACKAGES
(PID.TID 0000.0001) > useGMRedi          = .TRUE.,
(PID.TID 0000.0001) > useGGL90           = .TRUE.,
(PID.TID 0000.0001) > useSALT_PLUME      = .TRUE.,
(PID.TID 0000.0001) > useDiagnostics     = .TRUE.,
(PID.TID 0000.0001) > useCTRL            = .TRUE.,
(PID.TID 0000.0001) > useSEAICE          = .TRUE.,
(PID.TID 0000.0001) > &
(PID.TID 0000.0001) 
(PID.TID 0000.0001)  PACKAGES_BOOT: finished reading data.pkg
(PID.TID 0000.0001)  PACKAGES_BOOT: On/Off package Summary
 --------  pkgs with a standard "usePKG" On/Off switch in "data.pkg":  --------
 pkg/ggl90                compiled   and   used ( useGGL90                 = T )
 pkg/gmredi               compiled   and   used ( useGMRedi                = T )
 pkg/ctrl                 compiled   and   used ( useCTRL                  = T )
 pkg/seaice               compiled   and   used ( useSEAICE                = T )
 pkg/salt_plume           compiled   and   used ( useSALT_PLUME            = T )
 pkg/diagnostics          compiled   and   used ( useDiagnostics           = T )
 -------- pkgs without standard "usePKG" On/Off switch in "data.pkg":  --------
 pkg/generic_advdiff      compiled   and   used ( useGAD                   = T )
 pkg/mom_common           compiled   and   used ( momStepping              = T )
 pkg/mom_vecinv           compiled   and   used ( +vectorInvariantMomentum = T )
 pkg/monitor              compiled   and   used ( monitorFreq > 0.         = T )
 pkg/debug                compiled but not used ( debugMode                = F )
 pkg/exch2                compiled   and   used
 pkg/rw                   compiled   and   used
 pkg/mdsio                compiled   and   used
(PID.TID 0000.0001)  PACKAGES_BOOT: End of package Summary
(PID.TID 0000.0001) 
(PID.TID 0000.0001)  GGL90_READPARMS: opening data.ggl90
(PID.TID 0000.0001)  OPEN_COPY_DATA_FILE: opening file data.ggl90
(PID.TID 0000.0001) // =======================================================
(PID.TID 0000.0001) // Parameter file "data.ggl90"
(PID.TID 0000.0001) // =======================================================
(PID.TID 0000.0001) ># =====================================================================
(PID.TID 0000.0001) ># | Parameters for Gaspar et al. (1990)'s TKE vertical mixing scheme  |
(PID.TID 0000.0001) ># =====================================================================
(PID.TID 0000.0001) > &GGL90_PARM01
(PID.TID 0000.0001) ># GGL90taveFreq = 345600000.,
(PID.TID 0000.0001) ># GGL90dumpFreq = 86400.,
(PID.TID 0000.0001) ># GGL90writeState=.FALSE.,
(PID.TID 0000.0001) ># GGL90diffTKEh=3.e3,
(PID.TID 0000.0001) > GGL90alpha=30.,
(PID.TID 0000.0001) ># GGL90TKEFile = 'TKE_init.bin',
(PID.TID 0000.0001) > GGL90TKEmin  = 1.e-7,
(PID.TID 0000.0001) > GGL90TKEbottom = 1.e-6,
(PID.TID 0000.0001) > mxlMaxFlag =2,
(PID.TID 0000.0001) > mxlSurfFlag=.TRUE.,
(PID.TID 0000.0001) > &
(PID.TID 0000.0001) 
(PID.TID 0000.0001)  GGL90_READPARMS ; starts to read GGL90_PARM01
(PID.TID 0000.0001)  GGL90_READPARMS: read GGL90_PARM01 : OK
(PID.TID 0000.0001)  GGL90_READPARMS: finished reading data.ggl90
(PID.TID 0000.0001) // =======================================================
(PID.TID 0000.0001) // GGL90 configuration
(PID.TID 0000.0001) // =======================================================
(PID.TID 0000.0001) GGL90dumpFreq =   /* GGL90 state write out interval ( s ). */
(PID.TID 0000.0001)                 0.000000000000000E+00
(PID.TID 0000.0001)     ;
(PID.TID 0000.0001) GGL90taveFreq =   /* GGL90 averaging interval ( s ). */
(PID.TID 0000.0001)                 0.000000000000000E+00
(PID.TID 0000.0001)     ;
(PID.TID 0000.0001) GGL90mixingMAPS =   /* GGL90 IO flag. */
(PID.TID 0000.0001)                   F
(PID.TID 0000.0001)     ;
(PID.TID 0000.0001) GGL90writeState =   /* GGL90 IO flag. */
(PID.TID 0000.0001)                   F
(PID.TID 0000.0001)     ;
(PID.TID 0000.0001) GGL90ck =   /* GGL90 viscosity parameter. */
(PID.TID 0000.0001)                 1.000000000000000E-01
(PID.TID 0000.0001)     ;
(PID.TID 0000.0001) GGL90ceps =   /* GGL90 dissipation parameter. */
(PID.TID 0000.0001)                 7.000000000000000E-01
(PID.TID 0000.0001)     ;
(PID.TID 0000.0001) GGL90alpha =   /* GGL90 TKE diffusivity parameter. */
(PID.TID 0000.0001)                 3.000000000000000E+01
(PID.TID 0000.0001)     ;
(PID.TID 0000.0001) GGL90m2 =   /* GGL90 wind stress to vertical stress ratio. */
(PID.TID 0000.0001)                 3.750000000000000E+00
(PID.TID 0000.0001)     ;
(PID.TID 0000.0001) GGL90TKEmin =   /* GGL90 minimum kinetic energy ( m^2/s^2 ). */
(PID.TID 0000.0001)                 1.000000000000000E-07
(PID.TID 0000.0001)     ;
(PID.TID 0000.0001) GGL90TKEsurfMin =   /* GGL90 minimum surface kinetic energy ( m^2/s^2 ). */
(PID.TID 0000.0001)                 1.000000000000000E-04
(PID.TID 0000.0001)     ;
(PID.TID 0000.0001) GGL90TKEbottom =   /* GGL90 bottom kinetic energy ( m^2/s^2 ). */
(PID.TID 0000.0001)                 1.000000000000000E-06
(PID.TID 0000.0001)     ;
(PID.TID 0000.0001) GGL90viscMax =   /* GGL90 upper limit for viscosity ( m^2/s ). */
(PID.TID 0000.0001)                 1.000000000000000E+02
(PID.TID 0000.0001)     ;
(PID.TID 0000.0001) GGL90diffMax =   /* GGL90 upper limit for diffusivity ( m^2/s ). */
(PID.TID 0000.0001)                 1.000000000000000E+02
(PID.TID 0000.0001)     ;
(PID.TID 0000.0001) GGL90diffTKEh =   /* GGL90 horizontal diffusivity for TKE ( m^2/s ). */
(PID.TID 0000.0001)                 0.000000000000000E+00
(PID.TID 0000.0001)     ;
(PID.TID 0000.0001) GGL90mixingLengthMin =   /* GGL90 minimum mixing length ( m ). */
(PID.TID 0000.0001)                 1.000000000000000E-08
(PID.TID 0000.0001)     ;
(PID.TID 0000.0001) mxlMaxFlag =   /* Flag for limiting mixing-length method */
(PID.TID 0000.0001)                       2
(PID.TID 0000.0001)     ;
(PID.TID 0000.0001) mxlSurfFlag =   /* GGL90 flag for near surface mixing. */
(PID.TID 0000.0001)                   T
(PID.TID 0000.0001)     ;
(PID.TID 0000.0001) calcMeanVertShear = /* calc Mean of Vert.Shear (vs shear of Mean flow) */
(PID.TID 0000.0001)                   F
(PID.TID 0000.0001)     ;
(PID.TID 0000.0001) GGL90: GGL90TKEFile =
(PID.TID 0000.0001) GGL90writeState =   /* GGL90 Boundary condition flag. */
(PID.TID 0000.0001)                   T
(PID.TID 0000.0001)     ;
(PID.TID 0000.0001) // =======================================================
(PID.TID 0000.0001) // End of GGL90 config. summary
(PID.TID 0000.0001) // =======================================================
(PID.TID 0000.0001) 
(PID.TID 0000.0001)  GM_READPARMS: opening data.gmredi
(PID.TID 0000.0001)  OPEN_COPY_DATA_FILE: opening file data.gmredi
(PID.TID 0000.0001) // =======================================================
(PID.TID 0000.0001) // Parameter file "data.gmredi"
(PID.TID 0000.0001) // =======================================================
(PID.TID 0000.0001) ># GM+Redi package parameters:
(PID.TID 0000.0001) >#     GM_Small_Number  :: epsilon used in computing the slope
(PID.TID 0000.0001) >#     GM_slopeSqCutoff :: slope^2 cut-off value
(PID.TID 0000.0001) >
(PID.TID 0000.0001) >#-from MOM :
(PID.TID 0000.0001) ># GM_background_K: 	G & Mc.W  diffusion coefficient
(PID.TID 0000.0001) ># GM_maxSlope    :	max slope of isopycnals
(PID.TID 0000.0001) ># GM_Scrit       :	transition for scaling diffusion coefficient
(PID.TID 0000.0001) ># GM_Sd          :	half width scaling for diffusion coefficient
(PID.TID 0000.0001) ># GM_taper_scheme:	slope clipping or one of the tapering schemes
(PID.TID 0000.0001) ># GM_Kmin_horiz  :	horizontal diffusion minimum value
(PID.TID 0000.0001) >
(PID.TID 0000.0001) >#-Option parameters (needs to "define" options in GMREDI_OPTIONS.h")
(PID.TID 0000.0001) ># GM_isopycK     :	isopycnal diffusion coefficient (default=GM_background_K)
(PID.TID 0000.0001) ># GM_AdvForm     :	turn on GM Advective form       (default=Skew flux form)
(PID.TID 0000.0001) >
(PID.TID 0000.0001) > &GM_PARM01
(PID.TID 0000.0001) >  GM_Small_Number  = 1.D-20,
(PID.TID 0000.0001) >  GM_slopeSqCutoff = 1.D+08,
(PID.TID 0000.0001) >  GM_AdvForm         = .TRUE.,
(PID.TID 0000.0001) >  GM_isopycK         = 1.D+3,
(PID.TID 0000.0001) >  GM_background_K    = 1.D+3,
(PID.TID 0000.0001) >  GM_maxSlope        = 4.D-3,
(PID.TID 0000.0001) >  GM_taper_scheme    = 'stableGmAdjTap',
(PID.TID 0000.0001) >  GM_Kmin_horiz      = 100.,
(PID.TID 0000.0001) >  GM_Scrit           = 4.D-3,
(PID.TID 0000.0001) >  GM_Sd              = 1.D-3,
(PID.TID 0000.0001) >#
(PID.TID 0000.0001) >###  GM_Visbeck_alpha   = 1.5D-2,
(PID.TID 0000.0001) >###  GM_Visbeck_alpha   = 0.D0,
(PID.TID 0000.0001) >###  GM_Visbeck_length  = 2.D+5,
(PID.TID 0000.0001) >###  GM_Visbeck_depth   = 1.D+3,
(PID.TID 0000.0001) >###  GM_Visbeck_maxval_K= 2.5D+3,
(PID.TID 0000.0001) > &
(PID.TID 0000.0001) >
(PID.TID 0000.0001) >
(PID.TID 0000.0001) 
(PID.TID 0000.0001)  GM_READPARMS: finished reading data.gmredi
(PID.TID 0000.0001) 
(PID.TID 0000.0001)  SEAICE_READPARMS: opening data.seaice
(PID.TID 0000.0001)  OPEN_COPY_DATA_FILE: opening file data.seaice
(PID.TID 0000.0001) // =======================================================
(PID.TID 0000.0001) // Parameter file "data.seaice"
(PID.TID 0000.0001) // =======================================================
(PID.TID 0000.0001) ># SEAICE parameters
(PID.TID 0000.0001) > &SEAICE_PARM01
(PID.TID 0000.0001) > usePW79thermodynamics= .FALSE.,
(PID.TID 0000.0001) ># SEAICEuseDYNAMICS = .FALSE.,
(PID.TID 0000.0001) ># SEAICEupdateOceanStress=.FALSE.,
(PID.TID 0000.0001) ># SEAICEadvHeff  = .FALSE.,
(PID.TID 0000.0001) ># SEAICEadvArea  = .FALSE.,
(PID.TID 0000.0001) ># SEAICEadvSnow  = .FALSE.,
(PID.TID 0000.0001) ># SEAICEadvSalt  = .FALSE.,
(PID.TID 0000.0001) >#--
(PID.TID 0000.0001) > SEAICE_strength    = 2.6780e+04,
(PID.TID 0000.0001) > OCEAN_drag         = 8.1541e-04,
(PID.TID 0000.0001) ># SEAICE_waterDrag   = 5.3508,
(PID.TID 0000.0001) >#- waterDrag no longer includes rhoConst factor:
(PID.TID 0000.0001) ># SEAICE_waterDrag   = 5.16985507246376811E-3,
(PID.TID 0000.0001) >  SEAICE_waterDrag   = 5.169855072463768E-3,
(PID.TID 0000.0001) >#- old defaults
(PID.TID 0000.0001) >  SEAICEscaleSurfStress = .FALSE.,
(PID.TID 0000.0001) >  SEAICEaddSnowMass     = .FALSE.,
(PID.TID 0000.0001) >  SEAICE_useMultDimSnow = .FALSE.,
(PID.TID 0000.0001) >  SEAICE_Olx = 0,
(PID.TID 0000.0001) >  SEAICE_Oly = 0,
(PID.TID 0000.0001) >  SEAICEetaZmethod = 0,
(PID.TID 0000.0001) >  SEAICE_drag = 2.E-3,
(PID.TID 0000.0001) >#--
(PID.TID 0000.0001) > SEAICE_no_Slip     = .FALSE.,
(PID.TID 0000.0001) > LSR_ERROR          = 1.E-4,
(PID.TID 0000.0001) > SEAICElinearIterMax=  500,
(PID.TID 0000.0001) >#LSR_mixIniGuess    = 1,
(PID.TID 0000.0001) > SEAICEadvScheme    = 77,
(PID.TID 0000.0001) > SEAICEwriteState   = .TRUE.,
(PID.TID 0000.0001) >#SEAICE_monFreq = 1800.,
(PID.TID 0000.0001) ># AreaFile  = 'const100.bin',
(PID.TID 0000.0001) ># HeffFile  = 'const+20.bin',
(PID.TID 0000.0001) ># HsnowFile = 'const_00.bin',
(PID.TID 0000.0001) > &
(PID.TID 0000.0001) >
(PID.TID 0000.0001) > &SEAICE_PARM03
(PID.TID 0000.0001) > &
(PID.TID 0000.0001) 
(PID.TID 0000.0001)  SEAICE_READPARMS: finished reading data.seaice
(PID.TID 0000.0001) SALT_PLUME_READPARMS: opening data.salt_plume
(PID.TID 0000.0001)  OPEN_COPY_DATA_FILE: opening file data.salt_plume
(PID.TID 0000.0001) // =======================================================
(PID.TID 0000.0001) // Parameter file "data.salt_plume"
(PID.TID 0000.0001) // =======================================================
(PID.TID 0000.0001) > &SALT_PLUME_PARM01
(PID.TID 0000.0001) > SPsalFRAC= 0.5D0,
(PID.TID 0000.0001) > &
(PID.TID 0000.0001) 
(PID.TID 0000.0001) SALT_PLUME_READPARMS: finished reading data.salt_plume
(PID.TID 0000.0001) OPTIM_READPARMS: opening data.optim
(PID.TID 0000.0001)  OPEN_COPY_DATA_FILE: opening file data.optim
(PID.TID 0000.0001) // =======================================================
(PID.TID 0000.0001) // Parameter file "data.optim"
(PID.TID 0000.0001) // =======================================================
(PID.TID 0000.0001) >#
(PID.TID 0000.0001) ># ********************************
(PID.TID 0000.0001) ># Off-line optimization parameters
(PID.TID 0000.0001) ># ********************************
(PID.TID 0000.0001) > &OPTIM
(PID.TID 0000.0001) > optimcycle=12,
(PID.TID 0000.0001) > &
(PID.TID 0000.0001) 
(PID.TID 0000.0001) OPTIM_READPARMS: finished reading data.optim
(PID.TID 0000.0001) CTRL_READPARMS: opening data.ctrl
(PID.TID 0000.0001)  OPEN_COPY_DATA_FILE: opening file data.ctrl
(PID.TID 0000.0001) // =======================================================
(PID.TID 0000.0001) // Parameter file "data.ctrl"
(PID.TID 0000.0001) // =======================================================
(PID.TID 0000.0001) ># *********************
(PID.TID 0000.0001) ># ECCO control variables
(PID.TID 0000.0001) ># *********************
(PID.TID 0000.0001) > &ctrl_nml
(PID.TID 0000.0001) > doSinglePrecTapelev=.TRUE.,
(PID.TID 0000.0001) >#to start from given xx*00.data files
(PID.TID 0000.0001) >  doinitxx = .FALSE.,
(PID.TID 0000.0001) >  doMainUnpack = .FALSE.,
(PID.TID 0000.0001) >#to start from given ecco_ctrl... files
(PID.TID 0000.0001) ># doinitxx = .FALSE.,
(PID.TID 0000.0001) > &
(PID.TID 0000.0001) >#
(PID.TID 0000.0001) ># *********************
(PID.TID 0000.0001) ># names for ctrl_pack/unpack
(PID.TID 0000.0001) ># *********************
(PID.TID 0000.0001) > &ctrl_packnames
(PID.TID 0000.0001) > &
(PID.TID 0000.0001) >#
(PID.TID 0000.0001) ># *********************
(PID.TID 0000.0001) ># names for CTRL_GENARR2D,3D CTRL_GENTIM2D
(PID.TID 0000.0001) ># *********************
(PID.TID 0000.0001) > &CTRL_NML_GENARR
(PID.TID 0000.0001) >#
(PID.TID 0000.0001) > xx_genarr3d_weight(1) = 'wt_ones.data',
(PID.TID 0000.0001) > xx_genarr3d_file(1)='xx_kapgm',
(PID.TID 0000.0001) > mult_genarr3d(1) = 0.,
(PID.TID 0000.0001) >#
(PID.TID 0000.0001) > xx_genarr3d_weight(2) = 'wt_ones.data',
(PID.TID 0000.0001) > xx_genarr3d_file(2)='xx_kapredi',
(PID.TID 0000.0001) > mult_genarr3d(2) = 0.,
(PID.TID 0000.0001) >#
(PID.TID 0000.0001) > xx_genarr3d_weight(3) = 'wt_ones.data',
(PID.TID 0000.0001) > xx_genarr3d_file(3)='xx_diffkr',
(PID.TID 0000.0001) > mult_genarr3d(3) = 0.,
(PID.TID 0000.0001) >#
(PID.TID 0000.0001) > &
(PID.TID 0000.0001) 
(PID.TID 0000.0001) CTRL_READPARMS: finished reading data.ctrl
(PID.TID 0000.0001)  DIAGNOSTICS_READPARMS: opening data.diagnostics
(PID.TID 0000.0001)  OPEN_COPY_DATA_FILE: opening file data.diagnostics
(PID.TID 0000.0001) // =======================================================
(PID.TID 0000.0001) // Parameter file "data.diagnostics"
(PID.TID 0000.0001) // =======================================================
(PID.TID 0000.0001) ># Diagnostic Package Choices
(PID.TID 0000.0001) >#-----------------
(PID.TID 0000.0001) ># for each output-stream:
(PID.TID 0000.0001) >#  filename(n) : prefix of the output file name (only 8.c long) for outp.stream n
(PID.TID 0000.0001) >#  frequency(n):< 0 : write snap-shot output every multiple of |frequency| (iter)
(PID.TID 0000.0001) >#               > 0 : write time-average output every multiple of frequency (iter)
(PID.TID 0000.0001) >#  levels(:,n) : list of levels to write to file (Notes: declared as REAL)
(PID.TID 0000.0001) >#                 when this entry is missing, select all common levels of this list
(PID.TID 0000.0001) >#  fields(:,n) : list of diagnostics fields (8.c) (see "available_diagnostics" file
(PID.TID 0000.0001) >#                 for the list of all available diag. in this particular config)
(PID.TID 0000.0001) >#--------------------------------------------------------------------
(PID.TID 0000.0001) >#
(PID.TID 0000.0001) > &diagnostics_list
(PID.TID 0000.0001) >#
(PID.TID 0000.0001) >   dumpatlast = .TRUE.,
(PID.TID 0000.0001) >   diagMdsDir = 'diags',
(PID.TID 0000.0001) >#---
(PID.TID 0000.0001) >  frequency(1) = 2635200.0,
(PID.TID 0000.0001) >   fields(1:9,1) = 'ETAN    ',
(PID.TID 0000.0001) >#stuff that is not quite state variables (and may not be quite
(PID.TID 0000.0001) >#synchroneous) but are added here to reduce number of files
(PID.TID 0000.0001) >                 'DETADT2 ','PHIBOT  ',
(PID.TID 0000.0001) >                 'MXLDEPTH','oceSPDep',
(PID.TID 0000.0001) >                 'oceQnet ','oceFWflx',
(PID.TID 0000.0001) >                 'oceTAUX ','oceTAUY ',
(PID.TID 0000.0001) >   filename(1) = 'state_2d_set1',
(PID.TID 0000.0001) >#---
(PID.TID 0000.0001) >  frequency(2) = 2635200.0,
(PID.TID 0000.0001) >   fields(1:3,2) = 'THETA   ','SALT    ',
(PID.TID 0000.0001) >#stuff that is not quite state variables (and may not be quite
(PID.TID 0000.0001) >#synchroneous) but are added here to reduce file number
(PID.TID 0000.0001) >                 'DRHODR  ',
(PID.TID 0000.0001) >#                'KPPviscA','KPPdiffT','KPPdiffTS',
(PID.TID 0000.0001) >#                'GGL90TKE','GGL90Lmx','GGL90Prl',
(PID.TID 0000.0001) >#                'GGL90ArU','GGL90ArV','GGL90Kr ',
(PID.TID 0000.0001) >   filename(2) = 'state_3d_set1',
(PID.TID 0000.0001) >#---
(PID.TID 0000.0001) >  frequency(3) = 2635200.0,
(PID.TID 0000.0001) >   fields(1:5,3) = 'UVELMASS','VVELMASS','WVELMASS',
(PID.TID 0000.0001) >                 'GM_PsiX ','GM_PsiY ',
(PID.TID 0000.0001) >#uvel is approximately uvelmass divided by initial hfac, so we dont output the former
(PID.TID 0000.0001) >#                'UVEL    ','VVEL    ','WVEL     ',
(PID.TID 0000.0001) >#full 3D temperature fluxes : 'DFxE_TH ','DFyE_TH ','DFrE_TH ','DFrI_TH ','ADVx_TH ','ADVy_TH ','ADVr_TH ',
(PID.TID 0000.0001) >#but for present computations I only need the vertically integrated horizontal components (see trsp_3d_set2)
(PID.TID 0000.0001) >   filename(3) = 'trsp_3d_set1',
(PID.TID 0000.0001) >#---
(PID.TID 0000.0001) >  frequency(4) = 2635200.0,
(PID.TID 0000.0001) >   fields(1:8,4) = 'DFxE_TH ','DFyE_TH ','ADVx_TH ','ADVy_TH ',
(PID.TID 0000.0001) >                 'DFxE_SLT','DFyE_SLT','ADVx_SLT','ADVy_SLT',
(PID.TID 0000.0001) >   filename(4) = 'trsp_3d_set2',
(PID.TID 0000.0001) >#vertically integrate fields we only use to compute vertically integr.
(PID.TID 0000.0001) >#meridional transports (also omit vertical transports, both to save space)
(PID.TID 0000.0001) >#---
(PID.TID 0000.0001) >  frequency(5) = -2635200.0,
(PID.TID 0000.0001) >   fields(1:2,5) = 'ETAN    ',
(PID.TID 0000.0001) >                   'PHIBOT  ',
(PID.TID 0000.0001) >#  filename(5) = 'budg2d_snap_set1',
(PID.TID 0000.0001) >   timePhase(5)= 0.,
(PID.TID 0000.0001) >   fileFlags(5) = 'D       ',
(PID.TID 0000.0001) >#---
(PID.TID 0000.0001) >  frequency(6) = -2635200.0,
(PID.TID 0000.0001) >   fields(1:2,6) = 'THETA   ','SALT    ',
(PID.TID 0000.0001) >#  filename(6) = 'budg2d_snap_set2',
(PID.TID 0000.0001) >   timePhase(6)= 0.,
(PID.TID 0000.0001) >   fileFlags(6) = 'DI      ',
(PID.TID 0000.0001) >#---
(PID.TID 0000.0001) >  frequency(7) = 2635200.0,
(PID.TID 0000.0001) >   fields(1:4,7) = 'oceFWflx','TFLUX   ',
(PID.TID 0000.0001) >                   'SFLUX   ','oceQsw  ',
(PID.TID 0000.0001) >#  filename(7) = 'budg2d_zflux_set1',
(PID.TID 0000.0001) >   fileFlags(7) = 'D       ',
(PID.TID 0000.0001) >#---
(PID.TID 0000.0001) >  frequency(8) = 2635200.0,
(PID.TID 0000.0001) >   fields(1:13,8) ='UVELMASS','VVELMASS',
(PID.TID 0000.0001) >                 'ADVx_TH ','ADVy_TH ','DFxE_TH ','DFyE_TH ',
(PID.TID 0000.0001) >                 'ADVx_SLT','ADVy_SLT','DFxE_SLT','DFyE_SLT',
(PID.TID 0000.0001) >#the following are not transports but tendencies
(PID.TID 0000.0001) >                 'oceSPtnd','AB_gT   ','AB_gS   ',
(PID.TID 0000.0001) >#  filename(8) = 'budg2d_hflux_set2',
(PID.TID 0000.0001) >   fileFlags(8) = 'DI      ',
(PID.TID 0000.0001) >#---
(PID.TID 0000.0001) ># this one is important because it activates the vertical advection diags
(PID.TID 0000.0001) >  frequency(9) = 2635200.0,
(PID.TID 0000.0001) >   fields(1:7,9) = 'ADVr_TH ','DFrE_TH ','DFrI_TH ',
(PID.TID 0000.0001) >                  'ADVr_SLT','DFrE_SLT','DFrI_SLT',
(PID.TID 0000.0001) >                  'WVELMASS',
(PID.TID 0000.0001) >#  filename(9) = 'budg2d_zflux_set3_11',
(PID.TID 0000.0001) >   levels(1, 9)= 11.,
(PID.TID 0000.0001) >   fileFlags(9) = 'D       ',
(PID.TID 0000.0001) >#---
(PID.TID 0000.0001) >  frequency(10) = 2635200.0,
(PID.TID 0000.0001) >   fields(1:6,10) ='SRELAX  ','TRELAX  ','WTHMASS ','WSLTMASS',
(PID.TID 0000.0001) >                 'oceSflux','oceQnet ',
(PID.TID 0000.0001) >#  filename(10) = 'budg2d_zflux_set2',
(PID.TID 0000.0001) >   fileFlags(10) = 'D       ',
(PID.TID 0000.0001) >#---
(PID.TID 0000.0001) >  frequency(11) = 2635200.0,
(PID.TID 0000.0001) >   fields(1:13,11) ='UVELMASS','VVELMASS',
(PID.TID 0000.0001) >                 'ADVx_TH ','ADVy_TH ','DFxE_TH ','DFyE_TH ',
(PID.TID 0000.0001) >                 'ADVx_SLT','ADVy_SLT','DFxE_SLT','DFyE_SLT',
(PID.TID 0000.0001) >                 'oceSPtnd','AB_gT   ','AB_gS   ',
(PID.TID 0000.0001) >#  filename(11) = 'budg2d_hflux_set3_11',
(PID.TID 0000.0001) >   levels(1:40,11) = 11.,12.,13.,14.,15.,16.,17.,18.,19.,20.,
(PID.TID 0000.0001) >                     21.,22.,23.,24.,25.,26.,27.,28.,29.,30.,
(PID.TID 0000.0001) >                     31.,32.,33.,34.,35.,36.,37.,38.,39.,40.,
(PID.TID 0000.0001) >                     41.,42.,43.,44.,45.,46.,47.,48.,49.,50.,
(PID.TID 0000.0001) >   fileFlags(11) = 'DI      ',
(PID.TID 0000.0001) >#---
(PID.TID 0000.0001) >  frequency(12) = -2635200.0,
(PID.TID 0000.0001) >   fields(1:2,12) = 'THETA   ','SALT    ',
(PID.TID 0000.0001) >#  filename(12) = 'budg2d_snap_set3_11',
(PID.TID 0000.0001) >   timePhase(12)= 0.,
(PID.TID 0000.0001) >   levels(1:40,12) = 11.,12.,13.,14.,15.,16.,17.,18.,19.,20.,
(PID.TID 0000.0001) >                     21.,22.,23.,24.,25.,26.,27.,28.,29.,30.,
(PID.TID 0000.0001) >                     31.,32.,33.,34.,35.,36.,37.,38.,39.,40.,
(PID.TID 0000.0001) >                     41.,42.,43.,44.,45.,46.,47.,48.,49.,50.,
(PID.TID 0000.0001) >   fileFlags(12) = 'DI      ',
(PID.TID 0000.0001) >#---
(PID.TID 0000.0001) >  frequency(13) = 2635200.0,
(PID.TID 0000.0001) >   fields(1:8,13) = 'DFxE_TH ','DFyE_TH ','ADVx_TH ','ADVy_TH ',
(PID.TID 0000.0001) >                 'DFxE_SLT','DFyE_SLT','ADVx_SLT','ADVy_SLT',
(PID.TID 0000.0001) >#  filename(13) = 'trsp_2d_set1',
(PID.TID 0000.0001) >#vertically integrate fields we only use to compute vertically integr.
(PID.TID 0000.0001) >#meridional transports (also omit vertical transports, both to save space)
(PID.TID 0000.0001) >   fileFlags(13) = ' I      ',
(PID.TID 0000.0001) >#---
(PID.TID 0000.0001) >  frequency(14) = 2635200.0,
(PID.TID 0000.0001) >   fields(1:3,14) = 'RHOAnoma','PHIHYD  ','oceSPtnd',
(PID.TID 0000.0001) >#  filename(14) = 'state_3d_set2',
(PID.TID 0000.0001) >#---
(PID.TID 0000.0001) >  frequency(15) = 2635200.0,
(PID.TID 0000.0001) >   fields(1:7,15) = 'ADVr_TH ','DFrE_TH ','DFrI_TH ',
(PID.TID 0000.0001) >        'ADVr_SLT','DFrE_SLT','DFrI_SLT','WVELMASS',
(PID.TID 0000.0001) >#  filename(15) = 'trsp_3d_set3',
(PID.TID 0000.0001) >#---
(PID.TID 0000.0001) >  frequency(16) = 2635200.0,
(PID.TID 0000.0001) >   fields(1:4,16) = 'TFLUX   ','SFLUX   ',
(PID.TID 0000.0001) >        'oceQsw  ','oceSPflx',
(PID.TID 0000.0001) >#  filename(16) = 'state_2d_set2',
(PID.TID 0000.0001) >#---
(PID.TID 0000.0001) > &
(PID.TID 0000.0001) >#
(PID.TID 0000.0001) >#
(PID.TID 0000.0001) ># Parameter for Diagnostics of per level statistics:
(PID.TID 0000.0001) >#-----------------
(PID.TID 0000.0001) ># for each output-stream:
(PID.TID 0000.0001) >#  stat_fname(n) : prefix of the output file name (only 8.c long) for outp.stream n
(PID.TID 0000.0001) >#  stat_freq(n):< 0 : write snap-shot output every |stat_freq| seconds
(PID.TID 0000.0001) >#               > 0 : write time-average output every stat_freq seconds
(PID.TID 0000.0001) >#  stat_phase(n)    : write at time = stat_phase + multiple of |stat_freq|
(PID.TID 0000.0001) >#  stat_region(:,n) : list of "regions" (default: 1 region only=global)
(PID.TID 0000.0001) >#  stat_fields(:,n) : list of diagnostics fields (8.c) (see "available_diagnostics.log"
(PID.TID 0000.0001) >#                 file for the list of all available diag. in this particular config)
(PID.TID 0000.0001) >#-----------------
(PID.TID 0000.0001) > &DIAG_STATIS_PARMS
(PID.TID 0000.0001) ># diagSt_regMaskFile='basin_masks_eccollc_90x50.bin',
(PID.TID 0000.0001) ># nSetRegMskFile=1,
(PID.TID 0000.0001) ># set_regMask(1)= 1,  1,  1,  1,  1,  1,  1,  1,  1,
(PID.TID 0000.0001) >#                 1,  1,  1,  1,  1,  1,  1,  1
(PID.TID 0000.0001) ># val_regMask(1)= 1., 2., 3., 4., 5., 6., 7., 8., 9.,
(PID.TID 0000.0001) >#                10.,11.,12.,13.,14.,15.,16.,17.
(PID.TID 0000.0001) >##---
(PID.TID 0000.0001) ># stat_fields(1,1)= 'ETAN    ','ETANSQ  ','DETADT2 ',
(PID.TID 0000.0001) >#                   'UVEL    ','VVEL    ','WVEL    ',
(PID.TID 0000.0001) >#                   'THETA   ','SALT    ',
(PID.TID 0000.0001) >#    stat_fname(1)= 'dynStDiag',
(PID.TID 0000.0001) >#     stat_freq(1)= 3153600.,
(PID.TID 0000.0001) ># stat_region(1,1)=  1, 2, 3, 4, 5, 6, 7, 8, 9,
(PID.TID 0000.0001) >#                   10,11,12,13,14,15,16,17
(PID.TID 0000.0001) >##---
(PID.TID 0000.0001) ># stat_fields(1,2)= 'oceTAUX ','oceTAUY ',
(PID.TID 0000.0001) >#                   'surForcT','surForcS','TFLUX   ','SFLUX   ',
(PID.TID 0000.0001) >#                   'oceQnet ','oceSflux','oceFWflx',
(PID.TID 0000.0001) >#    stat_fname(2)= 'surfStDiag',
(PID.TID 0000.0001) >#     stat_freq(2)= 3153600.,
(PID.TID 0000.0001) ># stat_region(1,2)=  1, 2, 3, 4, 5, 6, 7, 8, 9,
(PID.TID 0000.0001) >#                   10,11,12,13,14,15,16,17
(PID.TID 0000.0001) > &
(PID.TID 0000.0001) 
(PID.TID 0000.0001) S/R DIAGNOSTICS_READPARMS, read namelist "diagnostics_list": start
(PID.TID 0000.0001) S/R DIAGNOSTICS_READPARMS, read namelist "diagnostics_list": OK
(PID.TID 0000.0001) S/R DIAGNOSTICS_READPARMS, read namelist "DIAG_STATIS_PARMS": start
(PID.TID 0000.0001) S/R DIAGNOSTICS_READPARMS, read namelist "DIAG_STATIS_PARMS": OK
(PID.TID 0000.0001)  DIAGNOSTICS_READPARMS: global parameter summary:
(PID.TID 0000.0001)  dumpAtLast = /* always write time-ave diags at the end */
(PID.TID 0000.0001)                   T
(PID.TID 0000.0001)     ;
(PID.TID 0000.0001)  diag_mnc =   /* write NetCDF output files */
(PID.TID 0000.0001)                   F
(PID.TID 0000.0001)     ;
(PID.TID 0000.0001)  diagMdsDir = /* directory for mds diagnostics output */
(PID.TID 0000.0001)               'diags'
(PID.TID 0000.0001)     ;
(PID.TID 0000.0001)  diagMdsDirCreate = /* call mkdir to create diagMdsDir */
(PID.TID 0000.0001)                   T
(PID.TID 0000.0001)     ;
(PID.TID 0000.0001)  useMissingValue = /* put MissingValue where mask = 0 */
(PID.TID 0000.0001)                   F
(PID.TID 0000.0001)     ;
(PID.TID 0000.0001)  diagCG_maxIters = /* max number of iters in diag_cg2d */
(PID.TID 0000.0001)                     300
(PID.TID 0000.0001)     ;
(PID.TID 0000.0001)  diagCG_resTarget = /* residual target for diag_cg2d */
(PID.TID 0000.0001)                 1.000000000000000E-07
(PID.TID 0000.0001)     ;
(PID.TID 0000.0001)  diagCG_pcOffDFac = /* preconditioner off-diagonal factor */
(PID.TID 0000.0001)                 9.611687812379854E-01
(PID.TID 0000.0001)     ;
(PID.TID 0000.0001) -----------------------------------------------------
(PID.TID 0000.0001)  DIAGNOSTICS_READPARMS: active diagnostics summary:
(PID.TID 0000.0001) -----------------------------------------------------
(PID.TID 0000.0001) Creating Output Stream: state_2d_set1
(PID.TID 0000.0001) Output Frequency:    2635200.000000 ; Phase:           0.000000
(PID.TID 0000.0001)  Averaging Freq.:    2635200.000000 , Phase:           0.000000 , Cycle:   1
(PID.TID 0000.0001)  missing value: -9.990000000000E+02
(PID.TID 0000.0001)  Levels:    will be set later
(PID.TID 0000.0001)  Fields:    ETAN     DETADT2  PHIBOT   MXLDEPTH oceSPDep oceQnet  oceFWflx oceTAUX  oceTAUY
(PID.TID 0000.0001) Creating Output Stream: state_3d_set1
(PID.TID 0000.0001) Output Frequency:    2635200.000000 ; Phase:           0.000000
(PID.TID 0000.0001)  Averaging Freq.:    2635200.000000 , Phase:           0.000000 , Cycle:   1
(PID.TID 0000.0001)  missing value: -9.990000000000E+02
(PID.TID 0000.0001)  Levels:    will be set later
(PID.TID 0000.0001)  Fields:    THETA    SALT     DRHODR
(PID.TID 0000.0001) Creating Output Stream: trsp_3d_set1
(PID.TID 0000.0001) Output Frequency:    2635200.000000 ; Phase:           0.000000
(PID.TID 0000.0001)  Averaging Freq.:    2635200.000000 , Phase:           0.000000 , Cycle:   1
(PID.TID 0000.0001)  missing value: -9.990000000000E+02
(PID.TID 0000.0001)  Levels:    will be set later
(PID.TID 0000.0001)  Fields:    UVELMASS VVELMASS WVELMASS GM_PsiX  GM_PsiY
(PID.TID 0000.0001) Creating Output Stream: trsp_3d_set2
(PID.TID 0000.0001) Output Frequency:    2635200.000000 ; Phase:           0.000000
(PID.TID 0000.0001)  Averaging Freq.:    2635200.000000 , Phase:           0.000000 , Cycle:   1
(PID.TID 0000.0001)  missing value: -9.990000000000E+02
(PID.TID 0000.0001)  Levels:    will be set later
(PID.TID 0000.0001)  Fields:    DFxE_TH  DFyE_TH  ADVx_TH  ADVy_TH  DFxE_SLT DFyE_SLT ADVx_SLT ADVy_SLT
(PID.TID 0000.0001) -----------------------------------------------------
(PID.TID 0000.0001)  DIAGNOSTICS_READPARMS: statistics diags. summary:
(PID.TID 0000.0001) -----------------------------------------------------
(PID.TID 0000.0001) 
(PID.TID 0000.0001) SET_PARMS: done
 ==> SYSTEM CALL (from DIAGNOSTICS_INI_IO): > mkdir -p diags <
(PID.TID 0000.0001) 
(PID.TID 0000.0001) Enter INI_VERTICAL_GRID: setInterFDr=    T ; setCenterDr=    F
(PID.TID 0000.0001) tile:   4 ; Read from file tile001.mitgrid
(PID.TID 0000.0001)   => xC yC dxF dyF rA xG yG dxV dyU rAz dxC dyC rAw rAs dxG dyG
(PID.TID 0000.0001) %MON XC_max                       =   1.7997758946678E+02
(PID.TID 0000.0001) %MON XC_min                       =  -1.7998895680928E+02
(PID.TID 0000.0001) %MON XC_mean                      =  -6.8997670631350E+00
(PID.TID 0000.0001) %MON XC_sd                        =   1.0548127462941E+02
(PID.TID 0000.0001) %MON XG_max                       =   1.8000000000000E+02
(PID.TID 0000.0001) %MON XG_min                       =  -1.7999919444240E+02
(PID.TID 0000.0001) %MON XG_mean                      =  -6.3521159278861E+00
(PID.TID 0000.0001) %MON XG_sd                        =   1.0549598176576E+02
(PID.TID 0000.0001) %MON DXC_max                      =   1.1117680031365E+05
(PID.TID 0000.0001) %MON DXC_min                      =   1.3362789164732E+04
(PID.TID 0000.0001) %MON DXC_mean                     =   7.1345115143606E+04
(PID.TID 0000.0001) %MON DXC_sd                       =   2.6107013089865E+04
(PID.TID 0000.0001) %MON DXF_max                      =   1.1117680031365E+05
(PID.TID 0000.0001) %MON DXF_min                      =   1.3491575949394E+04
(PID.TID 0000.0001) %MON DXF_mean                     =   7.1334806791260E+04
(PID.TID 0000.0001) %MON DXF_sd                       =   2.6121349328995E+04
(PID.TID 0000.0001) %MON DXG_max                      =   1.1117747335204E+05
(PID.TID 0000.0001) %MON DXG_min                      =   1.0930409249570E+04
(PID.TID 0000.0001) %MON DXG_mean                     =   7.1313583950284E+04
(PID.TID 0000.0001) %MON DXG_sd                       =   2.6131714747840E+04
(PID.TID 0000.0001) %MON DXV_max                      =   1.1117747335204E+05
(PID.TID 0000.0001) %MON DXV_min                      =   9.4742518926426E+03
(PID.TID 0000.0001) %MON DXV_mean                     =   7.1323777998314E+04
(PID.TID 0000.0001) %MON DXV_sd                       =   2.6117603792432E+04
(PID.TID 0000.0001) %MON YC_max                       =   8.9739397429324E+01
(PID.TID 0000.0001) %MON YC_min                       =  -8.1637173529390E+01
(PID.TID 0000.0001) %MON YC_mean                      =  -5.9338515025079E-01
(PID.TID 0000.0001) %MON YC_sd                        =   5.1058908630085E+01
(PID.TID 0000.0001) %MON YG_max                       =   9.0000000000000E+01
(PID.TID 0000.0001) %MON YG_min                       =  -8.1805478609906E+01
(PID.TID 0000.0001) %MON YG_mean                      =  -5.7357831765458E-01
(PID.TID 0000.0001) %MON YG_sd                        =   5.1060174609345E+01
(PID.TID 0000.0001) %MON DYC_max                      =   1.1117680031365E+05
(PID.TID 0000.0001) %MON DYC_min                      =   1.3362789164732E+04
(PID.TID 0000.0001) %MON DYC_mean                     =   7.0982792089666E+04
(PID.TID 0000.0001) %MON DYC_sd                       =   2.6607387075348E+04
(PID.TID 0000.0001) %MON DYF_max                      =   1.1117680031365E+05
(PID.TID 0000.0001) %MON DYF_min                      =   1.3491575949394E+04
(PID.TID 0000.0001) %MON DYF_mean                     =   7.1000127494934E+04
(PID.TID 0000.0001) %MON DYF_sd                       =   2.6603606017547E+04
(PID.TID 0000.0001) %MON DYG_max                      =   1.1117747335204E+05
(PID.TID 0000.0001) %MON DYG_min                      =   1.0930409249570E+04
(PID.TID 0000.0001) %MON DYG_mean                     =   7.1022116512585E+04
(PID.TID 0000.0001) %MON DYG_sd                       =   2.6571715830406E+04
(PID.TID 0000.0001) %MON DYU_max                      =   1.1117747335204E+05
(PID.TID 0000.0001) %MON DYU_min                      =   9.4742518926426E+03
(PID.TID 0000.0001) %MON DYU_mean                     =   7.1004694583927E+04
(PID.TID 0000.0001) %MON DYU_sd                       =   2.6575655787476E+04
(PID.TID 0000.0001) %MON RA_max                       =   1.1896090857160E+10
(PID.TID 0000.0001) %MON RA_min                       =   2.1263387742345E+08
(PID.TID 0000.0001) %MON RA_mean                      =   5.6344293572480E+09
(PID.TID 0000.0001) %MON RA_sd                        =   3.5929461176606E+09
(PID.TID 0000.0001) %MON RAW_max                      =   1.1896090856781E+10
(PID.TID 0000.0001) %MON RAW_min                      =   1.7369571508711E+08
(PID.TID 0000.0001) %MON RAW_mean                     =   5.6355850434318E+09
(PID.TID 0000.0001) %MON RAW_sd                       =   3.5915487677190E+09
(PID.TID 0000.0001) %MON RAS_max                      =   1.1896090856781E+10
(PID.TID 0000.0001) %MON RAS_min                      =   1.7369571508711E+08
(PID.TID 0000.0001) %MON RAS_mean                     =   5.6320332286162E+09
(PID.TID 0000.0001) %MON RAS_sd                       =   3.5937184228135E+09
(PID.TID 0000.0001) %MON RAZ_max                      =   1.1891903479271E+10
(PID.TID 0000.0001) %MON RAZ_min                      =   1.0413402423292E+08
(PID.TID 0000.0001) %MON RAZ_mean                     =   5.6331824674695E+09
(PID.TID 0000.0001) %MON RAZ_sd                       =   3.5923307220197E+09
(PID.TID 0000.0001) %MON AngleCS_max                  =   1.0000000000000E+00
(PID.TID 0000.0001) %MON AngleCS_min                  =  -9.9996641938864E-01
(PID.TID 0000.0001) %MON AngleCS_mean                 =   4.0572930529500E-01
(PID.TID 0000.0001) %MON AngleCS_sd                   =   5.3874397836718E-01
(PID.TID 0000.0001) %MON AngleSN_max                  =   9.9996641938864E-01
(PID.TID 0000.0001) %MON AngleSN_min                  =  -1.0000000000000E+00
(PID.TID 0000.0001) %MON AngleSN_mean                 =  -4.9986154624599E-01
(PID.TID 0000.0001) %MON AngleSN_sd                   =   5.4339404779819E-01
(PID.TID 0000.0001) GAD_INIT_FIXED: GAD_OlMinSize=  2  0  2
(PID.TID 0000.0001) 
(PID.TID 0000.0001) // ===================================
(PID.TID 0000.0001) // GAD parameters :
(PID.TID 0000.0001) // ===================================
(PID.TID 0000.0001) tempAdvScheme =   /* Temp. Horiz.Advection scheme selector */
(PID.TID 0000.0001)                      30
(PID.TID 0000.0001)     ;
(PID.TID 0000.0001) tempVertAdvScheme =   /* Temp. Vert. Advection scheme selector */
(PID.TID 0000.0001)                       3
(PID.TID 0000.0001)     ;
(PID.TID 0000.0001) tempMultiDimAdvec =   /* use Muti-Dim Advec method for Temp */
(PID.TID 0000.0001)                   T
(PID.TID 0000.0001)     ;
(PID.TID 0000.0001) tempSOM_Advection = /* use 2nd Order Moment Advection for Temp */
(PID.TID 0000.0001)                   F
(PID.TID 0000.0001)     ;
(PID.TID 0000.0001) AdamsBashforthGt = /* apply Adams-Bashforth extrapolation on Gt */
(PID.TID 0000.0001)                   F
(PID.TID 0000.0001)     ;
(PID.TID 0000.0001) AdamsBashforth_T = /* apply Adams-Bashforth extrapolation on Temp */
(PID.TID 0000.0001)                   F
(PID.TID 0000.0001)     ;
(PID.TID 0000.0001) saltAdvScheme =   /* Salt. Horiz.advection scheme selector */
(PID.TID 0000.0001)                      30
(PID.TID 0000.0001)     ;
(PID.TID 0000.0001) saltVertAdvScheme =   /* Salt. Vert. Advection scheme selector */
(PID.TID 0000.0001)                       3
(PID.TID 0000.0001)     ;
(PID.TID 0000.0001) saltMultiDimAdvec =   /* use Muti-Dim Advec method for Salt */
(PID.TID 0000.0001)                   T
(PID.TID 0000.0001)     ;
(PID.TID 0000.0001) saltSOM_Advection = /* use 2nd Order Moment Advection for Salt */
(PID.TID 0000.0001)                   F
(PID.TID 0000.0001)     ;
(PID.TID 0000.0001) AdamsBashforthGs = /* apply Adams-Bashforth extrapolation on Gs */
(PID.TID 0000.0001)                   F
(PID.TID 0000.0001)     ;
(PID.TID 0000.0001) AdamsBashforth_S = /* apply Adams-Bashforth extrapolation on Salt */
(PID.TID 0000.0001)                   F
(PID.TID 0000.0001)     ;
(PID.TID 0000.0001) // ===================================
(PID.TID 0000.0001) SEAICE_INIT_FIXED: Computing  5 thickness category limits with
(PID.TID 0000.0001) Hlimit_c1  = /* ITD bin parameter */
(PID.TID 0000.0001)                 3.000000000000000E+00
(PID.TID 0000.0001)     ;
(PID.TID 0000.0001) Hlimit_c2  = /* ITD bin parameter */
(PID.TID 0000.0001)                 1.500000000000000E+01
(PID.TID 0000.0001)     ;
(PID.TID 0000.0001) Hlimit_c3  = /* ITD bin parameter */
(PID.TID 0000.0001)                 3.000000000000000E+00
(PID.TID 0000.0001)     ;
(PID.TID 0000.0001) 
(PID.TID 0000.0001) // =======================================================
(PID.TID 0000.0001) // Seaice configuration (SEAICE_PARM01) >>> START <<<
(PID.TID 0000.0001) // =======================================================
(PID.TID 0000.0001) 
(PID.TID 0000.0001)    Seaice time stepping configuration   > START <
(PID.TID 0000.0001)    ----------------------------------------------
(PID.TID 0000.0001) SEAICE_deltaTtherm= /* thermodynamic timestep */
(PID.TID 0000.0001)                 9.000000000000000E+02
(PID.TID 0000.0001)     ;
(PID.TID 0000.0001) SEAICE_deltaTdyn  = /* dynamic timestep */
(PID.TID 0000.0001)                 9.000000000000000E+02
(PID.TID 0000.0001)     ;
(PID.TID 0000.0001) SEAICE_deltaTevp  = /* EVP timestep */
(PID.TID 0000.0001)                 1.234567000000000E+05
(PID.TID 0000.0001)     ;
(PID.TID 0000.0001) SEAICEuseBDF2  = /* use backw. differencing for mom. eq. */
(PID.TID 0000.0001)                   F
(PID.TID 0000.0001)     ;
(PID.TID 0000.0001) SEAICEupdateOceanStress= /* update Ocean surf. stress */
(PID.TID 0000.0001)                   T
(PID.TID 0000.0001)     ;
(PID.TID 0000.0001) SEAICErestoreUnderIce  = /* restore T and S under ice */
(PID.TID 0000.0001)                   F
(PID.TID 0000.0001)     ;
(PID.TID 0000.0001) 
(PID.TID 0000.0001)    Seaice dynamics configuration   > START <
(PID.TID 0000.0001)    ------------------------------------------
(PID.TID 0000.0001) SEAICEuseDYNAMICS = /* use dynamics */
(PID.TID 0000.0001)                   T
(PID.TID 0000.0001)     ;
(PID.TID 0000.0001) model grid type   = /* type of sea ice model grid */
(PID.TID 0000.0001)               'C-GRID'
(PID.TID 0000.0001)     ;
(PID.TID 0000.0001) SEAICEuseStrImpCpl = /* use strongly implicit coupling */
(PID.TID 0000.0001)                   F
(PID.TID 0000.0001)     ;
(PID.TID 0000.0001) SEAICEusePicardAsPrecon = /* Picard as preconditioner */
(PID.TID 0000.0001)                   F
(PID.TID 0000.0001)     ;
(PID.TID 0000.0001) SEAICEuseLSR      = /* use default Picard-LSR solver */
(PID.TID 0000.0001)                   T
(PID.TID 0000.0001)     ;
(PID.TID 0000.0001) SEAICEuseKrylov   = /* use Picard-Krylov solver */
(PID.TID 0000.0001)                   F
(PID.TID 0000.0001)     ;
(PID.TID 0000.0001) SEAICEuseEVP      = /* use EVP solver rather than LSR */
(PID.TID 0000.0001)                   F
(PID.TID 0000.0001)     ;
(PID.TID 0000.0001) SEAICEuseJFNK     = /* use JFNK solver */
(PID.TID 0000.0001)                   F
(PID.TID 0000.0001)     ;
(PID.TID 0000.0001) OCEAN_drag        = /* air-ocean drag coefficient */
(PID.TID 0000.0001)                 8.154100000000000E-04
(PID.TID 0000.0001)     ;
(PID.TID 0000.0001) SEAICE_drag       = /* air-ice drag coefficient */
(PID.TID 0000.0001)                 2.000000000000000E-03
(PID.TID 0000.0001)     ;
(PID.TID 0000.0001) SEAICE_drag_south      = /* Southern Ocean SEAICE_drag */
(PID.TID 0000.0001)                 2.000000000000000E-03
(PID.TID 0000.0001)     ;
(PID.TID 0000.0001) SEAICE_waterDrag  = /* water-ice drag */
(PID.TID 0000.0001)                 5.169855072463768E-03
(PID.TID 0000.0001)     ;
(PID.TID 0000.0001) SEAICE_waterDrag_south = /* Southern Ocean waterDrag */
(PID.TID 0000.0001)                 5.169855072463768E-03
(PID.TID 0000.0001)     ;
(PID.TID 0000.0001) SEAICEuseTilt     = /* include surface tilt in dyna. */
(PID.TID 0000.0001)                   T
(PID.TID 0000.0001)     ;
(PID.TID 0000.0001) SEAICEuseTEM      = /* use truncated ellipse rheology */
(PID.TID 0000.0001)                   F
(PID.TID 0000.0001)     ;
(PID.TID 0000.0001) SEAICE_strength   = /* sea-ice strength Pstar */
(PID.TID 0000.0001)                 2.678000000000000E+04
(PID.TID 0000.0001)     ;
(PID.TID 0000.0001) SEAICE_cStar      = /* sea-ice strength parameter cStar */
(PID.TID 0000.0001)                 2.000000000000000E+01
(PID.TID 0000.0001)     ;
(PID.TID 0000.0001) SEAICEpressReplFac= /* press. replacement method factor */
(PID.TID 0000.0001)                 1.000000000000000E+00
(PID.TID 0000.0001)     ;
(PID.TID 0000.0001) SEAICE_tensilFac  = /* sea-ice tensile strength factor */
(PID.TID 0000.0001)                 0.000000000000000E+00
(PID.TID 0000.0001)     ;
(PID.TID 0000.0001) SEAICE_tensilDepth= /* crit. depth for tensile strength */
(PID.TID 0000.0001)                 0.000000000000000E+00
(PID.TID 0000.0001)     ;
(PID.TID 0000.0001) SEAICEpresH0   = /* sea-ice strength Heff threshold */
(PID.TID 0000.0001)                 1.000000000000000E+00
(PID.TID 0000.0001)     ;
(PID.TID 0000.0001) SEAICEpresPow0 = /* exponent for Heff<SEAICEpresH0 */
(PID.TID 0000.0001)                       1
(PID.TID 0000.0001)     ;
(PID.TID 0000.0001) SEAICEpresPow1 = /* exponent for Heff>SEAICEpresH0 */
(PID.TID 0000.0001)                       1
(PID.TID 0000.0001)     ;
(PID.TID 0000.0001) SEAICEetaZmethod = /* method computing eta at Z-point */
(PID.TID 0000.0001)                       0
(PID.TID 0000.0001)     ;
(PID.TID 0000.0001) SEAICE_zetaMin    = /* lower bound for viscosity */
(PID.TID 0000.0001)                 0.000000000000000E+00
(PID.TID 0000.0001)     ;
(PID.TID 0000.0001) SEAICE_eccen    = /* elliptical yield curve eccent */
(PID.TID 0000.0001)                 2.000000000000000E+00
(PID.TID 0000.0001)     ;
(PID.TID 0000.0001) SEAICEstressFactor    = /* wind stress scaling factor */
(PID.TID 0000.0001)                 1.000000000000000E+00
(PID.TID 0000.0001)     ;
(PID.TID 0000.0001) SEAICE_airTurnAngle    = /* air-ice turning angle */
(PID.TID 0000.0001)                 0.000000000000000E+00
(PID.TID 0000.0001)     ;
(PID.TID 0000.0001) SEAICE_waterTurnAngle  = /* ice-water turning angle */
(PID.TID 0000.0001)                 0.000000000000000E+00
(PID.TID 0000.0001)     ;
(PID.TID 0000.0001) SEAICEuseMetricTerms = /* use metric terms */
(PID.TID 0000.0001)                   T
(PID.TID 0000.0001)     ;
(PID.TID 0000.0001) SEAICE_no_slip    = /* no slip boundary conditions */
(PID.TID 0000.0001)                   F
(PID.TID 0000.0001)     ;
(PID.TID 0000.0001) SEAICE_2ndOrderBC = /* 2nd order no slip boundary conditions */
(PID.TID 0000.0001)                   F
(PID.TID 0000.0001)     ;
(PID.TID 0000.0001) SEAICE_clipVeloctities = /* impose max. vels. */
(PID.TID 0000.0001)                   F
(PID.TID 0000.0001)     ;
(PID.TID 0000.0001) useHB87stressCoupling  = /* altern. ice-ocean stress */
(PID.TID 0000.0001)                   F
(PID.TID 0000.0001)     ;
(PID.TID 0000.0001) SEAICEscaleSurfStress  = /* scale atm. and ocean-surface stress with AREA */
(PID.TID 0000.0001)                   F
(PID.TID 0000.0001)     ;
(PID.TID 0000.0001) SEAICE_maskRHS    = /* mask RHS of solver */
(PID.TID 0000.0001)                   F
(PID.TID 0000.0001)     ;
(PID.TID 0000.0001) SEAICEaddSnowMass = /* add snow mass to seaiceMassC/U/V */
(PID.TID 0000.0001)                   F
(PID.TID 0000.0001)     ;
(PID.TID 0000.0001) LSR_mixIniGuess = /* mix free-drift sol. into LSR initial Guess */
(PID.TID 0000.0001)                      -1
(PID.TID 0000.0001)     ;
(PID.TID 0000.0001) SEAICE_LSRrelaxU  = /* LSR solver: relaxation parameter */
(PID.TID 0000.0001)                 9.500000000000000E-01
(PID.TID 0000.0001)     ;
(PID.TID 0000.0001) SEAICE_LSRrelaxV  = /* LSR solver: relaxation parameter */
(PID.TID 0000.0001)                 9.500000000000000E-01
(PID.TID 0000.0001)     ;
(PID.TID 0000.0001) LSR_ERROR         = /* sets accuracy of LSR solver */
(PID.TID 0000.0001)                 1.000000000000000E-04
(PID.TID 0000.0001)     ;
(PID.TID 0000.0001) SOLV_NCHECK       = /* test interval for LSR solver */
(PID.TID 0000.0001)                       2
(PID.TID 0000.0001)     ;
(PID.TID 0000.0001) SEAICEuseMultiTileSolver = /* use full domain tri-diag solver */
(PID.TID 0000.0001)                   F
(PID.TID 0000.0001)     ;
(PID.TID 0000.0001) SEAICE_OLx = /* overlap for LSR/preconditioner */
(PID.TID 0000.0001)                       0
(PID.TID 0000.0001)     ;
(PID.TID 0000.0001) SEAICE_OLy = /* overlap for LSR/preconditioner */
(PID.TID 0000.0001)                       0
(PID.TID 0000.0001)     ;
(PID.TID 0000.0001) SEAICEnonLinIterMax = /* max. number of nonlinear solver steps */
(PID.TID 0000.0001)                       2
(PID.TID 0000.0001)     ;
(PID.TID 0000.0001) SEAICElinearIterMax = /* max. number of linear solver steps */
(PID.TID 0000.0001)                     500
(PID.TID 0000.0001)     ;
(PID.TID 0000.0001) SEAICEnonLinTol     = /* non-linear solver tolerance */
(PID.TID 0000.0001)                 0.000000000000000E+00
(PID.TID 0000.0001)     ;
(PID.TID 0000.0001) 
(PID.TID 0000.0001)    Seaice advection diffusion config,   > START <
(PID.TID 0000.0001)    -----------------------------------------------
(PID.TID 0000.0001) SEAICEmomAdvection = /* advect sea ice momentum */
(PID.TID 0000.0001)                   F
(PID.TID 0000.0001)     ;
(PID.TID 0000.0001) SEAICEadvHeff = /* advect effective ice thickness */
(PID.TID 0000.0001)                   T
(PID.TID 0000.0001)     ;
(PID.TID 0000.0001) SEAICEadvArea = /* advect fractional ice area */
(PID.TID 0000.0001)                   T
(PID.TID 0000.0001)     ;
(PID.TID 0000.0001) SEAICEadvSnow = /* advect snow layer together with ice */
(PID.TID 0000.0001)                   T
(PID.TID 0000.0001)     ;
(PID.TID 0000.0001) SEAICEadvScheme   = /* advection scheme for ice */
(PID.TID 0000.0001)                      77
(PID.TID 0000.0001)     ;
(PID.TID 0000.0001) SEAICEadvSchArea   = /* advection scheme for area */
(PID.TID 0000.0001)                      77
(PID.TID 0000.0001)     ;
(PID.TID 0000.0001) SEAICEadvSchHeff   = /* advection scheme for thickness */
(PID.TID 0000.0001)                      77
(PID.TID 0000.0001)     ;
(PID.TID 0000.0001) SEAICEadvSchSnow   = /* advection scheme for snow */
(PID.TID 0000.0001)                      77
(PID.TID 0000.0001)     ;
(PID.TID 0000.0001) SEAICEdiffKhArea   = /* diffusivity (m^2/s) for area */
(PID.TID 0000.0001)                 0.000000000000000E+00
(PID.TID 0000.0001)     ;
(PID.TID 0000.0001) SEAICEdiffKhHeff   = /* diffusivity (m^2/s) for heff */
(PID.TID 0000.0001)                 0.000000000000000E+00
(PID.TID 0000.0001)     ;
(PID.TID 0000.0001) SEAICEdiffKhSnow   = /* diffusivity (m^2/s) for snow */
(PID.TID 0000.0001)                 0.000000000000000E+00
(PID.TID 0000.0001)     ;
(PID.TID 0000.0001) DIFF1             = /* parameter used in advect.F [m/s] */
(PID.TID 0000.0001)                 0.000000000000000E+00
(PID.TID 0000.0001)     ;
(PID.TID 0000.0001) 
(PID.TID 0000.0001)    Seaice ice thickness distribution configuration   > START <
(PID.TID 0000.0001)    -----------------------------------------------------------
(PID.TID 0000.0001) nITD              = /* number of ice thickness categories */
(PID.TID 0000.0001)                       5
(PID.TID 0000.0001)     ;
(PID.TID 0000.0001) Hlimit = /* seaice thickness category bin limits ( m ), Hlimit(0)=0 */
(PID.TID 0000.0001)                 6.445072168194259E-01,      /* K =  1 */
(PID.TID 0000.0001)                 1.391433497576304E+00,      /* K =  2 */
(PID.TID 0000.0001)                 2.470179381959889E+00,      /* K =  3 */
(PID.TID 0000.0001)                 4.567287918850493E+00,      /* K =  4 */
(PID.TID 0000.0001)                 9.999000000000000E+02       /* K =  5 */
(PID.TID 0000.0001)     ;
(PID.TID 0000.0001) SEAICEuseLinRemapITD  = /* select linear remapping scheme for ITD */
(PID.TID 0000.0001)                   T
(PID.TID 0000.0001)     ;
(PID.TID 0000.0001) useHibler79IceStrength  = /* select ice strength parameterizationd */
(PID.TID 0000.0001)                   T
(PID.TID 0000.0001)     ;
(PID.TID 0000.0001) SEAICEsimpleRidging  = /* select ridging scheme */
(PID.TID 0000.0001)                   T
(PID.TID 0000.0001)     ;
(PID.TID 0000.0001) SEAICEpartFunc   = /* select ridging participation function */
(PID.TID 0000.0001)                       0
(PID.TID 0000.0001)     ;
(PID.TID 0000.0001) SEAICEredistFunc = /* select ridging redistribution function */
(PID.TID 0000.0001)                       0
(PID.TID 0000.0001)     ;
(PID.TID 0000.0001) SEAICE_cf  = /* ice strength parameter */
(PID.TID 0000.0001)                 1.700000000000000E+01
(PID.TID 0000.0001)     ;
(PID.TID 0000.0001) SEAICEshearParm  = /* amount of energy lost to shear */
(PID.TID 0000.0001)                 5.000000000000000E-01
(PID.TID 0000.0001)     ;
(PID.TID 0000.0001) SEAICEgStar  = /* ridging parameter */
(PID.TID 0000.0001)                 1.500000000000000E-01
(PID.TID 0000.0001)     ;
(PID.TID 0000.0001) SEAICEhStar  = /* ridging parameter */
(PID.TID 0000.0001)                 2.500000000000000E+01
(PID.TID 0000.0001)     ;
(PID.TID 0000.0001) SEAICEaStar  = /* ridging parameter */
(PID.TID 0000.0001)                 5.000000000000000E-02
(PID.TID 0000.0001)     ;
(PID.TID 0000.0001) SEAICEmuRidging  = /* ridging parameter */
(PID.TID 0000.0001)                 3.000000000000000E+00
(PID.TID 0000.0001)     ;
(PID.TID 0000.0001) SEAICEmaxRaft  = /* ridging parameter */
(PID.TID 0000.0001)                 1.000000000000000E+00
(PID.TID 0000.0001)     ;
(PID.TID 0000.0001) SEAICEsnowFracRidge  = /* fraction of snow remaining on ridges */
(PID.TID 0000.0001)                 5.000000000000000E-01
(PID.TID 0000.0001)     ;
(PID.TID 0000.0001) 
(PID.TID 0000.0001)    Seaice thermodynamics configuration   > START <
(PID.TID 0000.0001)    -----------------------------------------------
(PID.TID 0000.0001) SEAICE_rhoIce     = /* density of sea ice (kg/m3) */
(PID.TID 0000.0001)                 9.100000000000000E+02
(PID.TID 0000.0001)     ;
(PID.TID 0000.0001) SEAICE_rhoSnow    = /* density of snow (kg/m3) */
(PID.TID 0000.0001)                 3.300000000000000E+02
(PID.TID 0000.0001)     ;
(PID.TID 0000.0001) SEAICE_rhoAir     = /* density of air (kg/m3) */
(PID.TID 0000.0001)                 1.300000000000000E+00
(PID.TID 0000.0001)     ;
(PID.TID 0000.0001) usePW79thermodynamics  = /* default 0-layer TD */
(PID.TID 0000.0001)                   F
(PID.TID 0000.0001)     ;
(PID.TID 0000.0001)    pkg/seaice thermodynamics is OFF
(PID.TID 0000.0001) 
(PID.TID 0000.0001)    Seaice initialization and IO config.,   > START <
(PID.TID 0000.0001)    -------------------------------------------------
(PID.TID 0000.0001) SEAICE_initialHEFF= /* initial sea-ice thickness */
(PID.TID 0000.0001)                 0.000000000000000E+00
(PID.TID 0000.0001)     ;
(PID.TID 0000.0001) AreaFile = /* Initial ice concentration File */
(PID.TID 0000.0001)               ''
(PID.TID 0000.0001)     ;
(PID.TID 0000.0001) HeffFile = /* Initial effective ice thickness File */
(PID.TID 0000.0001)               ''
(PID.TID 0000.0001)     ;
(PID.TID 0000.0001) HsnowFile = /* Initial snow thickness File */
(PID.TID 0000.0001)               ''
(PID.TID 0000.0001)     ;
(PID.TID 0000.0001) uIceFile = /* Initial U-ice velocity File */
(PID.TID 0000.0001)               ''
(PID.TID 0000.0001)     ;
(PID.TID 0000.0001) vIceFile = /* Initial V-ice velocity File */
(PID.TID 0000.0001)               ''
(PID.TID 0000.0001)     ;
(PID.TID 0000.0001) SEAICEwriteState  = /* write sea ice state to file */
(PID.TID 0000.0001)                   T
(PID.TID 0000.0001)     ;
(PID.TID 0000.0001) SEAICE_monFreq  = /* monitor frequency */
(PID.TID 0000.0001)                 7.200000000000000E+03
(PID.TID 0000.0001)     ;
(PID.TID 0000.0001) SEAICE_dumpFreq   = /* dump frequency */
(PID.TID 0000.0001)                 0.000000000000000E+00
(PID.TID 0000.0001)     ;
(PID.TID 0000.0001) SEAICE_taveFreq   = /* time-averaging frequency */
(PID.TID 0000.0001)                 0.000000000000000E+00
(PID.TID 0000.0001)     ;
(PID.TID 0000.0001) SEAICE_mon_stdio  = /* write monitor to std-outp */
(PID.TID 0000.0001)                   T
(PID.TID 0000.0001)     ;
(PID.TID 0000.0001) SEAICE_dump_mdsio = /* write snap-shot   using MDSIO */
(PID.TID 0000.0001)                   T
(PID.TID 0000.0001)     ;
(PID.TID 0000.0001) SEAICE_tave_mdsio = /* write TimeAverage using MDSIO */
(PID.TID 0000.0001)                   T
(PID.TID 0000.0001)     ;
(PID.TID 0000.0001) 
(PID.TID 0000.0001)    Seaice regularization numbers,   > START <
(PID.TID 0000.0001)    -----------------------------------------------
(PID.TID 0000.0001) SEAICE_deltaMin   = /* reduce singularities in Delta */
(PID.TID 0000.0001)                 1.000000000000000E-10
(PID.TID 0000.0001)     ;
(PID.TID 0000.0001) SEAICE_EPS        = /* small number */
(PID.TID 0000.0001)                 1.000000000000000E-10
(PID.TID 0000.0001)     ;
(PID.TID 0000.0001) SEAICE_EPS_SQ     = /* small number squared */
(PID.TID 0000.0001)                 1.000000000000000E-20
(PID.TID 0000.0001)     ;
(PID.TID 0000.0001) SEAICE_area_reg   = /* reduce derivative singularities */
(PID.TID 0000.0001)                 1.000000000000000E-05
(PID.TID 0000.0001)     ;
(PID.TID 0000.0001) SEAICE_hice_reg   = /* reduce derivative singularities */
(PID.TID 0000.0001)                 5.000000000000000E-02
(PID.TID 0000.0001)     ;
(PID.TID 0000.0001) SEAICE_area_floor = /* reduce derivative singularities */
(PID.TID 0000.0001)                 1.000000000000000E-05
(PID.TID 0000.0001)     ;
(PID.TID 0000.0001) 
(PID.TID 0000.0001) // =======================================================
(PID.TID 0000.0001) // Seaice configuration (SEAICE_PARM01) >>> END <<<
(PID.TID 0000.0001) // =======================================================
(PID.TID 0000.0001) 
(PID.TID 0000.0001) ctrl-wet 1:    nvarlength =        34632
(PID.TID 0000.0001) ctrl-wet 2: surface wet C =          312
(PID.TID 0000.0001) ctrl-wet 3: surface wet W =          312
(PID.TID 0000.0001) ctrl-wet 4: surface wet S =          283
(PID.TID 0000.0001) ctrl-wet 4a:surface wet V =            0
(PID.TID 0000.0001) ctrl-wet 5: 3D wet points =        11544
(PID.TID 0000.0001) ctrl-wet 6: no recs for i =     1           0
(PID.TID 0000.0001) ctrl-wet 6: no recs for i =     2           0
(PID.TID 0000.0001) ctrl-wet 6: no recs for i =     3           0
(PID.TID 0000.0001) ctrl-wet 6: no recs for i =     4           0
(PID.TID 0000.0001) ctrl-wet 6: no recs for i =     5           0
(PID.TID 0000.0001) ctrl-wet 6: no recs for i =     6           0
(PID.TID 0000.0001) ctrl-wet 6: no recs for i =     7           0
(PID.TID 0000.0001) ctrl-wet 6: no recs for i =     8           0
(PID.TID 0000.0001) ctrl-wet 6: no recs for i =     9           0
(PID.TID 0000.0001) ctrl-wet 6: no recs for i =    10           0
(PID.TID 0000.0001) ctrl-wet 6: no recs for i =    11           0
(PID.TID 0000.0001) ctrl-wet 6: no recs for i =    12           0
(PID.TID 0000.0001) ctrl-wet 6: no recs for i =    13           0
(PID.TID 0000.0001) ctrl-wet 6: no recs for i =    14           0
(PID.TID 0000.0001) ctrl-wet 6: no recs for i =    15           0
(PID.TID 0000.0001) ctrl-wet 6: no recs for i =    16           0
(PID.TID 0000.0001) ctrl-wet 6: no recs for i =    17           0
(PID.TID 0000.0001) ctrl-wet 6: no recs for i =    18           0
(PID.TID 0000.0001) ctrl-wet 6: no recs for i =    19           0
(PID.TID 0000.0001) ctrl-wet 6: no recs for i =    20           0
(PID.TID 0000.0001) ctrl-wet 6: no recs for i =    21           0
(PID.TID 0000.0001) ctrl-wet 6: no recs for i =    22           0
(PID.TID 0000.0001) ctrl-wet 6: no recs for i =    23           0
(PID.TID 0000.0001) ctrl-wet 6: no recs for i =    24           0
(PID.TID 0000.0001) ctrl-wet 6: no recs for i =    25           0
(PID.TID 0000.0001) ctrl-wet 6: no recs for i =    26           0
(PID.TID 0000.0001) ctrl-wet 6: no recs for i =    27           0
(PID.TID 0000.0001) ctrl-wet 6: no recs for i =    28           0
(PID.TID 0000.0001) ctrl-wet 6: no recs for i =    29           0
(PID.TID 0000.0001) ctrl-wet 6: no recs for i =    30           0
(PID.TID 0000.0001) ctrl-wet 6: no recs for i =    31           0
(PID.TID 0000.0001) ctrl-wet 6: no recs for i =    32           0
(PID.TID 0000.0001) ctrl-wet 6: no recs for i =    33           0
(PID.TID 0000.0001) ctrl-wet 6: no recs for i =    34           0
(PID.TID 0000.0001) ctrl-wet 6: no recs for i =    35           0
(PID.TID 0000.0001) ctrl-wet 6: no recs for i =    36           0
(PID.TID 0000.0001) ctrl-wet 6: no recs for i =    37           0
(PID.TID 0000.0001) ctrl-wet 6: no recs for i =    38           0
(PID.TID 0000.0001) ctrl-wet 6: no recs for i =    39           0
(PID.TID 0000.0001) ctrl-wet 6: no recs for i =    40           0
(PID.TID 0000.0001) ctrl-wet 6: no recs for i =    41           0
(PID.TID 0000.0001) ctrl-wet 6: no recs for i =    42           0
(PID.TID 0000.0001) ctrl-wet 6: no recs for i =    43           0
(PID.TID 0000.0001) ctrl-wet 6: no recs for i =    44           0
(PID.TID 0000.0001) ctrl-wet 6: no recs for i =    45           0
(PID.TID 0000.0001) ctrl-wet 6: no recs for i =    46           0
(PID.TID 0000.0001) ctrl-wet 6: no recs for i =    47           0
(PID.TID 0000.0001) ctrl-wet 6: no recs for i =    48           0
(PID.TID 0000.0001) ctrl-wet 6: no recs for i =    49           0
(PID.TID 0000.0001) ctrl-wet 6: no recs for i =    50           0
(PID.TID 0000.0001) ctrl-wet 6: no recs for i =    51           0
(PID.TID 0000.0001) ctrl-wet 6: no recs for i =    52           0
(PID.TID 0000.0001) ctrl-wet 6: no recs for i =    53           0
(PID.TID 0000.0001) ctrl-wet 6: no recs for i =    54           0
(PID.TID 0000.0001) ctrl-wet 6: no recs for i =    55           0
(PID.TID 0000.0001) ctrl-wet 6: no recs for i =    56           0
(PID.TID 0000.0001) ctrl-wet 6: no recs for i =    57           0
(PID.TID 0000.0001) ctrl-wet 6: no recs for i =    58           0
(PID.TID 0000.0001) ctrl-wet 6: no recs for i =    59           0
(PID.TID 0000.0001) ctrl-wet 6: no recs for i =    60           0
(PID.TID 0000.0001) ctrl-wet 6: no recs for i =    61           0
(PID.TID 0000.0001) ctrl-wet 6: no recs for i =    62           0
(PID.TID 0000.0001) ctrl-wet 6: no recs for i =    63           0
(PID.TID 0000.0001) ctrl-wet 6: no recs for i =    64           0
(PID.TID 0000.0001) ctrl-wet 6: no recs for i =    65           0
(PID.TID 0000.0001) ctrl-wet 6: no recs for i =    66           0
(PID.TID 0000.0001) ctrl-wet 6: no recs for i =    67           0
(PID.TID 0000.0001) ctrl-wet 6: no recs for i =    68           0
(PID.TID 0000.0001) ctrl-wet 6: no recs for i =    69           0
(PID.TID 0000.0001) ctrl-wet 6: no recs for i =    70           0
(PID.TID 0000.0001) ctrl-wet 6: no recs for i =    71           0
(PID.TID 0000.0001) ctrl-wet 6: no recs for i =    72           0
(PID.TID 0000.0001) ctrl-wet 6: no recs for i =    73           0
(PID.TID 0000.0001) ctrl-wet 6: no recs for i =    74           0
(PID.TID 0000.0001) ctrl-wet 6: no recs for i =    75           0
(PID.TID 0000.0001) ctrl-wet 6: no recs for i =    76           0
(PID.TID 0000.0001) ctrl-wet 6: no recs for i =    77           0
(PID.TID 0000.0001) ctrl-wet 6: no recs for i =    78           0
(PID.TID 0000.0001) ctrl-wet 6: no recs for i =    79           0
(PID.TID 0000.0001) ctrl-wet 6: no recs for i =    80           0
(PID.TID 0000.0001) ctrl-wet 6: no recs for i =    81           0
(PID.TID 0000.0001) ctrl-wet 6: no recs for i =    82           0
(PID.TID 0000.0001) ctrl-wet 6: no recs for i =    83           0
(PID.TID 0000.0001) ctrl-wet 6: no recs for i =    84           0
(PID.TID 0000.0001) ctrl-wet 6: no recs for i =    85           0
(PID.TID 0000.0001) ctrl-wet 6: no recs for i =    86           0
(PID.TID 0000.0001) ctrl-wet 6: no recs for i =    87           0
(PID.TID 0000.0001) ctrl-wet 6: no recs for i =    88           0
(PID.TID 0000.0001) ctrl-wet 6: no recs for i =    89           0
(PID.TID 0000.0001) ctrl-wet 6: no recs for i =    90           0
(PID.TID 0000.0001) ctrl-wet 6: no recs for i =    91           0
(PID.TID 0000.0001) ctrl-wet 6: no recs for i =    92           0
(PID.TID 0000.0001) ctrl-wet 6: no recs for i =    93           0
(PID.TID 0000.0001) ctrl-wet 6: no recs for i =    94           0
(PID.TID 0000.0001) ctrl-wet 6: no recs for i =    95           0
(PID.TID 0000.0001) ctrl-wet 6: no recs for i =    96           0
(PID.TID 0000.0001) ctrl-wet 6: no recs for i =    97           0
(PID.TID 0000.0001) ctrl-wet 6: no recs for i =    98           0
(PID.TID 0000.0001) ctrl-wet 6: no recs for i =    99           0
(PID.TID 0000.0001) ctrl-wet 6: no recs for i =   100           0
(PID.TID 0000.0001) ctrl-wet 6: no recs for i =   101           0
(PID.TID 0000.0001) ctrl-wet 6: no recs for i =   102           0
(PID.TID 0000.0001) ctrl-wet 6: no recs for i =   103           0
(PID.TID 0000.0001) ctrl-wet 6: no recs for i =   104           0
(PID.TID 0000.0001) ctrl-wet 6: no recs for i =   105           0
(PID.TID 0000.0001) ctrl-wet 6: no recs for i =   106           0
(PID.TID 0000.0001) ctrl-wet 6: no recs for i =   107           0
(PID.TID 0000.0001) ctrl-wet 6: no recs for i =   108           0
(PID.TID 0000.0001) ctrl-wet 6: no recs for i =   109           0
(PID.TID 0000.0001) ctrl-wet 6: no recs for i =   110           0
(PID.TID 0000.0001) ctrl-wet 6: no recs for i =   111           0
(PID.TID 0000.0001) ctrl-wet 6: no recs for i =   112           0
(PID.TID 0000.0001) ctrl-wet 6: no recs for i =   113           0
(PID.TID 0000.0001) ctrl-wet 6: no recs for i =   114           0
(PID.TID 0000.0001) ctrl-wet 6: no recs for i =   115           0
(PID.TID 0000.0001) ctrl-wet 6: no recs for i =   116           0
(PID.TID 0000.0001) ctrl-wet 6: no recs for i =   117           0
(PID.TID 0000.0001) ctrl-wet 6: no recs for i =   118           0
(PID.TID 0000.0001) ctrl-wet 6: no recs for i =   119           0
(PID.TID 0000.0001) ctrl-wet 6: no recs for i =   120           0
(PID.TID 0000.0001) ctrl-wet 6: no recs for i =   121           0
(PID.TID 0000.0001) ctrl-wet 6: no recs for i =   122           0
(PID.TID 0000.0001) ctrl-wet 6: no recs for i =   123           0
(PID.TID 0000.0001) ctrl-wet 6: no recs for i =   124           0
(PID.TID 0000.0001) ctrl-wet 6: no recs for i =   125           0
(PID.TID 0000.0001) ctrl-wet 6: no recs for i =   126           0
(PID.TID 0000.0001) ctrl-wet 6: no recs for i =   127           0
(PID.TID 0000.0001) ctrl-wet 6: no recs for i =   128           0
(PID.TID 0000.0001) ctrl-wet 6: no recs for i =   129           0
(PID.TID 0000.0001) ctrl-wet 6: no recs for i =   130           0
(PID.TID 0000.0001) ctrl-wet 6: no recs for i =   131           0
(PID.TID 0000.0001) ctrl-wet 6: no recs for i =   132           0
(PID.TID 0000.0001) ctrl-wet 6: no recs for i =   133           0
(PID.TID 0000.0001) ctrl-wet 6: no recs for i =   134           0
(PID.TID 0000.0001) ctrl-wet 6: no recs for i =   135           0
(PID.TID 0000.0001) ctrl-wet 6: no recs for i =   136           0
(PID.TID 0000.0001) ctrl-wet 6: no recs for i =   137           0
(PID.TID 0000.0001) ctrl-wet 6: no recs for i =   138           0
(PID.TID 0000.0001) ctrl-wet 6: no recs for i =   139           0
(PID.TID 0000.0001) ctrl-wet 6: no recs for i =   140           0
(PID.TID 0000.0001) ctrl-wet 6: no recs for i =   141           0
(PID.TID 0000.0001) ctrl-wet 6: no recs for i =   142           0
(PID.TID 0000.0001) ctrl-wet 6: no recs for i =   143           0
(PID.TID 0000.0001) ctrl-wet 6: no recs for i =   144           0
(PID.TID 0000.0001) ctrl-wet 6: no recs for i =   145           0
(PID.TID 0000.0001) ctrl-wet 6: no recs for i =   146           0
(PID.TID 0000.0001) ctrl-wet 6: no recs for i =   147           0
(PID.TID 0000.0001) ctrl-wet 6: no recs for i =   148           0
(PID.TID 0000.0001) ctrl-wet 6: no recs for i =   149           0
(PID.TID 0000.0001) ctrl-wet 6: no recs for i =   150           0
(PID.TID 0000.0001) ctrl-wet 6: no recs for i =   151           0
(PID.TID 0000.0001) ctrl-wet 6: no recs for i =   152           0
(PID.TID 0000.0001) ctrl-wet 6: no recs for i =   153           0
(PID.TID 0000.0001) ctrl-wet 6: no recs for i =   154           0
(PID.TID 0000.0001) ctrl-wet 6: no recs for i =   155           0
(PID.TID 0000.0001) ctrl-wet 6: no recs for i =   156           0
(PID.TID 0000.0001) ctrl-wet 6: no recs for i =   157           0
(PID.TID 0000.0001) ctrl-wet 6: no recs for i =   158           0
(PID.TID 0000.0001) ctrl-wet 6: no recs for i =   159           0
(PID.TID 0000.0001) ctrl-wet 6: no recs for i =   160           0
(PID.TID 0000.0001) ctrl-wet 6: no recs for i =   161           0
(PID.TID 0000.0001) ctrl-wet 6: no recs for i =   162           0
(PID.TID 0000.0001) ctrl-wet 6: no recs for i =   163           0
(PID.TID 0000.0001) ctrl-wet 6: no recs for i =   164           0
(PID.TID 0000.0001) ctrl-wet 6: no recs for i =   165           0
(PID.TID 0000.0001) ctrl-wet 6: no recs for i =   166           0
(PID.TID 0000.0001) ctrl-wet 6: no recs for i =   167           0
(PID.TID 0000.0001) ctrl-wet 6: no recs for i =   168           0
(PID.TID 0000.0001) ctrl-wet 6: no recs for i =   169           0
(PID.TID 0000.0001) ctrl-wet 6: no recs for i =   170           0
(PID.TID 0000.0001) ctrl-wet 6: no recs for i =   171           0
(PID.TID 0000.0001) ctrl-wet 6: no recs for i =   172           0
(PID.TID 0000.0001) ctrl-wet 6: no recs for i =   173           0
(PID.TID 0000.0001) ctrl-wet 6: no recs for i =   174           0
(PID.TID 0000.0001) ctrl-wet 6: no recs for i =   175           0
(PID.TID 0000.0001) ctrl-wet 6: no recs for i =   176           0
(PID.TID 0000.0001) ctrl-wet 6: no recs for i =   177           0
(PID.TID 0000.0001) ctrl-wet 6: no recs for i =   178           0
(PID.TID 0000.0001) ctrl-wet 6: no recs for i =   179           0
(PID.TID 0000.0001) ctrl-wet 6: no recs for i =   180           0
(PID.TID 0000.0001) ctrl-wet 6: no recs for i =   181           0
(PID.TID 0000.0001) ctrl-wet 6: no recs for i =   182           0
(PID.TID 0000.0001) ctrl-wet 6: no recs for i =   183           0
(PID.TID 0000.0001) ctrl-wet 6: no recs for i =   184           0
(PID.TID 0000.0001) ctrl-wet 6: no recs for i =   185           0
(PID.TID 0000.0001) ctrl-wet 6: no recs for i =   186           0
(PID.TID 0000.0001) ctrl-wet 6: no recs for i =   187           0
(PID.TID 0000.0001) ctrl-wet 6: no recs for i =   188           0
(PID.TID 0000.0001) ctrl-wet 6: no recs for i =   189           0
(PID.TID 0000.0001) ctrl-wet 6: no recs for i =   190           0
(PID.TID 0000.0001) ctrl-wet 6: no recs for i =   191           0
(PID.TID 0000.0001) ctrl-wet 6: no recs for i =   192           0
(PID.TID 0000.0001) ctrl-wet 6: no recs for i =   193           0
(PID.TID 0000.0001) ctrl-wet 6: no recs for i =   194           0
(PID.TID 0000.0001) ctrl-wet 6: no recs for i =   195           0
(PID.TID 0000.0001) ctrl-wet 6: no recs for i =   196           0
(PID.TID 0000.0001) ctrl-wet 6: no recs for i =   197           0
(PID.TID 0000.0001) ctrl-wet 6: no recs for i =   198           0
(PID.TID 0000.0001) ctrl-wet 6: no recs for i =   199           0
(PID.TID 0000.0001) ctrl-wet 6: no recs for i =   200           0
(PID.TID 0000.0001) ctrl-wet 6: no recs for i =   201           1
(PID.TID 0000.0001) ctrl-wet 6: no recs for i =   202           1
(PID.TID 0000.0001) ctrl-wet 6: no recs for i =   203           1
(PID.TID 0000.0001) ctrl-wet 6: no recs for i =   204           0
(PID.TID 0000.0001) ctrl-wet 6: no recs for i =   205           0
(PID.TID 0000.0001) ctrl-wet 6: no recs for i =   206           0
(PID.TID 0000.0001) ctrl-wet 6: no recs for i =   207           0
(PID.TID 0000.0001) ctrl-wet 6: no recs for i =   208           0
(PID.TID 0000.0001) ctrl-wet 6: no recs for i =   209           0
(PID.TID 0000.0001) ctrl-wet 6: no recs for i =   210           0
(PID.TID 0000.0001) ctrl-wet 6: no recs for i =   211           0
(PID.TID 0000.0001) ctrl-wet 6: no recs for i =   212           0
(PID.TID 0000.0001) ctrl-wet 6: no recs for i =   213           0
(PID.TID 0000.0001) ctrl-wet 6: no recs for i =   214           0
(PID.TID 0000.0001) ctrl-wet 6: no recs for i =   215           0
(PID.TID 0000.0001) ctrl-wet 6: no recs for i =   216           0
(PID.TID 0000.0001) ctrl-wet 6: no recs for i =   217           0
(PID.TID 0000.0001) ctrl-wet 6: no recs for i =   218           0
(PID.TID 0000.0001) ctrl-wet 6: no recs for i =   219           0
(PID.TID 0000.0001) ctrl-wet 6: no recs for i =   220           0
(PID.TID 0000.0001) ctrl-wet 6: no recs for i =   221           0
(PID.TID 0000.0001) ctrl-wet 6: no recs for i =   222           0
(PID.TID 0000.0001) ctrl-wet 6: no recs for i =   223           0
(PID.TID 0000.0001) ctrl-wet 6: no recs for i =   224           0
(PID.TID 0000.0001) ctrl-wet 6: no recs for i =   225           0
(PID.TID 0000.0001) ctrl-wet 6: no recs for i =   226           0
(PID.TID 0000.0001) ctrl-wet 6: no recs for i =   227           0
(PID.TID 0000.0001) ctrl-wet 6: no recs for i =   228           0
(PID.TID 0000.0001) ctrl-wet 6: no recs for i =   229           0
(PID.TID 0000.0001) ctrl-wet 6: no recs for i =   230           0
(PID.TID 0000.0001) ctrl-wet 6: no recs for i =   231           0
(PID.TID 0000.0001) ctrl-wet 6: no recs for i =   232           0
(PID.TID 0000.0001) ctrl-wet 6: no recs for i =   233           0
(PID.TID 0000.0001) ctrl-wet 6: no recs for i =   234           0
(PID.TID 0000.0001) ctrl-wet 6: no recs for i =   235           0
(PID.TID 0000.0001) ctrl-wet 6: no recs for i =   236           0
(PID.TID 0000.0001) ctrl-wet 6: no recs for i =   237           0
(PID.TID 0000.0001) ctrl-wet 6: no recs for i =   238           0
(PID.TID 0000.0001) ctrl-wet 6: no recs for i =   239           0
(PID.TID 0000.0001) ctrl-wet 6: no recs for i =   240           0
(PID.TID 0000.0001) ctrl-wet 6: no recs for i =   241           0
(PID.TID 0000.0001) ctrl-wet 6: no recs for i =   242           0
(PID.TID 0000.0001) ctrl-wet 6: no recs for i =   243           0
(PID.TID 0000.0001) ctrl-wet 6: no recs for i =   244           0
(PID.TID 0000.0001) ctrl-wet 6: no recs for i =   245           0
(PID.TID 0000.0001) ctrl-wet 6: no recs for i =   246           0
(PID.TID 0000.0001) ctrl-wet 6: no recs for i =   247           0
(PID.TID 0000.0001) ctrl-wet 6: no recs for i =   248           0
(PID.TID 0000.0001) ctrl-wet 6: no recs for i =   249           0
(PID.TID 0000.0001) ctrl-wet 6: no recs for i =   250           0
(PID.TID 0000.0001) ctrl-wet 6: no recs for i =   251           0
(PID.TID 0000.0001) ctrl-wet 6: no recs for i =   252           0
(PID.TID 0000.0001) ctrl-wet 6: no recs for i =   253           0
(PID.TID 0000.0001) ctrl-wet 6: no recs for i =   254           0
(PID.TID 0000.0001) ctrl-wet 6: no recs for i =   255           0
(PID.TID 0000.0001) ctrl-wet 6: no recs for i =   256           0
(PID.TID 0000.0001) ctrl-wet 6: no recs for i =   257           0
(PID.TID 0000.0001) ctrl-wet 6: no recs for i =   258           0
(PID.TID 0000.0001) ctrl-wet 6: no recs for i =   259           0
(PID.TID 0000.0001) ctrl-wet 6: no recs for i =   260           0
(PID.TID 0000.0001) ctrl-wet 6: no recs for i =   261           0
(PID.TID 0000.0001) ctrl-wet 6: no recs for i =   262           0
(PID.TID 0000.0001) ctrl-wet 6: no recs for i =   263           0
(PID.TID 0000.0001) ctrl-wet 6: no recs for i =   264           0
(PID.TID 0000.0001) ctrl-wet 6: no recs for i =   265           0
(PID.TID 0000.0001) ctrl-wet 6: no recs for i =   266           0
(PID.TID 0000.0001) ctrl-wet 6: no recs for i =   267           0
(PID.TID 0000.0001) ctrl-wet 6: no recs for i =   268           0
(PID.TID 0000.0001) ctrl-wet 6: no recs for i =   269           0
(PID.TID 0000.0001) ctrl-wet 6: no recs for i =   270           0
(PID.TID 0000.0001) ctrl-wet 6: no recs for i =   271           0
(PID.TID 0000.0001) ctrl-wet 6: no recs for i =   272           0
(PID.TID 0000.0001) ctrl-wet 6: no recs for i =   273           0
(PID.TID 0000.0001) ctrl-wet 6: no recs for i =   274           0
(PID.TID 0000.0001) ctrl-wet 6: no recs for i =   275           0
(PID.TID 0000.0001) ctrl-wet 6: no recs for i =   276           0
(PID.TID 0000.0001) ctrl-wet 6: no recs for i =   277           0
(PID.TID 0000.0001) ctrl-wet 6: no recs for i =   278           0
(PID.TID 0000.0001) ctrl-wet 6: no recs for i =   279           0
(PID.TID 0000.0001) ctrl-wet 6: no recs for i =   280           0
(PID.TID 0000.0001) ctrl-wet 6: no recs for i =   281           0
(PID.TID 0000.0001) ctrl-wet 6: no recs for i =   282           0
(PID.TID 0000.0001) ctrl-wet 6: no recs for i =   283           0
(PID.TID 0000.0001) ctrl-wet 6: no recs for i =   284           0
(PID.TID 0000.0001) ctrl-wet 6: no recs for i =   285           0
(PID.TID 0000.0001) ctrl-wet 6: no recs for i =   286           0
(PID.TID 0000.0001) ctrl-wet 6: no recs for i =   287           0
(PID.TID 0000.0001) ctrl-wet 6: no recs for i =   288           0
(PID.TID 0000.0001) ctrl-wet 6: no recs for i =   289           0
(PID.TID 0000.0001) ctrl-wet 6: no recs for i =   290           0
(PID.TID 0000.0001) ctrl-wet 6: no recs for i =   291           0
(PID.TID 0000.0001) ctrl-wet 6: no recs for i =   292           0
(PID.TID 0000.0001) ctrl-wet 6: no recs for i =   293           0
(PID.TID 0000.0001) ctrl-wet 6: no recs for i =   294           0
(PID.TID 0000.0001) ctrl-wet 6: no recs for i =   295           0
(PID.TID 0000.0001) ctrl-wet 6: no recs for i =   296           0
(PID.TID 0000.0001) ctrl-wet 6: no recs for i =   297           0
(PID.TID 0000.0001) ctrl-wet 6: no recs for i =   298           0
(PID.TID 0000.0001) ctrl-wet 6: no recs for i =   299           0
(PID.TID 0000.0001) ctrl-wet 6: no recs for i =   300           0
(PID.TID 0000.0001) ctrl-wet 6: no recs for i =   301           0
(PID.TID 0000.0001) ctrl-wet 6: no recs for i =   302           0
(PID.TID 0000.0001) ctrl-wet 6: no recs for i =   303           0
(PID.TID 0000.0001) ctrl-wet 6: no recs for i =   304           0
(PID.TID 0000.0001) ctrl-wet 6: no recs for i =   305           0
(PID.TID 0000.0001) ctrl-wet 6: no recs for i =   306           0
(PID.TID 0000.0001) ctrl-wet 6: no recs for i =   307           0
(PID.TID 0000.0001) ctrl-wet 6: no recs for i =   308           0
(PID.TID 0000.0001) ctrl-wet 6: no recs for i =   309           0
(PID.TID 0000.0001) ctrl-wet 6: no recs for i =   310           0
(PID.TID 0000.0001) ctrl-wet 6: no recs for i =   311           0
(PID.TID 0000.0001) ctrl-wet 6: no recs for i =   312           0
(PID.TID 0000.0001) ctrl-wet 6: no recs for i =   313           0
(PID.TID 0000.0001) ctrl-wet 6: no recs for i =   314           0
(PID.TID 0000.0001) ctrl-wet 6: no recs for i =   315           0
(PID.TID 0000.0001) ctrl-wet 6: no recs for i =   316           0
(PID.TID 0000.0001) ctrl-wet 6: no recs for i =   317           0
(PID.TID 0000.0001) ctrl-wet 6: no recs for i =   318           0
(PID.TID 0000.0001) ctrl-wet 6: no recs for i =   319           0
(PID.TID 0000.0001) ctrl-wet 6: no recs for i =   320           0
(PID.TID 0000.0001) ctrl-wet 6: no recs for i =   321           0
(PID.TID 0000.0001) ctrl-wet 6: no recs for i =   322           0
(PID.TID 0000.0001) ctrl-wet 6: no recs for i =   323           0
(PID.TID 0000.0001) ctrl-wet 6: no recs for i =   324           0
(PID.TID 0000.0001) ctrl-wet 6: no recs for i =   325           0
(PID.TID 0000.0001) ctrl-wet 6: no recs for i =   326           0
(PID.TID 0000.0001) ctrl-wet 6: no recs for i =   327           0
(PID.TID 0000.0001) ctrl-wet 6: no recs for i =   328           0
(PID.TID 0000.0001) ctrl-wet 6: no recs for i =   329           0
(PID.TID 0000.0001) ctrl-wet 6: no recs for i =   330           0
(PID.TID 0000.0001) ctrl-wet 6: no recs for i =   331           0
(PID.TID 0000.0001) ctrl-wet 6: no recs for i =   332           0
(PID.TID 0000.0001) ctrl-wet 6: no recs for i =   333           0
(PID.TID 0000.0001) ctrl-wet 6: no recs for i =   334           0
(PID.TID 0000.0001) ctrl-wet 6: no recs for i =   335           0
(PID.TID 0000.0001) ctrl-wet 6: no recs for i =   336           0
(PID.TID 0000.0001) ctrl-wet 6: no recs for i =   337           0
(PID.TID 0000.0001) ctrl-wet 6: no recs for i =   338           0
(PID.TID 0000.0001) ctrl-wet 6: no recs for i =   339           0
(PID.TID 0000.0001) ctrl-wet 6: no recs for i =   340           0
(PID.TID 0000.0001) ctrl-wet 6: no recs for i =   341           0
(PID.TID 0000.0001) ctrl-wet 6: no recs for i =   342           0
(PID.TID 0000.0001) ctrl-wet 6: no recs for i =   343           0
(PID.TID 0000.0001) ctrl-wet 6: no recs for i =   344           0
(PID.TID 0000.0001) ctrl-wet 6: no recs for i =   345           0
(PID.TID 0000.0001) ctrl-wet 6: no recs for i =   346           0
(PID.TID 0000.0001) ctrl-wet 6: no recs for i =   347           0
(PID.TID 0000.0001) ctrl-wet 6: no recs for i =   348           0
(PID.TID 0000.0001) ctrl-wet 6: no recs for i =   349           0
(PID.TID 0000.0001) ctrl-wet 6: no recs for i =   350           0
(PID.TID 0000.0001) ctrl-wet 6: no recs for i =   351           0
(PID.TID 0000.0001) ctrl-wet 6: no recs for i =   352           0
(PID.TID 0000.0001) ctrl-wet 6: no recs for i =   353           0
(PID.TID 0000.0001) ctrl-wet 6: no recs for i =   354           0
(PID.TID 0000.0001) ctrl-wet 6: no recs for i =   355           0
(PID.TID 0000.0001) ctrl-wet 6: no recs for i =   356           0
(PID.TID 0000.0001) ctrl-wet 6: no recs for i =   357           0
(PID.TID 0000.0001) ctrl-wet 6: no recs for i =   358           0
(PID.TID 0000.0001) ctrl-wet 6: no recs for i =   359           0
(PID.TID 0000.0001) ctrl-wet 6: no recs for i =   360           0
(PID.TID 0000.0001) ctrl-wet 6: no recs for i =   361           0
(PID.TID 0000.0001) ctrl-wet 6: no recs for i =   362           0
(PID.TID 0000.0001) ctrl-wet 6: no recs for i =   363           0
(PID.TID 0000.0001) ctrl-wet 6: no recs for i =   364           0
(PID.TID 0000.0001) ctrl-wet 6: no recs for i =   365           0
(PID.TID 0000.0001) ctrl-wet 6: no recs for i =   366           0
(PID.TID 0000.0001) ctrl-wet 6: no recs for i =   367           0
(PID.TID 0000.0001) ctrl-wet 6: no recs for i =   368           0
(PID.TID 0000.0001) ctrl-wet 6: no recs for i =   369           0
(PID.TID 0000.0001) ctrl-wet 6: no recs for i =   370           0
(PID.TID 0000.0001) ctrl-wet 6: no recs for i =   371           0
(PID.TID 0000.0001) ctrl-wet 6: no recs for i =   372           0
(PID.TID 0000.0001) ctrl-wet 6: no recs for i =   373           0
(PID.TID 0000.0001) ctrl-wet 6: no recs for i =   374           0
(PID.TID 0000.0001) ctrl-wet 6: no recs for i =   375           0
(PID.TID 0000.0001) ctrl-wet 6: no recs for i =   376           0
(PID.TID 0000.0001) ctrl-wet 6: no recs for i =   377           0
(PID.TID 0000.0001) ctrl-wet 6: no recs for i =   378           0
(PID.TID 0000.0001) ctrl-wet 6: no recs for i =   379           0
(PID.TID 0000.0001) ctrl-wet 6: no recs for i =   380           0
(PID.TID 0000.0001) ctrl-wet 6: no recs for i =   381           0
(PID.TID 0000.0001) ctrl-wet 6: no recs for i =   382           0
(PID.TID 0000.0001) ctrl-wet 6: no recs for i =   383           0
(PID.TID 0000.0001) ctrl-wet 6: no recs for i =   384           0
(PID.TID 0000.0001) ctrl-wet 6: no recs for i =   385           0
(PID.TID 0000.0001) ctrl-wet 6: no recs for i =   386           0
(PID.TID 0000.0001) ctrl-wet 6: no recs for i =   387           0
(PID.TID 0000.0001) ctrl-wet 6: no recs for i =   388           0
(PID.TID 0000.0001) ctrl-wet 6: no recs for i =   389           0
(PID.TID 0000.0001) ctrl-wet 6: no recs for i =   390           0
(PID.TID 0000.0001) ctrl-wet 6: no recs for i =   391           0
(PID.TID 0000.0001) ctrl-wet 6: no recs for i =   392           0
(PID.TID 0000.0001) ctrl-wet 6: no recs for i =   393           0
(PID.TID 0000.0001) ctrl-wet 6: no recs for i =   394           0
(PID.TID 0000.0001) ctrl-wet 6: no recs for i =   395           0
(PID.TID 0000.0001) ctrl-wet 6: no recs for i =   396           0
(PID.TID 0000.0001) ctrl-wet 6: no recs for i =   397           0
(PID.TID 0000.0001) ctrl-wet 6: no recs for i =   398           0
(PID.TID 0000.0001) ctrl-wet 6: no recs for i =   399           0
(PID.TID 0000.0001) ctrl-wet 6: no recs for i =   400           0
(PID.TID 0000.0001) ctrl-wet 7: flux         23088
(PID.TID 0000.0001) ctrl-wet 8: atmos        23088
(PID.TID 0000.0001) ctrl-wet -------------------------------------------------
(PID.TID 0000.0001) ctrl-wet 13: global nvarlength for Nr =   50     7220976
(PID.TID 0000.0001) ctrl-wet -------------------------------------------------
(PID.TID 0000.0001) ctrl-wet 14: global nWet C/S/W/V k=    1       60646       59295       59493           0
(PID.TID 0000.0001) ctrl-wet 14: global nWet C/S/W/V k=    2       60646       59295       59493           0
(PID.TID 0000.0001) ctrl-wet 14: global nWet C/S/W/V k=    3       59874       58517       58725           0
(PID.TID 0000.0001) ctrl-wet 14: global nWet C/S/W/V k=    4       59387       58040       58258           0
(PID.TID 0000.0001) ctrl-wet 14: global nWet C/S/W/V k=    5       58882       57536       57754           0
(PID.TID 0000.0001) ctrl-wet 14: global nWet C/S/W/V k=    6       58399       57057       57276           0
(PID.TID 0000.0001) ctrl-wet 14: global nWet C/S/W/V k=    7       58052       56735       56936           0
(PID.TID 0000.0001) ctrl-wet 14: global nWet C/S/W/V k=    8       57781       56461       56669           0
(PID.TID 0000.0001) ctrl-wet 14: global nWet C/S/W/V k=    9       57530       56212       56416           0
(PID.TID 0000.0001) ctrl-wet 14: global nWet C/S/W/V k=   10       57283       55964       56154           0
(PID.TID 0000.0001) ctrl-wet 14: global nWet C/S/W/V k=   11       57022       55702       55883           0
(PID.TID 0000.0001) ctrl-wet 14: global nWet C/S/W/V k=   12       56818       55497       55681           0
(PID.TID 0000.0001) ctrl-wet 14: global nWet C/S/W/V k=   13       56634       55322       55509           0
(PID.TID 0000.0001) ctrl-wet 14: global nWet C/S/W/V k=   14       56430       55125       55312           0
(PID.TID 0000.0001) ctrl-wet 14: global nWet C/S/W/V k=   15       56238       54935       55117           0
(PID.TID 0000.0001) ctrl-wet 14: global nWet C/S/W/V k=   16       55975       54689       54858           0
(PID.TID 0000.0001) ctrl-wet 14: global nWet C/S/W/V k=   17       55703       54421       54600           0
(PID.TID 0000.0001) ctrl-wet 14: global nWet C/S/W/V k=   18       55358       54075       54251           0
(PID.TID 0000.0001) ctrl-wet 14: global nWet C/S/W/V k=   19       54964       53666       53853           0
(PID.TID 0000.0001) ctrl-wet 14: global nWet C/S/W/V k=   20       54471       53205       53372           0
(PID.TID 0000.0001) ctrl-wet 14: global nWet C/S/W/V k=   21       53952       52716       52877           0
(PID.TID 0000.0001) ctrl-wet 14: global nWet C/S/W/V k=   22       53489       52249       52409           0
(PID.TID 0000.0001) ctrl-wet 14: global nWet C/S/W/V k=   23       52892       51633       51797           0
(PID.TID 0000.0001) ctrl-wet 14: global nWet C/S/W/V k=   24       52223       50961       51129           0
(PID.TID 0000.0001) ctrl-wet 14: global nWet C/S/W/V k=   25       51696       50480       50635           0
(PID.TID 0000.0001) ctrl-wet 14: global nWet C/S/W/V k=   26       51259       50075       50241           0
(PID.TID 0000.0001) ctrl-wet 14: global nWet C/S/W/V k=   27       50929       49774       49935           0
(PID.TID 0000.0001) ctrl-wet 14: global nWet C/S/W/V k=   28       50664       49532       49678           0
(PID.TID 0000.0001) ctrl-wet 14: global nWet C/S/W/V k=   29       50438       49306       49450           0
(PID.TID 0000.0001) ctrl-wet 14: global nWet C/S/W/V k=   30       50187       49035       49179           0
(PID.TID 0000.0001) ctrl-wet 14: global nWet C/S/W/V k=   31       49964       48805       48937           0
(PID.TID 0000.0001) ctrl-wet 14: global nWet C/S/W/V k=   32       49700       48530       48662           0
(PID.TID 0000.0001) ctrl-wet 14: global nWet C/S/W/V k=   33       49431       48260       48383           0
(PID.TID 0000.0001) ctrl-wet 14: global nWet C/S/W/V k=   34       49176       47993       48108           0
(PID.TID 0000.0001) ctrl-wet 14: global nWet C/S/W/V k=   35       48854       47652       47764           0
(PID.TID 0000.0001) ctrl-wet 14: global nWet C/S/W/V k=   36       48501       47264       47375           0
(PID.TID 0000.0001) ctrl-wet 14: global nWet C/S/W/V k=   37       48098       46846       46951           0
(PID.TID 0000.0001) ctrl-wet 14: global nWet C/S/W/V k=   38       47523       46253       46362           0
(PID.TID 0000.0001) ctrl-wet 14: global nWet C/S/W/V k=   39       46849       45558       45657           0
(PID.TID 0000.0001) ctrl-wet 14: global nWet C/S/W/V k=   40       45984       44670       44751           0
(PID.TID 0000.0001) ctrl-wet 14: global nWet C/S/W/V k=   41       44793       43419       43459           0
(PID.TID 0000.0001) ctrl-wet 14: global nWet C/S/W/V k=   42       42984       41497       41533           0
(PID.TID 0000.0001) ctrl-wet 14: global nWet C/S/W/V k=   43       40302       38691       38718           0
(PID.TID 0000.0001) ctrl-wet 14: global nWet C/S/W/V k=   44       36689       35007       35032           0
(PID.TID 0000.0001) ctrl-wet 14: global nWet C/S/W/V k=   45       31681       30069       29999           0
(PID.TID 0000.0001) ctrl-wet 14: global nWet C/S/W/V k=   46       25595       24028       24031           0
(PID.TID 0000.0001) ctrl-wet 14: global nWet C/S/W/V k=   47       18224       16890       16872           0
(PID.TID 0000.0001) ctrl-wet 14: global nWet C/S/W/V k=   48       11407       10397       10351           0
(PID.TID 0000.0001) ctrl-wet 14: global nWet C/S/W/V k=   49        4597        3913        3912           0
(PID.TID 0000.0001) ctrl-wet 14: global nWet C/S/W/V k=   50         818         624         622           0
(PID.TID 0000.0001) ctrl-wet -------------------------------------------------
(PID.TID 0000.0001) ctrl-wet -------------------------------------------------
(PID.TID 0000.0001) ctrl-wet -------------------------------------------------
(PID.TID 0000.0001) ctrl_init: no. of control variables:            3
(PID.TID 0000.0001) ctrl_init: control vector length:         7220976
(PID.TID 0000.0001) 
(PID.TID 0000.0001) // =======================================================
(PID.TID 0000.0001) // control vector configuration  >>> START <<<
(PID.TID 0000.0001) // =======================================================
(PID.TID 0000.0001) 
(PID.TID 0000.0001)  Total number of ocean points per tile:
(PID.TID 0000.0001)  --------------------------------------
(PID.TID 0000.0001)  snx*sny*nr =    45000
(PID.TID 0000.0001) 
(PID.TID 0000.0001)  Number of ocean points per tile:
(PID.TID 0000.0001)  --------------------------------
(PID.TID 0000.0001)  bi,bj,#(c/s/w): 0001 0001 011544 010207 011460
(PID.TID 0000.0001) 
(PID.TID 0000.0001)  Settings of generic controls:
(PID.TID 0000.0001)  -----------------------------
(PID.TID 0000.0001) 
(PID.TID 0000.0001)  ctrlUseGen  =     T /* use generic controls */
(PID.TID 0000.0001)  -> 3d control, genarr3d no.  1 is in use
(PID.TID 0000.0001)       file       = xx_kapgm
(PID.TID 0000.0001)       weight     = wt_ones.data
(PID.TID 0000.0001)  -> 3d control, genarr3d no.  2 is in use
(PID.TID 0000.0001)       file       = xx_kapredi
(PID.TID 0000.0001)       weight     = wt_ones.data
(PID.TID 0000.0001)  -> 3d control, genarr3d no.  3 is in use
(PID.TID 0000.0001)       file       = xx_diffkr
(PID.TID 0000.0001)       weight     = wt_ones.data
(PID.TID 0000.0001) 
(PID.TID 0000.0001) // =======================================================
(PID.TID 0000.0001) // control vector configuration  >>> END <<<
(PID.TID 0000.0001) // =======================================================
(PID.TID 0000.0001) 
(PID.TID 0000.0001) ------------------------------------------------------------
(PID.TID 0000.0001) DIAGNOSTICS_SET_LEVELS: done
(PID.TID 0000.0001)  Total Nb of available Diagnostics: ndiagt=   298
(PID.TID 0000.0001)  write list of available Diagnostics to file: available_diagnostics.log
(PID.TID 0000.0001) SETDIAG: Allocate  1 x  1 Levels for Diagnostic #    23 ETAN
(PID.TID 0000.0001) SETDIAG: Allocate  1 x  1 Levels for Diagnostic #    25 DETADT2
(PID.TID 0000.0001) SETDIAG: Allocate  1 x  1 Levels for Diagnostic #    73 PHIBOT
(PID.TID 0000.0001) SETDIAG: Allocate  1 x  1 Levels for Diagnostic #    77 MXLDEPTH
(PID.TID 0000.0001) SETDIAG: Allocate  1 x  1 Levels for Diagnostic #   298 oceSPDep
(PID.TID 0000.0001) SETDIAG: Allocate  1 x  1 Levels for Diagnostic #    86 oceQnet
(PID.TID 0000.0001) SETDIAG: Allocate  1 x  1 Levels for Diagnostic #    84 oceFWflx
(PID.TID 0000.0001) SETDIAG: Allocate  1 x  1 Levels for Diagnostic #    80 oceTAUX
(PID.TID 0000.0001) SETDIAG: Allocate  1 x  1 Levels for Diagnostic #    81 oceTAUY
(PID.TID 0000.0001) SETDIAG: Allocate 50 x  1 Levels for Diagnostic #    26 THETA
(PID.TID 0000.0001) SETDIAG: Allocate 50 x  1 Levels for Diagnostic #    27 SALT
(PID.TID 0000.0001) SETDIAG: Allocate 50 x  1 Levels for Diagnostic #    78 DRHODR
(PID.TID 0000.0001) SETDIAG: Allocate 50 x  1 Levels for Diagnostic #    45 UVELMASS
(PID.TID 0000.0001) SETDIAG: Allocate 50 x  1 Levels for Diagnostic #    46 VVELMASS
(PID.TID 0000.0001) SETDIAG: Allocate 50 x  1 Levels for Diagnostic #    47 WVELMASS
(PID.TID 0000.0001) SETDIAG: Allocate 50 x  1 Levels for Diagnostic #   201 GM_PsiX
(PID.TID 0000.0001) SETDIAG: Allocate 50 x  1 Levels for Diagnostic #   202 GM_PsiY
(PID.TID 0000.0001) SETDIAG: Allocate 50 x  1 Levels for Diagnostic #   117 DFxE_TH
(PID.TID 0000.0001) SETDIAG: Allocate 50 x  1 Levels for Diagnostic #   118 DFyE_TH
(PID.TID 0000.0001) SETDIAG: Allocate 50 x  1 Levels for Diagnostic #   114 ADVx_TH
(PID.TID 0000.0001) SETDIAG: Allocate 50 x  1 Levels for Diagnostic #   115 ADVy_TH
(PID.TID 0000.0001) SETDIAG: Allocate 50 x  1 Levels for Diagnostic #   124 DFxE_SLT
(PID.TID 0000.0001) SETDIAG: Allocate 50 x  1 Levels for Diagnostic #   125 DFyE_SLT
(PID.TID 0000.0001) SETDIAG: Allocate 50 x  1 Levels for Diagnostic #   121 ADVx_SLT
(PID.TID 0000.0001) SETDIAG: Allocate 50 x  1 Levels for Diagnostic #   122 ADVy_SLT
(PID.TID 0000.0001)   space allocated for all diagnostics:     809 levels
(PID.TID 0000.0001)   set mate pointer for diag #    80  oceTAUX  , Parms: UU      U1 , mate:    81
(PID.TID 0000.0001)   set mate pointer for diag #    81  oceTAUY  , Parms: VV      U1 , mate:    80
(PID.TID 0000.0001)   set mate pointer for diag #    45  UVELMASS , Parms: UUr     MR , mate:    46
(PID.TID 0000.0001)   set mate pointer for diag #    46  VVELMASS , Parms: VVr     MR , mate:    45
(PID.TID 0000.0001)   set mate pointer for diag #   201  GM_PsiX  , Parms: UU      LR , mate:   202
(PID.TID 0000.0001)   set mate pointer for diag #   202  GM_PsiY  , Parms: VV      LR , mate:   201
(PID.TID 0000.0001)   set mate pointer for diag #   117  DFxE_TH  , Parms: UU      MR , mate:   118
(PID.TID 0000.0001)   set mate pointer for diag #   118  DFyE_TH  , Parms: VV      MR , mate:   117
(PID.TID 0000.0001)   set mate pointer for diag #   114  ADVx_TH  , Parms: UU      MR , mate:   115
(PID.TID 0000.0001)   set mate pointer for diag #   115  ADVy_TH  , Parms: VV      MR , mate:   114
(PID.TID 0000.0001)   set mate pointer for diag #   124  DFxE_SLT , Parms: UU      MR , mate:   125
(PID.TID 0000.0001)   set mate pointer for diag #   125  DFyE_SLT , Parms: VV      MR , mate:   124
(PID.TID 0000.0001)   set mate pointer for diag #   121  ADVx_SLT , Parms: UU      MR , mate:   122
(PID.TID 0000.0001)   set mate pointer for diag #   122  ADVy_SLT , Parms: VV      MR , mate:   121
(PID.TID 0000.0001) DIAGNOSTICS_SET_POINTERS: Set levels for Outp.Stream: state_2d_set1
(PID.TID 0000.0001)  Levels:       1.
(PID.TID 0000.0001) DIAGNOSTICS_SET_POINTERS: Set levels for Outp.Stream: state_3d_set1
(PID.TID 0000.0001)  Levels:       1.   2.   3.   4.   5.   6.   7.   8.   9.  10.  11.  12.  13.  14.  15.  16.  17.  18.  19.  20.
(PID.TID 0000.0001)  Levels:      21.  22.  23.  24.  25.  26.  27.  28.  29.  30.  31.  32.  33.  34.  35.  36.  37.  38.  39.  40.
(PID.TID 0000.0001)  Levels:      41.  42.  43.  44.  45.  46.  47.  48.  49.  50.
(PID.TID 0000.0001) DIAGNOSTICS_SET_POINTERS: Set levels for Outp.Stream: trsp_3d_set1
(PID.TID 0000.0001)  Levels:       1.   2.   3.   4.   5.   6.   7.   8.   9.  10.  11.  12.  13.  14.  15.  16.  17.  18.  19.  20.
(PID.TID 0000.0001)  Levels:      21.  22.  23.  24.  25.  26.  27.  28.  29.  30.  31.  32.  33.  34.  35.  36.  37.  38.  39.  40.
(PID.TID 0000.0001)  Levels:      41.  42.  43.  44.  45.  46.  47.  48.  49.  50.
(PID.TID 0000.0001) DIAGNOSTICS_SET_POINTERS: Set levels for Outp.Stream: trsp_3d_set2
(PID.TID 0000.0001)  Levels:       1.   2.   3.   4.   5.   6.   7.   8.   9.  10.  11.  12.  13.  14.  15.  16.  17.  18.  19.  20.
(PID.TID 0000.0001)  Levels:      21.  22.  23.  24.  25.  26.  27.  28.  29.  30.  31.  32.  33.  34.  35.  36.  37.  38.  39.  40.
(PID.TID 0000.0001)  Levels:      41.  42.  43.  44.  45.  46.  47.  48.  49.  50.
(PID.TID 0000.0001) DIAGNOSTICS_SET_POINTERS: done
(PID.TID 0000.0001) ------------------------------------------------------------
(PID.TID 0000.0001) DIAGSTATS_SET_REGIONS: define   0 regions:
(PID.TID 0000.0001) ------------------------------------------------------------
(PID.TID 0000.0001)   space allocated for all stats-diags:       0 levels
(PID.TID 0000.0001) DIAGSTATS_SET_POINTERS: done
(PID.TID 0000.0001) ------------------------------------------------------------
(PID.TID 0000.0001) INI_GLOBAL_DOMAIN: Found   0 CS-corner Pts in the domain
(PID.TID 0000.0001) %MON fCori_max                    =   1.4584096177006E-04
(PID.TID 0000.0001) %MON fCori_min                    =  -1.4429171327635E-04
(PID.TID 0000.0001) %MON fCori_mean                   =  -1.9531894197173E-06
(PID.TID 0000.0001) %MON fCori_sd                     =   1.0434730642309E-04
(PID.TID 0000.0001) %MON fCoriG_max                   =   1.4584247033981E-04
(PID.TID 0000.0001) %MON fCoriG_min                   =  -1.4435339896041E-04
(PID.TID 0000.0001) %MON fCoriG_mean                  =  -1.9303770726087E-06
(PID.TID 0000.0001) %MON fCoriG_sd                    =   1.0435958182593E-04
(PID.TID 0000.0001) %MON fCoriCos_max                 =   1.4584158744890E-04
(PID.TID 0000.0001) %MON fCoriCos_min                 =   6.6334365221135E-07
(PID.TID 0000.0001) %MON fCoriCos_mean                =   9.3876998486639E-05
(PID.TID 0000.0001) %MON fCoriCos_sd                  =   3.9559575367967E-05
(PID.TID 0000.0001) INI_CG2D: CG2D normalisation factor =  7.1522409280111305E-05
(PID.TID 0000.0001) INI_CG2D: cg2dTolerance = 2.845112656120382E-05 (Area=3.5801386115E+14)
(PID.TID 0000.0001) 
(PID.TID 0000.0001) // =======================================================
(PID.TID 0000.0001) // Model configuration
(PID.TID 0000.0001) // =======================================================
(PID.TID 0000.0001) //
(PID.TID 0000.0001) // "Physical" paramters ( PARM01 in namelist )
(PID.TID 0000.0001) //
(PID.TID 0000.0001) buoyancyRelation = /* Type of relation to get Buoyancy */
(PID.TID 0000.0001)               'OCEANIC'
(PID.TID 0000.0001)     ;
(PID.TID 0000.0001) fluidIsAir   =  /* fluid major constituent is Air */
(PID.TID 0000.0001)                   F
(PID.TID 0000.0001)     ;
(PID.TID 0000.0001) fluidIsWater =  /* fluid major constituent is Water */
(PID.TID 0000.0001)                   T
(PID.TID 0000.0001)     ;
(PID.TID 0000.0001) usingPCoords =  /* use p (or p*) vertical coordinate */
(PID.TID 0000.0001)                   F
(PID.TID 0000.0001)     ;
(PID.TID 0000.0001) usingZCoords =  /* use z (or z*) vertical coordinate */
(PID.TID 0000.0001)                   T
(PID.TID 0000.0001)     ;
(PID.TID 0000.0001) tRef =   /* Reference temperature profile ( oC or K ) */
(PID.TID 0000.0001)     3 @  2.300000000000000E+01,             /* K =  1:  3 */
(PID.TID 0000.0001)     3 @  2.200000000000000E+01,             /* K =  4:  6 */
(PID.TID 0000.0001)                 2.100000000000000E+01,      /* K =  7 */
(PID.TID 0000.0001)     2 @  2.000000000000000E+01,             /* K =  8:  9 */
(PID.TID 0000.0001)                 1.900000000000000E+01,      /* K = 10 */
(PID.TID 0000.0001)     2 @  1.800000000000000E+01,             /* K = 11: 12 */
(PID.TID 0000.0001)                 1.700000000000000E+01,      /* K = 13 */
(PID.TID 0000.0001)     2 @  1.600000000000000E+01,             /* K = 14: 15 */
(PID.TID 0000.0001)                 1.500000000000000E+01,      /* K = 16 */
(PID.TID 0000.0001)                 1.400000000000000E+01,      /* K = 17 */
(PID.TID 0000.0001)                 1.300000000000000E+01,      /* K = 18 */
(PID.TID 0000.0001)                 1.200000000000000E+01,      /* K = 19 */
(PID.TID 0000.0001)                 1.100000000000000E+01,      /* K = 20 */
(PID.TID 0000.0001)     2 @  9.000000000000000E+00,             /* K = 21: 22 */
(PID.TID 0000.0001)                 8.000000000000000E+00,      /* K = 23 */
(PID.TID 0000.0001)                 7.000000000000000E+00,      /* K = 24 */
(PID.TID 0000.0001)     2 @  6.000000000000000E+00,             /* K = 25: 26 */
(PID.TID 0000.0001)     2 @  5.000000000000000E+00,             /* K = 27: 28 */
(PID.TID 0000.0001)     3 @  4.000000000000000E+00,             /* K = 29: 31 */
(PID.TID 0000.0001)     3 @  3.000000000000000E+00,             /* K = 32: 34 */
(PID.TID 0000.0001)     4 @  2.000000000000000E+00,             /* K = 35: 38 */
(PID.TID 0000.0001)    12 @  1.000000000000000E+00              /* K = 39: 50 */
(PID.TID 0000.0001)     ;
(PID.TID 0000.0001) sRef =   /* Reference salinity profile ( psu ) */
(PID.TID 0000.0001)    50 @  3.450000000000000E+01              /* K =  1: 50 */
(PID.TID 0000.0001)     ;
(PID.TID 0000.0001) useStrainTensionVisc= /* Use StrainTension Form of Viscous Operator */
(PID.TID 0000.0001)                   F
(PID.TID 0000.0001)     ;
(PID.TID 0000.0001) useVariableVisc = /* Use variable horizontal viscosity */
(PID.TID 0000.0001)                   T
(PID.TID 0000.0001)     ;
(PID.TID 0000.0001) useHarmonicVisc = /* Use harmonic horizontal viscosity */
(PID.TID 0000.0001)                   T
(PID.TID 0000.0001)     ;
(PID.TID 0000.0001) useBiharmonicVisc= /* Use biharmonic horiz.  viscosity */
(PID.TID 0000.0001)                   T
(PID.TID 0000.0001)     ;
(PID.TID 0000.0001) useSmag3D = /* Use isotropic 3-D Smagorinsky viscosity */
(PID.TID 0000.0001)                   F
(PID.TID 0000.0001)     ;
(PID.TID 0000.0001) viscAh  =   /* Lateral harmonic viscosity ( m^2/s ) */
(PID.TID 0000.0001)                 1.000000000000000E+00
(PID.TID 0000.0001)     ;
(PID.TID 0000.0001) viscAhMax = /* Maximum lateral harmonic viscosity ( m^2/s ) */
(PID.TID 0000.0001)                 1.000000000000000E+21
(PID.TID 0000.0001)     ;
(PID.TID 0000.0001) viscAhGrid = /* Grid dependent lateral harmonic viscosity ( non-dim. ) */
(PID.TID 0000.0001)                 2.000000000000000E-02
(PID.TID 0000.0001)     ;
(PID.TID 0000.0001) useFullLeith = /* Use Full Form of Leith Viscosity on/off flag*/
(PID.TID 0000.0001)                   F
(PID.TID 0000.0001)     ;
(PID.TID 0000.0001) useAreaViscLength = /* Use area for visc length instead of geom. mean*/
(PID.TID 0000.0001)                   F
(PID.TID 0000.0001)     ;
(PID.TID 0000.0001) viscC2leith = /* Leith harmonic visc. factor (on grad(vort),non-dim.) */
(PID.TID 0000.0001)                 0.000000000000000E+00
(PID.TID 0000.0001)     ;
(PID.TID 0000.0001) viscC2leithD = /* Leith harmonic viscosity factor (on grad(div),non-dim.)*/
(PID.TID 0000.0001)                 0.000000000000000E+00
(PID.TID 0000.0001)     ;
(PID.TID 0000.0001) viscC2LeithQG = /* QG Leith harmonic viscosity factor (non-dim.)*/
(PID.TID 0000.0001)                 0.000000000000000E+00
(PID.TID 0000.0001)     ;
(PID.TID 0000.0001) viscC2smag = /* Smagorinsky harmonic viscosity factor (non-dim.) */
(PID.TID 0000.0001)                 0.000000000000000E+00
(PID.TID 0000.0001)     ;
(PID.TID 0000.0001) viscA4  =   /* Lateral biharmonic viscosity ( m^4/s ) */
(PID.TID 0000.0001)                 0.000000000000000E+00
(PID.TID 0000.0001)     ;
(PID.TID 0000.0001) viscA4Max = /* Maximum biharmonic viscosity ( m^2/s ) */
(PID.TID 0000.0001)                 1.000000000000000E+21
(PID.TID 0000.0001)     ;
(PID.TID 0000.0001) viscA4Grid = /* Grid dependent biharmonic viscosity ( non-dim. ) */
(PID.TID 0000.0001)                 0.000000000000000E+00
(PID.TID 0000.0001)     ;
(PID.TID 0000.0001) viscC4leith = /* Leith biharm viscosity factor (on grad(vort), non-dim.)*/
(PID.TID 0000.0001)                 0.000000000000000E+00
(PID.TID 0000.0001)     ;
(PID.TID 0000.0001) viscC4leithD = /* Leith biharm viscosity factor (on grad(div), non-dim.) */
(PID.TID 0000.0001)                 0.000000000000000E+00
(PID.TID 0000.0001)     ;
(PID.TID 0000.0001) viscC4Smag = /* Smagorinsky biharm viscosity factor (non-dim) */
(PID.TID 0000.0001)                 0.000000000000000E+00
(PID.TID 0000.0001)     ;
(PID.TID 0000.0001) no_slip_sides =  /* Viscous BCs: No-slip sides */
(PID.TID 0000.0001)                   T
(PID.TID 0000.0001)     ;
(PID.TID 0000.0001) sideDragFactor = /* side-drag scaling factor (non-dim) */
(PID.TID 0000.0001)                 2.000000000000000E+00
(PID.TID 0000.0001)     ;
(PID.TID 0000.0001) viscArNr = /* vertical profile of vertical viscosity ( m^2/s )*/
(PID.TID 0000.0001)    50 @  5.000000000000000E-05              /* K =  1: 50 */
(PID.TID 0000.0001)     ;
(PID.TID 0000.0001) no_slip_bottom =  /* Viscous BCs: No-slip bottom */
(PID.TID 0000.0001)                   T
(PID.TID 0000.0001)     ;
(PID.TID 0000.0001) bottomVisc_pCell = /* Partial-cell in bottom Visc. BC */
(PID.TID 0000.0001)                   F
(PID.TID 0000.0001)     ;
(PID.TID 0000.0001) bottomDragLinear = /* linear bottom-drag coefficient ( m/s ) */
(PID.TID 0000.0001)                 0.000000000000000E+00
(PID.TID 0000.0001)     ;
(PID.TID 0000.0001) bottomDragQuadratic = /* quadratic bottom-drag coefficient (-) */
(PID.TID 0000.0001)                 1.000000000000000E-03
(PID.TID 0000.0001)     ;
(PID.TID 0000.0001) selectBotDragQuadr = /* select quadratic bottom drag options */
(PID.TID 0000.0001)                       0
(PID.TID 0000.0001)     ;
(PID.TID 0000.0001) diffKhT =   /* Laplacian diffusion of heat laterally ( m^2/s ) */
(PID.TID 0000.0001)                 1.000000000000000E+01
(PID.TID 0000.0001)     ;
(PID.TID 0000.0001) diffK4T =   /* Biharmonic diffusion of heat laterally ( m^4/s ) */
(PID.TID 0000.0001)                 0.000000000000000E+00
(PID.TID 0000.0001)     ;
(PID.TID 0000.0001) diffKhS =   /* Laplacian diffusion of salt laterally ( m^2/s ) */
(PID.TID 0000.0001)                 1.000000000000000E+01
(PID.TID 0000.0001)     ;
(PID.TID 0000.0001) diffK4S =   /* Biharmonic diffusion of salt laterally ( m^4/s ) */
(PID.TID 0000.0001)                 0.000000000000000E+00
(PID.TID 0000.0001)     ;
(PID.TID 0000.0001) diffKrNrT = /* vertical profile of vertical diffusion of Temp ( m^2/s )*/
(PID.TID 0000.0001)    50 @  1.000000000000000E-05              /* K =  1: 50 */
(PID.TID 0000.0001)     ;
(PID.TID 0000.0001) diffKrNrS = /* vertical profile of vertical diffusion of Salt ( m^2/s )*/
(PID.TID 0000.0001)    50 @  1.000000000000000E-05              /* K =  1: 50 */
(PID.TID 0000.0001)     ;
(PID.TID 0000.0001) diffKrBL79surf = /* Surface diffusion for Bryan and Lewis 79 ( m^2/s ) */
(PID.TID 0000.0001)                 0.000000000000000E+00
(PID.TID 0000.0001)     ;
(PID.TID 0000.0001) diffKrBL79deep = /* Deep diffusion for Bryan and Lewis 1979 ( m^2/s ) */
(PID.TID 0000.0001)                 0.000000000000000E+00
(PID.TID 0000.0001)     ;
(PID.TID 0000.0001) diffKrBL79scl = /* Depth scale for Bryan and Lewis 1979 ( m ) */
(PID.TID 0000.0001)                 2.000000000000000E+02
(PID.TID 0000.0001)     ;
(PID.TID 0000.0001) diffKrBL79Ho = /* Turning depth for Bryan and Lewis 1979 ( m ) */
(PID.TID 0000.0001)                -2.000000000000000E+03
(PID.TID 0000.0001)     ;
(PID.TID 0000.0001) ivdc_kappa = /* Implicit Vertical Diffusivity for Convection ( m^2/s) */
(PID.TID 0000.0001)                 1.000000000000000E+01
(PID.TID 0000.0001)     ;
(PID.TID 0000.0001) hMixCriteria=  /* Criteria for mixed-layer diagnostic */
(PID.TID 0000.0001)                -8.000000000000000E-01
(PID.TID 0000.0001)     ;
(PID.TID 0000.0001) dRhoSmall =  /* Parameter for mixed-layer diagnostic */
(PID.TID 0000.0001)                 1.000000000000000E-06
(PID.TID 0000.0001)     ;
(PID.TID 0000.0001) hMixSmooth=  /* Smoothing parameter for mixed-layer diagnostic */
(PID.TID 0000.0001)                 0.000000000000000E+00
(PID.TID 0000.0001)     ;
(PID.TID 0000.0001) eosType =  /* Type of Equation of State */
(PID.TID 0000.0001)               'JMD95Z'
(PID.TID 0000.0001)     ;
(PID.TID 0000.0001) selectP_inEOS_Zc = /* select pressure to use in EOS (0,1,2,3) */
(PID.TID 0000.0001)                       0
(PID.TID 0000.0001)     0= -g*rhoConst*z ; 1= pRef (from tRef,sRef); 2= Hyd P ; 3= Hyd+NH P
(PID.TID 0000.0001)     ;
(PID.TID 0000.0001) HeatCapacity_Cp =  /* Specific heat capacity ( J/kg/K ) */
(PID.TID 0000.0001)                 3.994000000000000E+03
(PID.TID 0000.0001)     ;
(PID.TID 0000.0001) celsius2K = /* 0 degree Celsius converted to Kelvin ( K ) */
(PID.TID 0000.0001)                 2.731500000000000E+02
(PID.TID 0000.0001)     ;
(PID.TID 0000.0001) rhoConst  = /* Reference density (Boussinesq)  ( kg/m^3 ) */
(PID.TID 0000.0001)                 1.029000000000000E+03
(PID.TID 0000.0001)     ;
(PID.TID 0000.0001) rhoFacC = /* normalized Reference density @ cell-Center (-) */
(PID.TID 0000.0001)    50 @  1.000000000000000E+00              /* K =  1: 50 */
(PID.TID 0000.0001)     ;
(PID.TID 0000.0001) rhoFacF = /* normalized Reference density @ W-Interface (-) */
(PID.TID 0000.0001)    51 @  1.000000000000000E+00              /* K =  1: 51 */
(PID.TID 0000.0001)     ;
(PID.TID 0000.0001) rhoConstFresh = /* Fresh-water reference density ( kg/m^3 ) */
(PID.TID 0000.0001)                 1.000000000000000E+03
(PID.TID 0000.0001)     ;
(PID.TID 0000.0001) gravity =   /* Gravitational acceleration ( m/s^2 ) */
(PID.TID 0000.0001)                 9.810000000000000E+00
(PID.TID 0000.0001)     ;
(PID.TID 0000.0001) gBaro =   /* Barotropic gravity ( m/s^2 ) */
(PID.TID 0000.0001)                 9.810000000000000E+00
(PID.TID 0000.0001)     ;
(PID.TID 0000.0001) gravFacC = /* gravity factor (vs surf.) @ cell-Center (-) */
(PID.TID 0000.0001)    50 @  1.000000000000000E+00              /* K =  1: 50 */
(PID.TID 0000.0001)     ;
(PID.TID 0000.0001) gravFacF = /* gravity factor (vs surf.) @ W-Interface (-) */
(PID.TID 0000.0001)    51 @  1.000000000000000E+00              /* K =  1: 51 */
(PID.TID 0000.0001)     ;
(PID.TID 0000.0001) rotationPeriod =   /* Rotation Period ( s ) */
(PID.TID 0000.0001)                 8.616400000000000E+04
(PID.TID 0000.0001)     ;
(PID.TID 0000.0001) omega =   /* Angular velocity ( rad/s ) */
(PID.TID 0000.0001)                 7.292123516990375E-05
(PID.TID 0000.0001)     ;
(PID.TID 0000.0001) f0 =   /* Reference coriolis parameter ( 1/s ) */
(PID.TID 0000.0001)                 1.000000000000000E-04
(PID.TID 0000.0001)     ;
(PID.TID 0000.0001) beta =   /* Beta ( 1/(m.s) ) */
(PID.TID 0000.0001)                 9.999999999999999E-12
(PID.TID 0000.0001)     ;
(PID.TID 0000.0001) fPrime =   /* Second coriolis parameter ( 1/s ) */
(PID.TID 0000.0001)                 0.000000000000000E+00
(PID.TID 0000.0001)     ;
(PID.TID 0000.0001) rigidLid =   /* Rigid lid on/off flag */
(PID.TID 0000.0001)                   F
(PID.TID 0000.0001)     ;
(PID.TID 0000.0001) implicitFreeSurface =   /* Implicit free surface on/off flag */
(PID.TID 0000.0001)                   T
(PID.TID 0000.0001)     ;
(PID.TID 0000.0001) freeSurfFac =   /* Implicit free surface factor */
(PID.TID 0000.0001)                 1.000000000000000E+00
(PID.TID 0000.0001)     ;
(PID.TID 0000.0001) implicSurfPress =  /* Surface Pressure implicit factor (0-1)*/
(PID.TID 0000.0001)                 1.000000000000000E+00
(PID.TID 0000.0001)     ;
(PID.TID 0000.0001) implicDiv2DFlow =  /* Barot. Flow Div. implicit factor (0-1)*/
(PID.TID 0000.0001)                 1.000000000000000E+00
(PID.TID 0000.0001)     ;
(PID.TID 0000.0001) uniformLin_PhiSurf = /* use uniform Bo_surf on/off flag*/
(PID.TID 0000.0001)                   T
(PID.TID 0000.0001)     ;
(PID.TID 0000.0001) uniformFreeSurfLev = /* free-surface level-index is uniform */
(PID.TID 0000.0001)                   T
(PID.TID 0000.0001)     ;
(PID.TID 0000.0001) hFacMin =   /* minimum partial cell factor (hFac) */
(PID.TID 0000.0001)                 2.000000000000000E-01
(PID.TID 0000.0001)     ;
(PID.TID 0000.0001) hFacMinDr = /* minimum partial cell thickness ( m) */
(PID.TID 0000.0001)                 5.000000000000000E+00
(PID.TID 0000.0001)     ;
(PID.TID 0000.0001) exactConserv =  /* Exact Volume Conservation on/off flag*/
(PID.TID 0000.0001)                   T
(PID.TID 0000.0001)     ;
(PID.TID 0000.0001) linFSConserveTr = /* Tracer correction for Lin Free Surface on/off flag*/
(PID.TID 0000.0001)                   F
(PID.TID 0000.0001)     ;
(PID.TID 0000.0001) nonlinFreeSurf = /* Non-linear Free Surf. options (-1,0,1,2,3)*/
(PID.TID 0000.0001)                       4
(PID.TID 0000.0001)      -1,0= Off ; 1,2,3= On, 2=+rescale gU,gV, 3=+update cg2d solv.
(PID.TID 0000.0001)     ;
(PID.TID 0000.0001) hFacInf =   /* lower threshold for hFac (nonlinFreeSurf only)*/
(PID.TID 0000.0001)                 2.000000000000000E-01
(PID.TID 0000.0001)     ;
(PID.TID 0000.0001) hFacSup =   /* upper threshold for hFac (nonlinFreeSurf only)*/
(PID.TID 0000.0001)                 2.000000000000000E+00
(PID.TID 0000.0001)     ;
(PID.TID 0000.0001) select_rStar = /* r* Vertical coord. options (=0 r coord.; >0 uses r*)*/
(PID.TID 0000.0001)                       2
(PID.TID 0000.0001)     ;
(PID.TID 0000.0001) useRealFreshWaterFlux = /* Real Fresh Water Flux on/off flag*/
(PID.TID 0000.0001)                   T
(PID.TID 0000.0001)     ;
(PID.TID 0000.0001) temp_EvPrRn = /* Temp. of Evap/Prec/R (UNSET=use local T)(oC)*/
(PID.TID 0000.0001)                 1.234567000000000E+05
(PID.TID 0000.0001)     ;
(PID.TID 0000.0001) salt_EvPrRn = /* Salin. of Evap/Prec/R (UNSET=use local S)(psu)*/
(PID.TID 0000.0001)                 0.000000000000000E+00
(PID.TID 0000.0001)     ;
(PID.TID 0000.0001) selectAddFluid = /* option for mass source/sink of fluid (=0: off) */
(PID.TID 0000.0001)                       0
(PID.TID 0000.0001)     ;
(PID.TID 0000.0001) temp_addMass = /* Temp. of addMass array (UNSET=use local T)(oC)*/
(PID.TID 0000.0001)                 1.234567000000000E+05
(PID.TID 0000.0001)     ;
(PID.TID 0000.0001) salt_addMass = /* Salin. of addMass array (UNSET=use local S)(psu)*/
(PID.TID 0000.0001)                 0.000000000000000E+00
(PID.TID 0000.0001)     ;
(PID.TID 0000.0001) use3Dsolver = /* use 3-D pressure solver on/off flag */
(PID.TID 0000.0001)                   F
(PID.TID 0000.0001)     ;
(PID.TID 0000.0001) nonHydrostatic =  /* Non-Hydrostatic on/off flag */
(PID.TID 0000.0001)                   F
(PID.TID 0000.0001)     ;
(PID.TID 0000.0001) nh_Am2 = /* Non-Hydrostatic terms scaling factor */
(PID.TID 0000.0001)                 1.000000000000000E+00
(PID.TID 0000.0001)     ;
(PID.TID 0000.0001) implicitNHPress = /* Non-Hyd Pressure implicit factor (0-1)*/
(PID.TID 0000.0001)                 1.000000000000000E+00
(PID.TID 0000.0001)     ;
(PID.TID 0000.0001) selectNHfreeSurf = /* Non-Hyd (free-)Surface option */
(PID.TID 0000.0001)                       0
(PID.TID 0000.0001)     ;
(PID.TID 0000.0001) quasiHydrostatic = /* Quasi-Hydrostatic on/off flag */
(PID.TID 0000.0001)                   F
(PID.TID 0000.0001)     ;
(PID.TID 0000.0001) calc_wVelocity = /* vertical velocity calculation on/off flag */
(PID.TID 0000.0001)                   T
(PID.TID 0000.0001)     ;
(PID.TID 0000.0001) momStepping =  /* Momentum equation on/off flag */
(PID.TID 0000.0001)                   T
(PID.TID 0000.0001)     ;
(PID.TID 0000.0001) vectorInvariantMomentum= /* Vector-Invariant Momentum on/off */
(PID.TID 0000.0001)                   T
(PID.TID 0000.0001)     ;
(PID.TID 0000.0001) momAdvection =  /* Momentum advection on/off flag */
(PID.TID 0000.0001)                   T
(PID.TID 0000.0001)     ;
(PID.TID 0000.0001) momViscosity =  /* Momentum viscosity on/off flag */
(PID.TID 0000.0001)                   T
(PID.TID 0000.0001)     ;
(PID.TID 0000.0001) momImplVertAdv= /* Momentum implicit vert. advection on/off*/
(PID.TID 0000.0001)                   F
(PID.TID 0000.0001)     ;
(PID.TID 0000.0001) implicitViscosity = /* Implicit viscosity on/off flag */
(PID.TID 0000.0001)                   T
(PID.TID 0000.0001)     ;
(PID.TID 0000.0001) selectImplicitDrag= /* Implicit bot Drag options (0,1,2)*/
(PID.TID 0000.0001)                       0
(PID.TID 0000.0001)     0= Expl. ; 1= Impl. on provis. Vel ; 2= Fully Impl (with surf.P)
(PID.TID 0000.0001)     ;
(PID.TID 0000.0001) metricTerms =  /* metric-Terms on/off flag */
(PID.TID 0000.0001)                   F
(PID.TID 0000.0001)     ;
(PID.TID 0000.0001) useNHMTerms = /* Non-Hydrostatic Metric-Terms on/off */
(PID.TID 0000.0001)                   F
(PID.TID 0000.0001)     ;
(PID.TID 0000.0001) selectCoriMap = /* Coriolis Map options (0,1,2,3)*/
(PID.TID 0000.0001)                       2
(PID.TID 0000.0001)     0= f-Plane ; 1= Beta-Plane ; 2= Spherical ; 3= read from file
(PID.TID 0000.0001)     ;
(PID.TID 0000.0001) use3dCoriolis = /* 3-D Coriolis on/off flag */
(PID.TID 0000.0001)                   F
(PID.TID 0000.0001)     ;
(PID.TID 0000.0001) useCoriolis =  /* Coriolis on/off flag */
(PID.TID 0000.0001)                   T
(PID.TID 0000.0001)     ;
(PID.TID 0000.0001) useCDscheme =  /* CD scheme on/off flag */
(PID.TID 0000.0001)                   F
(PID.TID 0000.0001)     ;
(PID.TID 0000.0001) selectCoriScheme= /* Scheme selector for Coriolis-Term */
(PID.TID 0000.0001)                       1
(PID.TID 0000.0001)    = 0 : original discretization (simple averaging, no hFac)
(PID.TID 0000.0001)    = 1 : Wet-point averaging (Jamar & Ozer 1986)
(PID.TID 0000.0001)    = 2 : hFac weighted average (Angular Mom. conserving)
(PID.TID 0000.0001)    = 3 : energy conserving scheme using hFac weighted average
(PID.TID 0000.0001)     ;
(PID.TID 0000.0001) useAbsVorticity= /* V.I Works with f+zeta in Coriolis */
(PID.TID 0000.0001)                   F
(PID.TID 0000.0001)     ;
(PID.TID 0000.0001) selectVortScheme= /* V.I Scheme selector for Vorticity-Term */
(PID.TID 0000.0001)                       1
(PID.TID 0000.0001)    = 0 : enstrophy (Shallow-Water Eq.) conserving scheme by Sadourny, JAS 75
(PID.TID 0000.0001)    = 1 : same as 0 with modified hFac
(PID.TID 0000.0001)    = 2 : energy conserving scheme (used by Sadourny in JAS 75 paper)
(PID.TID 0000.0001)    = 3 : energy (general) and enstrophy (2D, nonDiv.) conserving scheme
(PID.TID 0000.0001)          from Sadourny (Burridge & Haseler, ECMWF Rep.4, 1977)
(PID.TID 0000.0001)     ;
(PID.TID 0000.0001) useJamartMomAdv= /* V.I Non-linear terms Jamart flag */
(PID.TID 0000.0001)                   F
(PID.TID 0000.0001)     ;
(PID.TID 0000.0001) upwindVorticity= /* V.I Upwind bias vorticity flag */
(PID.TID 0000.0001)                   F
(PID.TID 0000.0001)     ;
(PID.TID 0000.0001) highOrderVorticity= /* V.I High order vort. advect. flag */
(PID.TID 0000.0001)                   F
(PID.TID 0000.0001)     ;
(PID.TID 0000.0001) upwindShear= /* V.I Upwind vertical Shear advection flag */
(PID.TID 0000.0001)                   F
(PID.TID 0000.0001)     ;
(PID.TID 0000.0001) selectKEscheme= /* V.I Kinetic Energy scheme selector */
(PID.TID 0000.0001)                       0
(PID.TID 0000.0001)     ;
(PID.TID 0000.0001) momForcing =  /* Momentum forcing on/off flag */
(PID.TID 0000.0001)                   T
(PID.TID 0000.0001)     ;
(PID.TID 0000.0001) momTidalForcing = /* Momentum Tidal forcing on/off flag */
(PID.TID 0000.0001)                   T
(PID.TID 0000.0001)     ;
(PID.TID 0000.0001) momPressureForcing =  /* Momentum pressure term on/off flag */
(PID.TID 0000.0001)                   T
(PID.TID 0000.0001)     ;
(PID.TID 0000.0001) implicitIntGravWave= /* Implicit Internal Gravity Wave flag */
(PID.TID 0000.0001)                   F
(PID.TID 0000.0001)     ;
(PID.TID 0000.0001) staggerTimeStep =    /* Stagger time stepping on/off flag */
(PID.TID 0000.0001)                   T
(PID.TID 0000.0001)     ;
(PID.TID 0000.0001) doResetHFactors = /* reset thickness factors @ each time-step */
(PID.TID 0000.0001)                   F
(PID.TID 0000.0001)     ;
(PID.TID 0000.0001) multiDimAdvection =  /* enable/disable Multi-Dim Advection */
(PID.TID 0000.0001)                   T
(PID.TID 0000.0001)     ;
(PID.TID 0000.0001) useMultiDimAdvec =   /* Multi-Dim Advection is/is-not used */
(PID.TID 0000.0001)                   T
(PID.TID 0000.0001)     ;
(PID.TID 0000.0001) implicitDiffusion = /* Implicit Diffusion on/off flag */
(PID.TID 0000.0001)                   T
(PID.TID 0000.0001)     ;
(PID.TID 0000.0001) tempStepping =  /* Temperature equation on/off flag */
(PID.TID 0000.0001)                   T
(PID.TID 0000.0001)     ;
(PID.TID 0000.0001) tempAdvection = /* Temperature advection on/off flag */
(PID.TID 0000.0001)                   T
(PID.TID 0000.0001)     ;
(PID.TID 0000.0001) tempImplVertAdv = /* Temp. implicit vert. advection on/off */
(PID.TID 0000.0001)                   T
(PID.TID 0000.0001)     ;
(PID.TID 0000.0001) tempForcing  =  /* Temperature forcing on/off flag */
(PID.TID 0000.0001)                   T
(PID.TID 0000.0001)     ;
(PID.TID 0000.0001) balanceQnet  =  /* balance net heat-flux on/off flag */
(PID.TID 0000.0001)                   F
(PID.TID 0000.0001)     ;
(PID.TID 0000.0001) doThetaClimRelax = /* apply SST relaxation on/off flag */
(PID.TID 0000.0001)                   F
(PID.TID 0000.0001)     ;
(PID.TID 0000.0001) balanceThetaClimRelax= /* balance SST relaxation on/off flag */
(PID.TID 0000.0001)                   F
(PID.TID 0000.0001)     ;
(PID.TID 0000.0001) tempIsActiveTr = /* Temp. is a dynamically Active Tracer */
(PID.TID 0000.0001)                   T
(PID.TID 0000.0001)     ;
(PID.TID 0000.0001) saltStepping =  /* Salinity equation on/off flag */
(PID.TID 0000.0001)                   T
(PID.TID 0000.0001)     ;
(PID.TID 0000.0001) saltAdvection = /* Salinity advection on/off flag */
(PID.TID 0000.0001)                   T
(PID.TID 0000.0001)     ;
(PID.TID 0000.0001) saltImplVertAdv = /* Sali. implicit vert. advection on/off */
(PID.TID 0000.0001)                   T
(PID.TID 0000.0001)     ;
(PID.TID 0000.0001) saltForcing  =  /* Salinity forcing on/off flag */
(PID.TID 0000.0001)                   T
(PID.TID 0000.0001)     ;
(PID.TID 0000.0001) balanceEmPmR =  /* balance net fresh-water flux on/off flag */
(PID.TID 0000.0001)                   F
(PID.TID 0000.0001)     ;
(PID.TID 0000.0001) doSaltClimRelax = /* apply SSS relaxation on/off flag */
(PID.TID 0000.0001)                   F
(PID.TID 0000.0001)     ;
(PID.TID 0000.0001) balanceSaltClimRelax= /* balance SSS relaxation on/off flag */
(PID.TID 0000.0001)                   T
(PID.TID 0000.0001)     ;
(PID.TID 0000.0001) saltIsActiveTr = /* Salt  is a dynamically Active Tracer */
(PID.TID 0000.0001)                   T
(PID.TID 0000.0001)     ;
(PID.TID 0000.0001)  readBinaryPrec = /* Precision used for reading binary files */
(PID.TID 0000.0001)                      32
(PID.TID 0000.0001)     ;
(PID.TID 0000.0001) writeBinaryPrec = /* Precision used for writing binary files */
(PID.TID 0000.0001)                      32
(PID.TID 0000.0001)     ;
(PID.TID 0000.0001) balancePrintMean  =  /* print means for balancing fluxes */
(PID.TID 0000.0001)                   F
(PID.TID 0000.0001)     ;
(PID.TID 0000.0001)  rwSuffixType =   /* select format of mds file suffix */
(PID.TID 0000.0001)                       0
(PID.TID 0000.0001)    = 0 : myIter (I10.10) ;   = 1 : 100*myTime (100th sec) ;
(PID.TID 0000.0001)    = 2 : myTime (seconds);   = 3 : myTime/360 (10th of hr);
(PID.TID 0000.0001)    = 4 : myTime/3600 (hours)
(PID.TID 0000.0001)     ;
(PID.TID 0000.0001)  globalFiles = /* write "global" (=not per tile) files */
(PID.TID 0000.0001)                   F
(PID.TID 0000.0001)     ;
(PID.TID 0000.0001)  useSingleCpuIO = /* only master MPI process does I/O */
(PID.TID 0000.0001)                   T
(PID.TID 0000.0001)     ;
(PID.TID 0000.0001)  useSingleCpuInput = /* only master process reads input */
(PID.TID 0000.0001)                   T
(PID.TID 0000.0001)     ;
(PID.TID 0000.0001) /* debLev[*]  : level of debug & auxiliary message printing */
(PID.TID 0000.0001) debLevZero =  0 ; /* level of disabled aux. msg printing */
(PID.TID 0000.0001)    debLevA =  1 ; /* level of minimum  aux. msg printing */
(PID.TID 0000.0001)    debLevB =  2 ; /* level of low aux. print (report read-file opening)*/
(PID.TID 0000.0001)    debLevC =  3 ; /* level of moderate debug prt (most pkgs debug msg) */
(PID.TID 0000.0001)    debLevD =  4 ; /* level of enhanced debug prt (add DEBUG_STATS prt) */
(PID.TID 0000.0001)    debLevE =  5 ; /* level of extensive debug printing */
(PID.TID 0000.0001) debugLevel =  /* select debug printing level */
(PID.TID 0000.0001)                       1
(PID.TID 0000.0001)     ;
(PID.TID 0000.0001)  plotLevel =  /* select PLOT_FIELD printing level */
(PID.TID 0000.0001)                       1
(PID.TID 0000.0001)     ;
(PID.TID 0000.0001) //
(PID.TID 0000.0001) // Elliptic solver(s) paramters ( PARM02 in namelist )
(PID.TID 0000.0001) //
(PID.TID 0000.0001) cg2dMaxIters =   /* Upper limit on 2d con. grad iterations  */
(PID.TID 0000.0001)                     300
(PID.TID 0000.0001)     ;
(PID.TID 0000.0001) cg2dChkResFreq =   /* 2d con. grad convergence test frequency */
(PID.TID 0000.0001)                       1
(PID.TID 0000.0001)     ;
(PID.TID 0000.0001) cg2dUseMinResSol= /* use cg2d last-iter(=0) / min-resid.(=1) solution */
(PID.TID 0000.0001)                       0
(PID.TID 0000.0001)     ;
(PID.TID 0000.0001) cg2dTargetResidual =   /* 2d con. grad target residual  */
(PID.TID 0000.0001)                 1.000000000000000E-07
(PID.TID 0000.0001)     ;
(PID.TID 0000.0001) cg2dTargetResWunit =   /* CG2d target residual [W units] */
(PID.TID 0000.0001)                 1.000000000000000E-12
(PID.TID 0000.0001)     ;
(PID.TID 0000.0001) cg2dPreCondFreq =   /* Freq. for updating cg2d preconditioner */
(PID.TID 0000.0001)                       1
(PID.TID 0000.0001)     ;
(PID.TID 0000.0001) useSRCGSolver =  /* use single reduction CG solver(s) */
(PID.TID 0000.0001)                   F
(PID.TID 0000.0001)     ;
(PID.TID 0000.0001) printResidualFreq = /* Freq. for printing CG residual */
(PID.TID 0000.0001)                       0
(PID.TID 0000.0001)     ;
(PID.TID 0000.0001) //
(PID.TID 0000.0001) // Time stepping paramters ( PARM03 in namelist )
(PID.TID 0000.0001) //
(PID.TID 0000.0001) deltaTMom =   /* Momentum equation timestep ( s ) */
(PID.TID 0000.0001)                 9.000000000000000E+02
(PID.TID 0000.0001)     ;
(PID.TID 0000.0001) deltaTFreeSurf = /* FreeSurface equation timestep ( s ) */
(PID.TID 0000.0001)                 9.000000000000000E+02
(PID.TID 0000.0001)     ;
(PID.TID 0000.0001) dTtracerLev =  /* Tracer equation timestep ( s ) */
(PID.TID 0000.0001)    50 @  9.000000000000000E+02              /* K =  1: 50 */
(PID.TID 0000.0001)     ;
(PID.TID 0000.0001) deltaTClock  =   /* Model clock timestep ( s ) */
(PID.TID 0000.0001)                 9.000000000000000E+02
(PID.TID 0000.0001)     ;
(PID.TID 0000.0001) cAdjFreq =   /* Convective adjustment interval ( s ) */
(PID.TID 0000.0001)                 0.000000000000000E+00
(PID.TID 0000.0001)     ;
(PID.TID 0000.0001) momForcingOutAB = /* =1: take Momentum Forcing out of Adams-Bash. stepping */
(PID.TID 0000.0001)                       1
(PID.TID 0000.0001)     ;
(PID.TID 0000.0001) tracForcingOutAB = /* =1: take T,S,pTr Forcing out of Adams-Bash. stepping */
(PID.TID 0000.0001)                       1
(PID.TID 0000.0001)     ;
(PID.TID 0000.0001) momDissip_In_AB = /* put Dissipation Tendency in Adams-Bash. stepping */
(PID.TID 0000.0001)                   F
(PID.TID 0000.0001)     ;
(PID.TID 0000.0001) doAB_onGtGs = /* apply AB on Tendencies (rather than on T,S)*/
(PID.TID 0000.0001)                   T
(PID.TID 0000.0001)     ;
(PID.TID 0000.0001) abEps =   /* Adams-Bashforth-2 stabilizing weight */
(PID.TID 0000.0001)                 1.000000000000000E-01
(PID.TID 0000.0001)     ;
(PID.TID 0000.0001) applyExchUV_early = /* Apply EXCH to U,V earlier in time-step */
(PID.TID 0000.0001)                   F
(PID.TID 0000.0001)     ;
(PID.TID 0000.0001) pickupStrictlyMatch= /* stop if pickup do not strictly match */
(PID.TID 0000.0001)                   F
(PID.TID 0000.0001)     ;
(PID.TID 0000.0001) nIter0   =   /* Run starting timestep number */
(PID.TID 0000.0001)                       1
(PID.TID 0000.0001)     ;
(PID.TID 0000.0001) nTimeSteps = /* Number of timesteps */
(PID.TID 0000.0001)                      96
(PID.TID 0000.0001)     ;
(PID.TID 0000.0001) nEndIter =   /* Run ending timestep number */
(PID.TID 0000.0001)                      97
(PID.TID 0000.0001)     ;
(PID.TID 0000.0001) baseTime =   /* Model base time ( s ) */
(PID.TID 0000.0001)                 0.000000000000000E+00
(PID.TID 0000.0001)     ;
(PID.TID 0000.0001) startTime =  /* Run start time ( s ) */
(PID.TID 0000.0001)                 9.000000000000000E+02
(PID.TID 0000.0001)     ;
(PID.TID 0000.0001) endTime  =   /* Integration ending time ( s ) */
(PID.TID 0000.0001)                 8.730000000000000E+04
(PID.TID 0000.0001)     ;
(PID.TID 0000.0001) pChkPtFreq = /* Permanent restart/pickup file interval ( s ) */
(PID.TID 0000.0001)                 8.640000000000000E+04
(PID.TID 0000.0001)     ;
(PID.TID 0000.0001) chkPtFreq  = /* Rolling restart/pickup file interval ( s ) */
(PID.TID 0000.0001)                 8.640000000000000E+04
(PID.TID 0000.0001)     ;
(PID.TID 0000.0001) pickup_write_mdsio =   /* Model IO flag. */
(PID.TID 0000.0001)                   T
(PID.TID 0000.0001)     ;
(PID.TID 0000.0001) pickup_read_mdsio =   /* Model IO flag. */
(PID.TID 0000.0001)                   T
(PID.TID 0000.0001)     ;
(PID.TID 0000.0001) writePickupAtEnd =   /* Model IO flag. */
(PID.TID 0000.0001)                   T
(PID.TID 0000.0001)     ;
(PID.TID 0000.0001) dumpFreq =   /* Model state write out interval ( s ). */
(PID.TID 0000.0001)                 0.000000000000000E+00
(PID.TID 0000.0001)     ;
(PID.TID 0000.0001) dumpInitAndLast= /* write out Initial & Last iter. model state */
(PID.TID 0000.0001)                   T
(PID.TID 0000.0001)     ;
(PID.TID 0000.0001) snapshot_mdsio =   /* Model IO flag. */
(PID.TID 0000.0001)                   T
(PID.TID 0000.0001)     ;
(PID.TID 0000.0001) monitorFreq =   /* Monitor output interval ( s ). */
(PID.TID 0000.0001)                 7.200000000000000E+03
(PID.TID 0000.0001)     ;
(PID.TID 0000.0001) monitorSelect = /* select group of variables to monitor */
(PID.TID 0000.0001)                       3
(PID.TID 0000.0001)     ;
(PID.TID 0000.0001) monitor_stdio =   /* Model IO flag. */
(PID.TID 0000.0001)                   T
(PID.TID 0000.0001)     ;
(PID.TID 0000.0001) externForcingPeriod =   /* forcing period (s) */
(PID.TID 0000.0001)                 0.000000000000000E+00
(PID.TID 0000.0001)     ;
(PID.TID 0000.0001) externForcingCycle =   /* period of the cyle (s). */
(PID.TID 0000.0001)                 0.000000000000000E+00
(PID.TID 0000.0001)     ;
(PID.TID 0000.0001) tauThetaClimRelax =   /* relaxation time scale (s) */
(PID.TID 0000.0001)                 0.000000000000000E+00
(PID.TID 0000.0001)     ;
(PID.TID 0000.0001) tauSaltClimRelax =   /* relaxation time scale (s) */
(PID.TID 0000.0001)                 0.000000000000000E+00
(PID.TID 0000.0001)     ;
(PID.TID 0000.0001) latBandClimRelax =   /* max. Lat. where relaxation */
(PID.TID 0000.0001)                 1.800000000000000E+02
(PID.TID 0000.0001)     ;
(PID.TID 0000.0001) //
(PID.TID 0000.0001) // Gridding paramters ( PARM04 in namelist )
(PID.TID 0000.0001) //
(PID.TID 0000.0001) usingCartesianGrid = /* Cartesian coordinates flag ( True/False ) */
(PID.TID 0000.0001)                   F
(PID.TID 0000.0001)     ;
(PID.TID 0000.0001) usingCylindricalGrid = /* Cylindrical coordinates flag ( True/False ) */
(PID.TID 0000.0001)                   F
(PID.TID 0000.0001)     ;
(PID.TID 0000.0001) usingSphericalPolarGrid = /* Spherical coordinates flag ( True/False ) */
(PID.TID 0000.0001)                   F
(PID.TID 0000.0001)     ;
(PID.TID 0000.0001) usingCurvilinearGrid = /* Curvilinear coordinates flag ( True/False ) */
(PID.TID 0000.0001)                   T
(PID.TID 0000.0001)     ;
(PID.TID 0000.0001) useMin4hFacEdges = /* set hFacW,S as minimum of adjacent hFacC factor */
(PID.TID 0000.0001)                   F
(PID.TID 0000.0001)     ;
(PID.TID 0000.0001) interViscAr_pCell = /* account for partial-cell in interior vert. viscosity */
(PID.TID 0000.0001)                   F
(PID.TID 0000.0001)     ;
(PID.TID 0000.0001) interDiffKr_pCell = /* account for partial-cell in interior vert. diffusion */
(PID.TID 0000.0001)                   F
(PID.TID 0000.0001)     ;
(PID.TID 0000.0001) pCellMix_select = /* option to enhance mixing near surface & bottom */
(PID.TID 0000.0001)                       0
(PID.TID 0000.0001)     ;
(PID.TID 0000.0001) selectSigmaCoord = /* Hybrid-Sigma Vert. Coordinate option */
(PID.TID 0000.0001)                       0
(PID.TID 0000.0001)     ;
(PID.TID 0000.0001) rSigmaBnd = /* r/sigma transition ( units of r ==  m ) */
(PID.TID 0000.0001)                 1.234567000000000E+05
(PID.TID 0000.0001)     ;
(PID.TID 0000.0001) rkSign =   /* index orientation relative to vertical coordinate */
(PID.TID 0000.0001)                -1.000000000000000E+00
(PID.TID 0000.0001)     ;
(PID.TID 0000.0001) gravitySign = /* gravity orientation relative to vertical coordinate */
(PID.TID 0000.0001)                -1.000000000000000E+00
(PID.TID 0000.0001)     ;
(PID.TID 0000.0001) seaLev_Z =  /* reference height of sea-level [m] */
(PID.TID 0000.0001)                 0.000000000000000E+00
(PID.TID 0000.0001)     ;
(PID.TID 0000.0001) top_Pres =  /* reference pressure at the top [Pa] */
(PID.TID 0000.0001)                 0.000000000000000E+00
(PID.TID 0000.0001)     ;
(PID.TID 0000.0001) mass2rUnit = /* convert mass per unit area [kg/m2] to r-units [m] */
(PID.TID 0000.0001)                 9.718172983479105E-04
(PID.TID 0000.0001)     ;
(PID.TID 0000.0001) rUnit2mass = /* convert r-units [m] to mass per unit area [kg/m2] */
(PID.TID 0000.0001)                 1.029000000000000E+03
(PID.TID 0000.0001)     ;
(PID.TID 0000.0001) drC =   /* C spacing ( units of r ) */
(PID.TID 0000.0001)                 5.000000000000000E+00,      /* K =  1 */
(PID.TID 0000.0001)     6 @  1.000000000000000E+01,             /* K =  2:  7 */
(PID.TID 0000.0001)                 1.000500000000000E+01,      /* K =  8 */
(PID.TID 0000.0001)                 1.002000000000000E+01,      /* K =  9 */
(PID.TID 0000.0001)                 1.007000000000000E+01,      /* K = 10 */
(PID.TID 0000.0001)                 1.021500000000000E+01,      /* K = 11 */
(PID.TID 0000.0001)                 1.056000000000000E+01,      /* K = 12 */
(PID.TID 0000.0001)                 1.128000000000000E+01,      /* K = 13 */
(PID.TID 0000.0001)                 1.259000000000000E+01,      /* K = 14 */
(PID.TID 0000.0001)                 1.473000000000000E+01,      /* K = 15 */
(PID.TID 0000.0001)                 1.793000000000000E+01,      /* K = 16 */
(PID.TID 0000.0001)                 2.233500000000000E+01,      /* K = 17 */
(PID.TID 0000.0001)                 2.797500000000000E+01,      /* K = 18 */
(PID.TID 0000.0001)                 3.476000000000001E+01,      /* K = 19 */
(PID.TID 0000.0001)                 4.246000000000000E+01,      /* K = 20 */
(PID.TID 0000.0001)                 5.075000000000000E+01,      /* K = 21 */
(PID.TID 0000.0001)                 5.925000000000000E+01,      /* K = 22 */
(PID.TID 0000.0001)                 6.753999999999999E+01,      /* K = 23 */
(PID.TID 0000.0001)                 7.524000000000001E+01,      /* K = 24 */
(PID.TID 0000.0001)                 8.202500000000001E+01,      /* K = 25 */
(PID.TID 0000.0001)                 8.766500000000001E+01,      /* K = 26 */
(PID.TID 0000.0001)                 9.206999999999999E+01,      /* K = 27 */
(PID.TID 0000.0001)                 9.527000000000000E+01,      /* K = 28 */
(PID.TID 0000.0001)                 9.741499999999999E+01,      /* K = 29 */
(PID.TID 0000.0001)                 9.875000000000000E+01,      /* K = 30 */
(PID.TID 0000.0001)                 9.963000000000000E+01,      /* K = 31 */
(PID.TID 0000.0001)                 1.006700000000000E+02,      /* K = 32 */
(PID.TID 0000.0001)                 1.029450000000000E+02,      /* K = 33 */
(PID.TID 0000.0001)                 1.079450000000000E+02,      /* K = 34 */
(PID.TID 0000.0001)                 1.170800000000000E+02,      /* K = 35 */
(PID.TID 0000.0001)                 1.309600000000000E+02,      /* K = 36 */
(PID.TID 0000.0001)                 1.490150000000000E+02,      /* K = 37 */
(PID.TID 0000.0001)                 1.698850000000000E+02,      /* K = 38 */
(PID.TID 0000.0001)                 1.921900000000000E+02,      /* K = 39 */
(PID.TID 0000.0001)                 2.150250000000000E+02,      /* K = 40 */
(PID.TID 0000.0001)                 2.380000000000000E+02,      /* K = 41 */
(PID.TID 0000.0001)                 2.610000000000000E+02,      /* K = 42 */
(PID.TID 0000.0001)                 2.840000000000000E+02,      /* K = 43 */
(PID.TID 0000.0001)                 3.070000000000000E+02,      /* K = 44 */
(PID.TID 0000.0001)                 3.300000000000000E+02,      /* K = 45 */
(PID.TID 0000.0001)                 3.530000000000000E+02,      /* K = 46 */
(PID.TID 0000.0001)                 3.760000000000000E+02,      /* K = 47 */
(PID.TID 0000.0001)                 3.990000000000000E+02,      /* K = 48 */
(PID.TID 0000.0001)                 4.220000000000000E+02,      /* K = 49 */
(PID.TID 0000.0001)                 4.450000000000000E+02,      /* K = 50 */
(PID.TID 0000.0001)                 2.282500000000000E+02       /* K = 51 */
(PID.TID 0000.0001)     ;
(PID.TID 0000.0001) drF =   /* W spacing ( units of r ) */
(PID.TID 0000.0001)     7 @  1.000000000000000E+01,             /* K =  1:  7 */
(PID.TID 0000.0001)                 1.001000000000000E+01,      /* K =  8 */
(PID.TID 0000.0001)                 1.003000000000000E+01,      /* K =  9 */
(PID.TID 0000.0001)                 1.011000000000000E+01,      /* K = 10 */
(PID.TID 0000.0001)                 1.032000000000000E+01,      /* K = 11 */
(PID.TID 0000.0001)                 1.080000000000000E+01,      /* K = 12 */
(PID.TID 0000.0001)                 1.176000000000000E+01,      /* K = 13 */
(PID.TID 0000.0001)                 1.342000000000000E+01,      /* K = 14 */
(PID.TID 0000.0001)                 1.604000000000000E+01,      /* K = 15 */
(PID.TID 0000.0001)                 1.982000000000000E+01,      /* K = 16 */
(PID.TID 0000.0001)                 2.485000000000000E+01,      /* K = 17 */
(PID.TID 0000.0001)                 3.110000000000000E+01,      /* K = 18 */
(PID.TID 0000.0001)                 3.842000000000000E+01,      /* K = 19 */
(PID.TID 0000.0001)                 4.650000000000000E+01,      /* K = 20 */
(PID.TID 0000.0001)                 5.500000000000000E+01,      /* K = 21 */
(PID.TID 0000.0001)                 6.350000000000000E+01,      /* K = 22 */
(PID.TID 0000.0001)                 7.158000000000000E+01,      /* K = 23 */
(PID.TID 0000.0001)                 7.890000000000001E+01,      /* K = 24 */
(PID.TID 0000.0001)                 8.515000000000001E+01,      /* K = 25 */
(PID.TID 0000.0001)                 9.018000000000001E+01,      /* K = 26 */
(PID.TID 0000.0001)                 9.395999999999999E+01,      /* K = 27 */
(PID.TID 0000.0001)                 9.658000000000000E+01,      /* K = 28 */
(PID.TID 0000.0001)                 9.825000000000000E+01,      /* K = 29 */
(PID.TID 0000.0001)                 9.925000000000000E+01,      /* K = 30 */
(PID.TID 0000.0001)                 1.000100000000000E+02,      /* K = 31 */
(PID.TID 0000.0001)                 1.013300000000000E+02,      /* K = 32 */
(PID.TID 0000.0001)                 1.045600000000000E+02,      /* K = 33 */
(PID.TID 0000.0001)                 1.113300000000000E+02,      /* K = 34 */
(PID.TID 0000.0001)                 1.228300000000000E+02,      /* K = 35 */
(PID.TID 0000.0001)                 1.390900000000000E+02,      /* K = 36 */
(PID.TID 0000.0001)                 1.589400000000000E+02,      /* K = 37 */
(PID.TID 0000.0001)                 1.808300000000000E+02,      /* K = 38 */
(PID.TID 0000.0001)                 2.035500000000000E+02,      /* K = 39 */
(PID.TID 0000.0001)                 2.265000000000000E+02,      /* K = 40 */
(PID.TID 0000.0001)                 2.495000000000000E+02,      /* K = 41 */
(PID.TID 0000.0001)                 2.725000000000000E+02,      /* K = 42 */
(PID.TID 0000.0001)                 2.955000000000000E+02,      /* K = 43 */
(PID.TID 0000.0001)                 3.185000000000000E+02,      /* K = 44 */
(PID.TID 0000.0001)                 3.415000000000000E+02,      /* K = 45 */
(PID.TID 0000.0001)                 3.645000000000000E+02,      /* K = 46 */
(PID.TID 0000.0001)                 3.875000000000000E+02,      /* K = 47 */
(PID.TID 0000.0001)                 4.105000000000000E+02,      /* K = 48 */
(PID.TID 0000.0001)                 4.335000000000000E+02,      /* K = 49 */
(PID.TID 0000.0001)                 4.565000000000000E+02       /* K = 50 */
(PID.TID 0000.0001)     ;
(PID.TID 0000.0001) radius_fromHorizGrid = /* sphere Radius of input horiz. grid */
(PID.TID 0000.0001)                 6.370000000000000E+06
(PID.TID 0000.0001)     ;
(PID.TID 0000.0001) rSphere =  /* Radius ( ignored - cartesian, m - spherical ) */
(PID.TID 0000.0001)                 6.370000000000000E+06
(PID.TID 0000.0001)     ;
(PID.TID 0000.0001) deepAtmosphere = /* Deep/Shallow Atmosphere flag (True/False) */
(PID.TID 0000.0001)                   F
(PID.TID 0000.0001)     ;
(PID.TID 0000.0001) xC =  /* xC(:,1,:,1) : P-point X coord ( deg. or m if cartesian) */
(PID.TID 0000.0001)                -4.081468768806280E+01,      /* I =  1 */
(PID.TID 0000.0001)                -3.957104986057077E+01,      /* I =  2 */
(PID.TID 0000.0001)                -3.832217028656162E+01,      /* I =  3 */
(PID.TID 0000.0001)                -3.706844413107324E+01,      /* I =  4 */
(PID.TID 0000.0001)                -3.581028225779612E+01,      /* I =  5 */
(PID.TID 0000.0001)                -3.454811012006861E+01,      /* I =  6 */
(PID.TID 0000.0001)                -3.328236654497336E+01,      /* I =  7 */
(PID.TID 0000.0001)                -3.201350241727823E+01,      /* I =  8 */
(PID.TID 0000.0001)                -3.074197927113779E+01,      /* I =  9 */
(PID.TID 0000.0001)                -2.946826779826338E+01,      /* I = 10 */
(PID.TID 0000.0001)                -2.819284628214859E+01,      /* I = 11 */
(PID.TID 0000.0001)                -2.691619896217756E+01,      /* I = 12 */
(PID.TID 0000.0001)                -2.563881425705264E+01,      /* I = 13 */
(PID.TID 0000.0001)                -2.436118574294736E+01,      /* I = 14 */
(PID.TID 0000.0001)                -2.308380103782244E+01,      /* I = 15 */
(PID.TID 0000.0001)                -2.180715371785141E+01,      /* I = 16 */
(PID.TID 0000.0001)                -2.053173220173662E+01,      /* I = 17 */
(PID.TID 0000.0001)                -1.925802072886221E+01,      /* I = 18 */
(PID.TID 0000.0001)                -1.798649758272177E+01,      /* I = 19 */
(PID.TID 0000.0001)                -1.671763345502664E+01,      /* I = 20 */
(PID.TID 0000.0001)                -1.545188987993139E+01,      /* I = 21 */
(PID.TID 0000.0001)                -1.418971774220388E+01,      /* I = 22 */
(PID.TID 0000.0001)                -1.293155586892676E+01,      /* I = 23 */
(PID.TID 0000.0001)                -1.167782971343838E+01,      /* I = 24 */
(PID.TID 0000.0001)                -1.042895013942923E+01,      /* I = 25 */
(PID.TID 0000.0001)                -9.185312311937196E+00,      /* I = 26 */
(PID.TID 0000.0001)                -7.947294700425999E+00,      /* I = 27 */
(PID.TID 0000.0001)                -6.715258197621779E+00,      /* I = 28 */
(PID.TID 0000.0001)                -5.489545357070952E+00,      /* I = 29 */
(PID.TID 0000.0001)                -4.270479749729759E+00       /* I = 30 */
(PID.TID 0000.0001)     ;
(PID.TID 0000.0001) yC =  /* yC(1,:,1,:) : P-point Y coord ( deg. or m if cartesian) */
(PID.TID 0000.0001)                -8.146222940368236E+01,      /* J =  1 */
(PID.TID 0000.0001)                -8.113083815286421E+01,      /* J =  2 */
(PID.TID 0000.0001)                -8.079504828233755E+01,      /* J =  3 */
(PID.TID 0000.0001)                -8.045491317322768E+01,      /* J =  4 */
(PID.TID 0000.0001)                -8.011048280590389E+01,      /* J =  5 */
(PID.TID 0000.0001)                -7.976180430515704E+01,      /* J =  6 */
(PID.TID 0000.0001)                -7.940892240526760E+01,      /* J =  7 */
(PID.TID 0000.0001)                -7.905187984845006E+01,      /* J =  8 */
(PID.TID 0000.0001)                -7.869071772754813E+01,      /* J =  9 */
(PID.TID 0000.0001)                -7.832547578199167E+01,      /* J = 10 */
(PID.TID 0000.0001)                -7.795619265432416E+01,      /* J = 11 */
(PID.TID 0000.0001)                -7.758290611340497E+01,      /* J = 12 */
(PID.TID 0000.0001)                -7.720565324926896E+01,      /* J = 13 */
(PID.TID 0000.0001)                -7.682447064385434E+01,      /* J = 14 */
(PID.TID 0000.0001)                -7.643939452107085E+01,      /* J = 15 */
(PID.TID 0000.0001)                -7.605046087901695E+01,      /* J = 16 */
(PID.TID 0000.0001)                -7.565770560699295E+01,      /* J = 17 */
(PID.TID 0000.0001)                -7.526116458910658E+01,      /* J = 18 */
(PID.TID 0000.0001)                -7.486087379640449E+01,      /* J = 19 */
(PID.TID 0000.0001)                -7.445686936886233E+01,      /* J = 20 */
(PID.TID 0000.0001)                -7.404918768854837E+01,      /* J = 21 */
(PID.TID 0000.0001)                -7.363786544493549E+01,      /* J = 22 */
(PID.TID 0000.0001)                -7.322293969328220E+01,      /* J = 23 */
(PID.TID 0000.0001)                -7.280444790682334E+01,      /* J = 24 */
(PID.TID 0000.0001)                -7.238242802328044E+01,      /* J = 25 */
(PID.TID 0000.0001)                -7.195691848614972E+01,      /* J = 26 */
(PID.TID 0000.0001)                -7.152795828082729E+01,      /* J = 27 */
(PID.TID 0000.0001)                -7.109558696482472E+01,      /* J = 28 */
(PID.TID 0000.0001)                -7.065984468855757E+01,      /* J = 29 */
(PID.TID 0000.0001)                -7.022077218177122E+01       /* J = 30 */
(PID.TID 0000.0001)     ;
(PID.TID 0000.0001) rcoord = /* P-point R coordinate (  units of r ) */
(PID.TID 0000.0001)                -5.000000000000000E+00,      /* K =  1 */
(PID.TID 0000.0001)                -1.500000000000000E+01,      /* K =  2 */
(PID.TID 0000.0001)                -2.500000000000000E+01,      /* K =  3 */
(PID.TID 0000.0001)                -3.500000000000000E+01,      /* K =  4 */
(PID.TID 0000.0001)                -4.500000000000000E+01,      /* K =  5 */
(PID.TID 0000.0001)                -5.500000000000000E+01,      /* K =  6 */
(PID.TID 0000.0001)                -6.500000000000000E+01,      /* K =  7 */
(PID.TID 0000.0001)                -7.500500000000000E+01,      /* K =  8 */
(PID.TID 0000.0001)                -8.502499999999999E+01,      /* K =  9 */
(PID.TID 0000.0001)                -9.509500000000000E+01,      /* K = 10 */
(PID.TID 0000.0001)                -1.053100000000000E+02,      /* K = 11 */
(PID.TID 0000.0001)                -1.158700000000000E+02,      /* K = 12 */
(PID.TID 0000.0001)                -1.271500000000000E+02,      /* K = 13 */
(PID.TID 0000.0001)                -1.397400000000000E+02,      /* K = 14 */
(PID.TID 0000.0001)                -1.544700000000000E+02,      /* K = 15 */
(PID.TID 0000.0001)                -1.724000000000000E+02,      /* K = 16 */
(PID.TID 0000.0001)                -1.947350000000000E+02,      /* K = 17 */
(PID.TID 0000.0001)                -2.227100000000000E+02,      /* K = 18 */
(PID.TID 0000.0001)                -2.574700000000000E+02,      /* K = 19 */
(PID.TID 0000.0001)                -2.999300000000000E+02,      /* K = 20 */
(PID.TID 0000.0001)                -3.506800000000000E+02,      /* K = 21 */
(PID.TID 0000.0001)                -4.099300000000000E+02,      /* K = 22 */
(PID.TID 0000.0001)                -4.774700000000000E+02,      /* K = 23 */
(PID.TID 0000.0001)                -5.527100000000000E+02,      /* K = 24 */
(PID.TID 0000.0001)                -6.347350000000000E+02,      /* K = 25 */
(PID.TID 0000.0001)                -7.224000000000000E+02,      /* K = 26 */
(PID.TID 0000.0001)                -8.144700000000000E+02,      /* K = 27 */
(PID.TID 0000.0001)                -9.097400000000000E+02,      /* K = 28 */
(PID.TID 0000.0001)                -1.007155000000000E+03,      /* K = 29 */
(PID.TID 0000.0001)                -1.105905000000000E+03,      /* K = 30 */
(PID.TID 0000.0001)                -1.205535000000000E+03,      /* K = 31 */
(PID.TID 0000.0001)                -1.306205000000000E+03,      /* K = 32 */
(PID.TID 0000.0001)                -1.409150000000000E+03,      /* K = 33 */
(PID.TID 0000.0001)                -1.517095000000000E+03,      /* K = 34 */
(PID.TID 0000.0001)                -1.634175000000000E+03,      /* K = 35 */
(PID.TID 0000.0001)                -1.765135000000000E+03,      /* K = 36 */
(PID.TID 0000.0001)                -1.914150000000000E+03,      /* K = 37 */
(PID.TID 0000.0001)                -2.084035000000000E+03,      /* K = 38 */
(PID.TID 0000.0001)                -2.276225000000000E+03,      /* K = 39 */
(PID.TID 0000.0001)                -2.491250000000000E+03,      /* K = 40 */
(PID.TID 0000.0001)                -2.729250000000000E+03,      /* K = 41 */
(PID.TID 0000.0001)                -2.990250000000000E+03,      /* K = 42 */
(PID.TID 0000.0001)                -3.274250000000000E+03,      /* K = 43 */
(PID.TID 0000.0001)                -3.581250000000000E+03,      /* K = 44 */
(PID.TID 0000.0001)                -3.911250000000000E+03,      /* K = 45 */
(PID.TID 0000.0001)                -4.264250000000000E+03,      /* K = 46 */
(PID.TID 0000.0001)                -4.640250000000000E+03,      /* K = 47 */
(PID.TID 0000.0001)                -5.039250000000000E+03,      /* K = 48 */
(PID.TID 0000.0001)                -5.461250000000000E+03,      /* K = 49 */
(PID.TID 0000.0001)                -5.906250000000000E+03       /* K = 50 */
(PID.TID 0000.0001)     ;
(PID.TID 0000.0001) rF =   /* W-Interf. R coordinate (  units of r ) */
(PID.TID 0000.0001)                 0.000000000000000E+00,      /* K =  1 */
(PID.TID 0000.0001)                -1.000000000000000E+01,      /* K =  2 */
(PID.TID 0000.0001)                -2.000000000000000E+01,      /* K =  3 */
(PID.TID 0000.0001)                -3.000000000000000E+01,      /* K =  4 */
(PID.TID 0000.0001)                -4.000000000000000E+01,      /* K =  5 */
(PID.TID 0000.0001)                -5.000000000000000E+01,      /* K =  6 */
(PID.TID 0000.0001)                -6.000000000000000E+01,      /* K =  7 */
(PID.TID 0000.0001)                -7.000000000000000E+01,      /* K =  8 */
(PID.TID 0000.0001)                -8.001000000000001E+01,      /* K =  9 */
(PID.TID 0000.0001)                -9.004000000000001E+01,      /* K = 10 */
(PID.TID 0000.0001)                -1.001500000000000E+02,      /* K = 11 */
(PID.TID 0000.0001)                -1.104700000000000E+02,      /* K = 12 */
(PID.TID 0000.0001)                -1.212700000000000E+02,      /* K = 13 */
(PID.TID 0000.0001)                -1.330300000000000E+02,      /* K = 14 */
(PID.TID 0000.0001)                -1.464500000000000E+02,      /* K = 15 */
(PID.TID 0000.0001)                -1.624900000000000E+02,      /* K = 16 */
(PID.TID 0000.0001)                -1.823100000000000E+02,      /* K = 17 */
(PID.TID 0000.0001)                -2.071600000000000E+02,      /* K = 18 */
(PID.TID 0000.0001)                -2.382600000000000E+02,      /* K = 19 */
(PID.TID 0000.0001)                -2.766799999999999E+02,      /* K = 20 */
(PID.TID 0000.0001)                -3.231799999999999E+02,      /* K = 21 */
(PID.TID 0000.0001)                -3.781799999999999E+02,      /* K = 22 */
(PID.TID 0000.0001)                -4.416799999999999E+02,      /* K = 23 */
(PID.TID 0000.0001)                -5.132600000000000E+02,      /* K = 24 */
(PID.TID 0000.0001)                -5.921600000000000E+02,      /* K = 25 */
(PID.TID 0000.0001)                -6.773099999999999E+02,      /* K = 26 */
(PID.TID 0000.0001)                -7.674900000000000E+02,      /* K = 27 */
(PID.TID 0000.0001)                -8.614500000000000E+02,      /* K = 28 */
(PID.TID 0000.0001)                -9.580300000000001E+02,      /* K = 29 */
(PID.TID 0000.0001)                -1.056280000000000E+03,      /* K = 30 */
(PID.TID 0000.0001)                -1.155530000000000E+03,      /* K = 31 */
(PID.TID 0000.0001)                -1.255540000000000E+03,      /* K = 32 */
(PID.TID 0000.0001)                -1.356870000000000E+03,      /* K = 33 */
(PID.TID 0000.0001)                -1.461430000000000E+03,      /* K = 34 */
(PID.TID 0000.0001)                -1.572760000000000E+03,      /* K = 35 */
(PID.TID 0000.0001)                -1.695590000000000E+03,      /* K = 36 */
(PID.TID 0000.0001)                -1.834680000000000E+03,      /* K = 37 */
(PID.TID 0000.0001)                -1.993620000000000E+03,      /* K = 38 */
(PID.TID 0000.0001)                -2.174450000000000E+03,      /* K = 39 */
(PID.TID 0000.0001)                -2.378000000000000E+03,      /* K = 40 */
(PID.TID 0000.0001)                -2.604500000000000E+03,      /* K = 41 */
(PID.TID 0000.0001)                -2.854000000000000E+03,      /* K = 42 */
(PID.TID 0000.0001)                -3.126500000000000E+03,      /* K = 43 */
(PID.TID 0000.0001)                -3.422000000000000E+03,      /* K = 44 */
(PID.TID 0000.0001)                -3.740500000000000E+03,      /* K = 45 */
(PID.TID 0000.0001)                -4.082000000000000E+03,      /* K = 46 */
(PID.TID 0000.0001)                -4.446500000000000E+03,      /* K = 47 */
(PID.TID 0000.0001)                -4.834000000000000E+03,      /* K = 48 */
(PID.TID 0000.0001)                -5.244500000000000E+03,      /* K = 49 */
(PID.TID 0000.0001)                -5.678000000000000E+03,      /* K = 50 */
(PID.TID 0000.0001)                -6.134500000000000E+03       /* K = 51 */
(PID.TID 0000.0001)     ;
(PID.TID 0000.0001) deepFacC = /* deep-model grid factor @ cell-Center (-) */
(PID.TID 0000.0001)    50 @  1.000000000000000E+00              /* K =  1: 50 */
(PID.TID 0000.0001)     ;
(PID.TID 0000.0001) deepFacF = /* deep-model grid factor @ W-Interface (-) */
(PID.TID 0000.0001)    51 @  1.000000000000000E+00              /* K =  1: 51 */
(PID.TID 0000.0001)     ;
(PID.TID 0000.0001) rVel2wUnit = /* convert units: rVel -> wSpeed (=1 if z-coord)*/
(PID.TID 0000.0001)    51 @  1.000000000000000E+00              /* K =  1: 51 */
(PID.TID 0000.0001)     ;
(PID.TID 0000.0001) wUnit2rVel = /* convert units: wSpeed -> rVel (=1 if z-coord)*/
(PID.TID 0000.0001)    51 @  1.000000000000000E+00              /* K =  1: 51 */
(PID.TID 0000.0001)     ;
(PID.TID 0000.0001) dBdrRef = /* Vertical grad. of reference buoyancy [(m/s/r)^2] */
(PID.TID 0000.0001)     3 @  0.000000000000000E+00,             /* K =  1:  3 */
(PID.TID 0000.0001)                 2.706065538651213E-04,      /* K =  4 */
(PID.TID 0000.0001)     2 @  0.000000000000000E+00,             /* K =  5:  6 */
(PID.TID 0000.0001)                 2.632794562663490E-04,      /* K =  7 */
(PID.TID 0000.0001)                 2.554318021231947E-04,      /* K =  8 */
(PID.TID 0000.0001)                 0.000000000000000E+00,      /* K =  9 */
(PID.TID 0000.0001)                 2.461524232360561E-04,      /* K = 10 */
(PID.TID 0000.0001)                 2.348694431245364E-04,      /* K = 11 */
(PID.TID 0000.0001)                 0.000000000000000E+00,      /* K = 12 */
(PID.TID 0000.0001)                 2.056847859884566E-04,      /* K = 13 */
(PID.TID 0000.0001)                 1.777764506003336E-04,      /* K = 14 */
(PID.TID 0000.0001)                 0.000000000000000E+00,      /* K = 15 */
(PID.TID 0000.0001)                 1.203533867077665E-04,      /* K = 16 */
(PID.TID 0000.0001)                 9.288540355629585E-05,      /* K = 17 */
(PID.TID 0000.0001)                 7.115862770365155E-05,      /* K = 18 */
(PID.TID 0000.0001)                 5.484365820533800E-05,      /* K = 19 */
(PID.TID 0000.0001)                 4.290935507113214E-05,      /* K = 20 */
(PID.TID 0000.0001)                 6.658747741703880E-05,      /* K = 21 */
(PID.TID 0000.0001)                 0.000000000000000E+00,      /* K = 22 */
(PID.TID 0000.0001)                 2.323718420342036E-05,      /* K = 23 */
(PID.TID 0000.0001)                 1.974682037962757E-05,      /* K = 24 */
(PID.TID 0000.0001)                 1.709468932536602E-05,      /* K = 25 */
(PID.TID 0000.0001)                 0.000000000000000E+00,      /* K = 26 */
(PID.TID 0000.0001)                 1.455436545977052E-05,      /* K = 27 */
(PID.TID 0000.0001)                 0.000000000000000E+00,      /* K = 28 */
(PID.TID 0000.0001)                 1.315287111980149E-05,      /* K = 29 */
(PID.TID 0000.0001)     2 @  0.000000000000000E+00,             /* K = 30: 31 */
(PID.TID 0000.0001)                 1.240968507885233E-05,      /* K = 32 */
(PID.TID 0000.0001)     2 @  0.000000000000000E+00,             /* K = 33: 34 */
(PID.TID 0000.0001)                 1.045141607964570E-05,      /* K = 35 */
(PID.TID 0000.0001)     3 @  0.000000000000000E+00,             /* K = 36: 38 */
(PID.TID 0000.0001)                 6.628797113709505E-06,      /* K = 39 */
(PID.TID 0000.0001)    11 @  0.000000000000000E+00              /* K = 40: 50 */
(PID.TID 0000.0001)     ;
(PID.TID 0000.0001) rotateGrid = /* use rotated grid ( True/False ) */
(PID.TID 0000.0001)                   F
(PID.TID 0000.0001)     ;
(PID.TID 0000.0001) phiEuler = /* Euler angle, rotation about original z-coordinate [rad] */
(PID.TID 0000.0001)                 0.000000000000000E+00
(PID.TID 0000.0001)     ;
(PID.TID 0000.0001) thetaEuler = /* Euler angle, rotation about new x-coordinate [rad] */
(PID.TID 0000.0001)                 0.000000000000000E+00
(PID.TID 0000.0001)     ;
(PID.TID 0000.0001) psiEuler = /* Euler angle, rotation about new z-coordinate [rad] */
(PID.TID 0000.0001)                 0.000000000000000E+00
(PID.TID 0000.0001)     ;
(PID.TID 0000.0001) dxF =  /* dxF(:,1,:,1) ( units: m ) */
(PID.TID 0000.0001)                 2.071152825743187E+04,      /* I =  1 */
(PID.TID 0000.0001)                 2.070365142756831E+04,      /* I =  2 */
(PID.TID 0000.0001)                 2.069635296570141E+04,      /* I =  3 */
(PID.TID 0000.0001)                 2.068965358413176E+04,      /* I =  4 */
(PID.TID 0000.0001)                 2.068357195583360E+04,      /* I =  5 */
(PID.TID 0000.0001)                 2.067812475356784E+04,      /* I =  6 */
(PID.TID 0000.0001)                 2.067332670125947E+04,      /* I =  7 */
(PID.TID 0000.0001)                 2.066919060389092E+04,      /* I =  8 */
(PID.TID 0000.0001)                 2.066572738985245E+04,      /* I =  9 */
(PID.TID 0000.0001)                 2.066294615597989E+04,      /* I = 10 */
(PID.TID 0000.0001)                 2.066085425372315E+04,      /* I = 11 */
(PID.TID 0000.0001)                 2.065945771525925E+04,      /* I = 12 */
(PID.TID 0000.0001)                 2.065874381268158E+04,      /* I = 13 */
(PID.TID 0000.0001)                 2.065874381268158E+04,      /* I = 14 */
(PID.TID 0000.0001)                 2.065945771525925E+04,      /* I = 15 */
(PID.TID 0000.0001)                 2.066085425372316E+04,      /* I = 16 */
(PID.TID 0000.0001)                 2.066294615597989E+04,      /* I = 17 */
(PID.TID 0000.0001)                 2.066572738985245E+04,      /* I = 18 */
(PID.TID 0000.0001)                 2.066919060389088E+04,      /* I = 19 */
(PID.TID 0000.0001)                 2.067332670125956E+04,      /* I = 20 */
(PID.TID 0000.0001)                 2.067812475356780E+04,      /* I = 21 */
(PID.TID 0000.0001)                 2.068357195583360E+04,      /* I = 22 */
(PID.TID 0000.0001)                 2.068965358413182E+04,      /* I = 23 */
(PID.TID 0000.0001)                 2.069635296570133E+04,      /* I = 24 */
(PID.TID 0000.0001)                 2.070365142756836E+04,      /* I = 25 */
(PID.TID 0000.0001)                 2.071152825743182E+04,      /* I = 26 */
(PID.TID 0000.0001)                 2.071996065138743E+04,      /* I = 27 */
(PID.TID 0000.0001)                 2.072892365863983E+04,      /* I = 28 */
(PID.TID 0000.0001)                 2.073839012765668E+04,      /* I = 29 */
(PID.TID 0000.0001)                 2.074833063718403E+04       /* I = 30 */
(PID.TID 0000.0001)     ;
(PID.TID 0000.0001) dxF =  /* dxF(1,:,1,:) ( units: m ) */
(PID.TID 0000.0001)                 2.071152825743187E+04,      /* J =  1 */
(PID.TID 0000.0001)                 2.109117491456033E+04,      /* J =  2 */
(PID.TID 0000.0001)                 2.148525648961724E+04,      /* J =  3 */
(PID.TID 0000.0001)                 2.189377348588603E+04,      /* J =  4 */
(PID.TID 0000.0001)                 2.231672440915243E+04,      /* J =  5 */
(PID.TID 0000.0001)                 2.275410689480659E+04,      /* J =  6 */
(PID.TID 0000.0001)                 2.320591873318126E+04,      /* J =  7 */
(PID.TID 0000.0001)                 2.367215879054831E+04,      /* J =  8 */
(PID.TID 0000.0001)                 2.415282782538908E+04,      /* J =  9 */
(PID.TID 0000.0001)                 2.464792920101809E+04,      /* J = 10 */
(PID.TID 0000.0001)                 2.515746949702995E+04,      /* J = 11 */
(PID.TID 0000.0001)                 2.568145902315334E+04,      /* J = 12 */
(PID.TID 0000.0001)                 2.621991223981432E+04,      /* J = 13 */
(PID.TID 0000.0001)                 2.677284809033052E+04,      /* J = 14 */
(PID.TID 0000.0001)                 2.734029025013979E+04,      /* J = 15 */
(PID.TID 0000.0001)                 2.792226729855568E+04,      /* J = 16 */
(PID.TID 0000.0001)                 2.851881281852892E+04,      /* J = 17 */
(PID.TID 0000.0001)                 2.912996543046302E+04,      /* J = 18 */
(PID.TID 0000.0001)                 2.975576876502299E+04,      /* J = 19 */
(PID.TID 0000.0001)                 3.039627138062681E+04,      /* J = 20 */
(PID.TID 0000.0001)                 3.105152663065675E+04,      /* J = 21 */
(PID.TID 0000.0001)                 3.172159248542454E+04,      /* J = 22 */
(PID.TID 0000.0001)                 3.240653131349731E+04,      /* J = 23 */
(PID.TID 0000.0001)                 3.310640962675057E+04,      /* J = 24 */
(PID.TID 0000.0001)                 3.382129779388320E+04,      /* J = 25 */
(PID.TID 0000.0001)                 3.455126972555294E+04,      /* J = 26 */
(PID.TID 0000.0001)                 3.529640253603521E+04,      /* J = 27 */
(PID.TID 0000.0001)                 3.605677618612848E+04,      /* J = 28 */
(PID.TID 0000.0001)                 3.683247311866502E+04,      /* J = 29 */
(PID.TID 0000.0001)                 3.762357793548112E+04       /* J = 30 */
(PID.TID 0000.0001)     ;
(PID.TID 0000.0001) dyF =  /* dyF(:,1,:,1) ( units: m ) */
(PID.TID 0000.0001)                 3.700742300337598E+04,      /* I =  1 */
(PID.TID 0000.0001)                 3.707905556394973E+04,      /* I =  2 */
(PID.TID 0000.0001)                 3.714471828319018E+04,      /* I =  3 */
(PID.TID 0000.0001)                 3.720441078960103E+04,      /* I =  4 */
(PID.TID 0000.0001)                 3.725813297080282E+04,      /* I =  5 */
(PID.TID 0000.0001)                 3.730588490725751E+04,      /* I =  6 */
(PID.TID 0000.0001)                 3.734766681359038E+04,      /* I =  7 */
(PID.TID 0000.0001)                 3.738347898712025E+04,      /* I =  8 */
(PID.TID 0000.0001)                 3.741332176340629E+04,      /* I =  9 */
(PID.TID 0000.0001)                 3.743719547859261E+04,      /* I = 10 */
(PID.TID 0000.0001)                 3.745510043824806E+04,      /* I = 11 */
(PID.TID 0000.0001)                 3.746703689267323E+04,      /* I = 12 */
(PID.TID 0000.0001)     2 @  3.747300501832417E+04,             /* I = 13: 14 */
(PID.TID 0000.0001)                 3.746703689267323E+04,      /* I = 15 */
(PID.TID 0000.0001)                 3.745510043824806E+04,      /* I = 16 */
(PID.TID 0000.0001)                 3.743719547859261E+04,      /* I = 17 */
(PID.TID 0000.0001)                 3.741332176340628E+04,      /* I = 18 */
(PID.TID 0000.0001)                 3.738347898712024E+04,      /* I = 19 */
(PID.TID 0000.0001)                 3.734766681359040E+04,      /* I = 20 */
(PID.TID 0000.0001)                 3.730588490725750E+04,      /* I = 21 */
(PID.TID 0000.0001)                 3.725813297080281E+04,      /* I = 22 */
(PID.TID 0000.0001)                 3.720441078960103E+04,      /* I = 23 */
(PID.TID 0000.0001)                 3.714471828319017E+04,      /* I = 24 */
(PID.TID 0000.0001)                 3.707905556394973E+04,      /* I = 25 */
(PID.TID 0000.0001)                 3.700742300337599E+04,      /* I = 26 */
(PID.TID 0000.0001)                 3.692982130617692E+04,      /* I = 27 */
(PID.TID 0000.0001)                 3.684625159269555E+04,      /* I = 28 */
(PID.TID 0000.0001)                 3.675671548992459E+04,      /* I = 29 */
(PID.TID 0000.0001)                 3.666121523181524E+04       /* I = 30 */
(PID.TID 0000.0001)     ;
(PID.TID 0000.0001) dyF =  /* dyF(1,:,1,:) ( units: m ) */
(PID.TID 0000.0001)                 3.700742300337598E+04,      /* J =  1 */
(PID.TID 0000.0001)                 3.745555642044499E+04,      /* J =  2 */
(PID.TID 0000.0001)                 3.790206217653974E+04,      /* J =  3 */
(PID.TID 0000.0001)                 3.834684105117956E+04,      /* J =  4 */
(PID.TID 0000.0001)                 3.878979459357282E+04,      /* J =  5 */
(PID.TID 0000.0001)                 3.923082521328924E+04,      /* J =  6 */
(PID.TID 0000.0001)                 3.966983623246408E+04,      /* J =  7 */
(PID.TID 0000.0001)                 4.010673190475840E+04,      /* J =  8 */
(PID.TID 0000.0001)                 4.054141740950450E+04,      /* J =  9 */
(PID.TID 0000.0001)                 4.097379882434454E+04,      /* J = 10 */
(PID.TID 0000.0001)                 4.140378308084428E+04,      /* J = 11 */
(PID.TID 0000.0001)                 4.183127790875583E+04,      /* J = 12 */
(PID.TID 0000.0001)                 4.225619177206317E+04,      /* J = 13 */
(PID.TID 0000.0001)                 4.267843379867976E+04,      /* J = 14 */
(PID.TID 0000.0001)                 4.309791371221616E+04,      /* J = 15 */
(PID.TID 0000.0001)                 4.351454176087940E+04,      /* J = 16 */
(PID.TID 0000.0001)                 4.392822864881465E+04,      /* J = 17 */
(PID.TID 0000.0001)                 4.433888547805120E+04,      /* J = 18 */
(PID.TID 0000.0001)                 4.474642369096899E+04,      /* J = 19 */
(PID.TID 0000.0001)                 4.515075502217317E+04,      /* J = 20 */
(PID.TID 0000.0001)                 4.555179145554101E+04,      /* J = 21 */
(PID.TID 0000.0001)                 4.594944520275577E+04,      /* J = 22 */
(PID.TID 0000.0001)                 4.634362867401398E+04,      /* J = 23 */
(PID.TID 0000.0001)                 4.673425447947427E+04,      /* J = 24 */
(PID.TID 0000.0001)                 4.712123544873745E+04,      /* J = 25 */
(PID.TID 0000.0001)                 4.750448467975499E+04,      /* J = 26 */
(PID.TID 0000.0001)                 4.788391567392174E+04,      /* J = 27 */
(PID.TID 0000.0001)                 4.825944271092693E+04,      /* J = 28 */
(PID.TID 0000.0001)                 4.863098220111143E+04,      /* J = 29 */
(PID.TID 0000.0001)                 4.899845499569884E+04       /* J = 30 */
(PID.TID 0000.0001)     ;
(PID.TID 0000.0001) dxG =  /* dxG(:,1,:,1) ( units: m ) */
(PID.TID 0000.0001)                 2.052711702021451E+04,      /* I =  1 */
(PID.TID 0000.0001)                 2.051953983526162E+04,      /* I =  2 */
(PID.TID 0000.0001)                 2.051251425926268E+04,      /* I =  3 */
(PID.TID 0000.0001)                 2.050606148013825E+04,      /* I =  4 */
(PID.TID 0000.0001)                 2.050020059906299E+04,      /* I =  5 */
(PID.TID 0000.0001)                 2.049494867086169E+04,      /* I =  6 */
(PID.TID 0000.0001)                 2.049032075633103E+04,      /* I =  7 */
(PID.TID 0000.0001)                 2.048632995314923E+04,      /* I =  8 */
(PID.TID 0000.0001)                 2.048298743895549E+04,      /* I =  9 */
(PID.TID 0000.0001)                 2.048030251694177E+04,      /* I = 10 */
(PID.TID 0000.0001)                 2.047828270203973E+04,      /* I = 11 */
(PID.TID 0000.0001)                 2.047693414389448E+04,      /* I = 12 */
(PID.TID 0000.0001)     2 @  2.047624433858785E+04,             /* I = 13: 14 */
(PID.TID 0000.0001)                 2.047693414389443E+04,      /* I = 15 */
(PID.TID 0000.0001)                 2.047828270203978E+04,      /* I = 16 */
(PID.TID 0000.0001)                 2.048030251694177E+04,      /* I = 17 */
(PID.TID 0000.0001)                 2.048298743895548E+04,      /* I = 18 */
(PID.TID 0000.0001)                 2.048632995314927E+04,      /* I = 19 */
(PID.TID 0000.0001)                 2.049032075633093E+04,      /* I = 20 */
(PID.TID 0000.0001)                 2.049494867086174E+04,      /* I = 21 */
(PID.TID 0000.0001)                 2.050020059906297E+04,      /* I = 22 */
(PID.TID 0000.0001)                 2.050606148013830E+04,      /* I = 23 */
(PID.TID 0000.0001)                 2.051251425926268E+04,      /* I = 24 */
(PID.TID 0000.0001)                 2.051953983526163E+04,      /* I = 25 */
(PID.TID 0000.0001)                 2.052711702021443E+04,      /* I = 26 */
(PID.TID 0000.0001)                 2.053522248594683E+04,      /* I = 27 */
(PID.TID 0000.0001)                 2.054383070727552E+04,      /* I = 28 */
(PID.TID 0000.0001)                 2.055291390664790E+04,      /* I = 29 */
(PID.TID 0000.0001)                 2.056244198352907E+04       /* I = 30 */
(PID.TID 0000.0001)     ;
(PID.TID 0000.0001) dxG =  /* dxG(1,:,1,:) ( units: m ) */
(PID.TID 0000.0001)                 2.052711702021451E+04,      /* J =  1 */
(PID.TID 0000.0001)                 2.089954736357391E+04,      /* J =  2 */
(PID.TID 0000.0001)                 2.128641124518697E+04,      /* J =  3 */
(PID.TID 0000.0001)                 2.168771062037700E+04,      /* J =  4 */
(PID.TID 0000.0001)                 2.210344484655194E+04,      /* J =  5 */
(PID.TID 0000.0001)                 2.253361185972884E+04,      /* J =  6 */
(PID.TID 0000.0001)                 2.297820925105574E+04,      /* J =  7 */
(PID.TID 0000.0001)                 2.343723524028478E+04,      /* J =  8 */
(PID.TID 0000.0001)                 2.391068954427550E+04,      /* J =  9 */
(PID.TID 0000.0001)                 2.439857414125275E+04,      /* J = 10 */
(PID.TID 0000.0001)                 2.490089393241153E+04,      /* J = 11 */
(PID.TID 0000.0001)                 2.541765730414359E+04,      /* J = 12 */
(PID.TID 0000.0001)                 2.594887659459613E+04,      /* J = 13 */
(PID.TID 0000.0001)                 2.649456846940333E+04,      /* J = 14 */
(PID.TID 0000.0001)                 2.705475421181358E+04,      /* J = 15 */
(PID.TID 0000.0001)                 2.762945993231310E+04,      /* J = 16 */
(PID.TID 0000.0001)                 2.821871670385097E+04,      /* J = 17 */
(PID.TID 0000.0001)                 2.882256062780631E+04,      /* J = 18 */
(PID.TID 0000.0001)                 2.944103283669238E+04,      /* J = 19 */
(PID.TID 0000.0001)                 3.007417943861200E+04,      /* J = 20 */
(PID.TID 0000.0001)                 3.072205140902393E+04,      /* J = 21 */
(PID.TID 0000.0001)                 3.138470443467240E+04,      /* J = 22 */
(PID.TID 0000.0001)                 3.206219871470027E+04,      /* J = 23 */
(PID.TID 0000.0001)                 3.275459872326910E+04,      /* J = 24 */
(PID.TID 0000.0001)                 3.346197293831744E+04,      /* J = 25 */
(PID.TID 0000.0001)                 3.418439354048331E+04,      /* J = 26 */
(PID.TID 0000.0001)                 3.492193608585089E+04,      /* J = 27 */
(PID.TID 0000.0001)                 3.567467915738818E+04,      /* J = 28 */
(PID.TID 0000.0001)                 3.644270400216877E+04,      /* J = 29 */
(PID.TID 0000.0001)                 3.722609417427087E+04       /* J = 30 */
(PID.TID 0000.0001)     ;
(PID.TID 0000.0001) dyG =  /* dyG(:,1,:,1) ( units: m ) */
(PID.TID 0000.0001)                 3.696936823759973E+04,      /* I =  1 */
(PID.TID 0000.0001)                 3.704398547852144E+04,      /* I =  2 */
(PID.TID 0000.0001)                 3.711263318385338E+04,      /* I =  3 */
(PID.TID 0000.0001)                 3.717531082528212E+04,      /* I =  4 */
(PID.TID 0000.0001)                 3.723201816961422E+04,      /* I =  5 */
(PID.TID 0000.0001)                 3.728275520872145E+04,      /* I =  6 */
(PID.TID 0000.0001)                 3.732752209699158E+04,      /* I =  7 */
(PID.TID 0000.0001)                 3.736631909640826E+04,      /* I =  8 */
(PID.TID 0000.0001)                 3.739914652852553E+04,      /* I =  9 */
(PID.TID 0000.0001)                 3.742600473350589E+04,      /* I = 10 */
(PID.TID 0000.0001)                 3.744689403567852E+04,      /* I = 11 */
(PID.TID 0000.0001)                 3.746181471567877E+04,      /* I = 12 */
(PID.TID 0000.0001)                 3.747076698884368E+04,      /* I = 13 */
(PID.TID 0000.0001)                 3.747376174977726E+04,      /* I = 14 */
(PID.TID 0000.0001)                 3.747076698884368E+04,      /* I = 15 */
(PID.TID 0000.0001)                 3.746181471567877E+04,      /* I = 16 */
(PID.TID 0000.0001)                 3.744689403567852E+04,      /* I = 17 */
(PID.TID 0000.0001)                 3.742600473350589E+04,      /* I = 18 */
(PID.TID 0000.0001)                 3.739914652852552E+04,      /* I = 19 */
(PID.TID 0000.0001)                 3.736631909640826E+04,      /* I = 20 */
(PID.TID 0000.0001)                 3.732752209699157E+04,      /* I = 21 */
(PID.TID 0000.0001)                 3.728275520872146E+04,      /* I = 22 */
(PID.TID 0000.0001)                 3.723201816961422E+04,      /* I = 23 */
(PID.TID 0000.0001)                 3.717531082528211E+04,      /* I = 24 */
(PID.TID 0000.0001)                 3.711263318385338E+04,      /* I = 25 */
(PID.TID 0000.0001)                 3.704398547852145E+04,      /* I = 26 */
(PID.TID 0000.0001)                 3.696936823759972E+04,      /* I = 27 */
(PID.TID 0000.0001)                 3.688878236278851E+04,      /* I = 28 */
(PID.TID 0000.0001)                 3.680222921581766E+04,      /* I = 29 */
(PID.TID 0000.0001)                 3.670971071402137E+04       /* I = 30 */
(PID.TID 0000.0001)     ;
(PID.TID 0000.0001) dyG =  /* dyG(1,:,1,:) ( units: m ) */
(PID.TID 0000.0001)                 3.696936823759973E+04,      /* J =  1 */
(PID.TID 0000.0001)                 3.741746190559281E+04,      /* J =  2 */
(PID.TID 0000.0001)                 3.786390067184393E+04,      /* J =  3 */
(PID.TID 0000.0001)                 3.830858172733455E+04,      /* J =  4 */
(PID.TID 0000.0001)                 3.875140319955796E+04,      /* J =  5 */
(PID.TID 0000.0001)                 3.919226424948571E+04,      /* J =  6 */
(PID.TID 0000.0001)                 3.963106512715793E+04,      /* J =  7 */
(PID.TID 0000.0001)                 4.006770719102380E+04,      /* J =  8 */
(PID.TID 0000.0001)                 4.050209290047463E+04,      /* J =  9 */
(PID.TID 0000.0001)                 4.093412578484027E+04,      /* J = 10 */
(PID.TID 0000.0001)                 4.136371039407872E+04,      /* J = 11 */
(PID.TID 0000.0001)                 4.179075223673176E+04,      /* J = 12 */
(PID.TID 0000.0001)                 4.221515770920290E+04,      /* J = 13 */
(PID.TID 0000.0001)                 4.263683401805614E+04,      /* J = 14 */
(PID.TID 0000.0001)                 4.305568910412182E+04,      /* J = 15 */
(PID.TID 0000.0001)                 4.347163156363047E+04,      /* J = 16 */
(PID.TID 0000.0001)                 4.388457057225752E+04,      /* J = 17 */
(PID.TID 0000.0001)                 4.429441581934092E+04,      /* J = 18 */
(PID.TID 0000.0001)                 4.470107744374240E+04,      /* J = 19 */
(PID.TID 0000.0001)                 4.510446597891348E+04,      /* J = 20 */
(PID.TID 0000.0001)                 4.550449230395439E+04,      /* J = 21 */
(PID.TID 0000.0001)                 4.590106761654920E+04,      /* J = 22 */
(PID.TID 0000.0001)                 4.629410339849156E+04,      /* J = 23 */
(PID.TID 0000.0001)                 4.668351141269982E+04,      /* J = 24 */
(PID.TID 0000.0001)                 4.706920371856177E+04,      /* J = 25 */
(PID.TID 0000.0001)                 4.745109271730031E+04,      /* J = 26 */
(PID.TID 0000.0001)                 4.782909128417812E+04,      /* J = 27 */
(PID.TID 0000.0001)                 4.820311314005602E+04,      /* J = 28 */
(PID.TID 0000.0001)                 4.857307420014453E+04,      /* J = 29 */
(PID.TID 0000.0001)                 4.893889490827491E+04       /* J = 30 */
(PID.TID 0000.0001)     ;
(PID.TID 0000.0001) dxC =  /* dxC(:,1,:,1) ( units: m ) */
(PID.TID 0000.0001)                 2.071567651695695E+04,      /* I =  1 */
(PID.TID 0000.0001)                 2.070751892245589E+04,      /* I =  2 */
(PID.TID 0000.0001)                 2.069992855779408E+04,      /* I =  3 */
(PID.TID 0000.0001)                 2.069292717562287E+04,      /* I =  4 */
(PID.TID 0000.0001)                 2.068653446229046E+04,      /* I =  5 */
(PID.TID 0000.0001)                 2.068076808552306E+04,      /* I =  6 */
(PID.TID 0000.0001)                 2.067564373903614E+04,      /* I =  7 */
(PID.TID 0000.0001)                 2.067117518190149E+04,      /* I =  8 */
(PID.TID 0000.0001)                 2.066737427558298E+04,      /* I =  9 */
(PID.TID 0000.0001)                 2.066425102685107E+04,      /* I = 10 */
(PID.TID 0000.0001)                 2.066181364132844E+04,      /* I = 11 */
(PID.TID 0000.0001)                 2.066006869803818E+04,      /* I = 12 */
(PID.TID 0000.0001)                 2.065902266229015E+04,      /* I = 13 */
(PID.TID 0000.0001)                 2.065863826775786E+04,      /* I = 14 */
(PID.TID 0000.0001)                 2.065902266229016E+04,      /* I = 15 */
(PID.TID 0000.0001)                 2.066006869803813E+04,      /* I = 16 */
(PID.TID 0000.0001)                 2.066181364132850E+04,      /* I = 17 */
(PID.TID 0000.0001)                 2.066425102685108E+04,      /* I = 18 */
(PID.TID 0000.0001)                 2.066737427558298E+04,      /* I = 19 */
(PID.TID 0000.0001)                 2.067117518190149E+04,      /* I = 20 */
(PID.TID 0000.0001)                 2.067564373903615E+04,      /* I = 21 */
(PID.TID 0000.0001)                 2.068076808552304E+04,      /* I = 22 */
(PID.TID 0000.0001)                 2.068653446229045E+04,      /* I = 23 */
(PID.TID 0000.0001)                 2.069292717562287E+04,      /* I = 24 */
(PID.TID 0000.0001)                 2.069992855779413E+04,      /* I = 25 */
(PID.TID 0000.0001)                 2.070751892245584E+04,      /* I = 26 */
(PID.TID 0000.0001)                 2.071567651695691E+04,      /* I = 27 */
(PID.TID 0000.0001)                 2.072437747324421E+04,      /* I = 28 */
(PID.TID 0000.0001)                 2.073359574551806E+04,      /* I = 29 */
(PID.TID 0000.0001)                 2.074330305575613E+04       /* I = 30 */
(PID.TID 0000.0001)     ;
(PID.TID 0000.0001) dxC =  /* dxC(1,:,1,:) ( units: m ) */
(PID.TID 0000.0001)                 2.071567651695695E+04,      /* J =  1 */
(PID.TID 0000.0001)                 2.109563672137949E+04,      /* J =  2 */
(PID.TID 0000.0001)                 2.149002149497106E+04,      /* J =  3 */
(PID.TID 0000.0001)                 2.189882927482529E+04,      /* J =  4 */
(PID.TID 0000.0001)                 2.232205646389843E+04,      /* J =  5 */
(PID.TID 0000.0001)                 2.275969855854128E+04,      /* J =  6 */
(PID.TID 0000.0001)                 2.321175117362029E+04,      /* J =  7 */
(PID.TID 0000.0001)                 2.367821096276529E+04,      /* J =  8 */
(PID.TID 0000.0001)                 2.415907643347346E+04,      /* J =  9 */
(PID.TID 0000.0001)                 2.465434865814045E+04,      /* J = 10 */
(PID.TID 0000.0001)                 2.516403188365780E+04,      /* J = 11 */
(PID.TID 0000.0001)                 2.568813404310613E+04,      /* J = 12 */
(PID.TID 0000.0001)                 2.622666717399572E+04,      /* J = 13 */
(PID.TID 0000.0001)                 2.677964774799169E+04,      /* J = 14 */
(PID.TID 0000.0001)                 2.734709691757753E+04,      /* J = 15 */
(PID.TID 0000.0001)                 2.792904068517491E+04,      /* J = 16 */
(PID.TID 0000.0001)                 2.852551000032625E+04,      /* J = 17 */
(PID.TID 0000.0001)                 2.913654079081990E+04,      /* J = 18 */
(PID.TID 0000.0001)                 2.976217393306023E+04,      /* J = 19 */
(PID.TID 0000.0001)                 3.040245516699173E+04,      /* J = 20 */
(PID.TID 0000.0001)                 3.105743496108396E+04,      /* J = 21 */
(PID.TID 0000.0001)                 3.172716833208323E+04,      /* J = 22 */
(PID.TID 0000.0001)                 3.241171462422546E+04,      /* J = 23 */
(PID.TID 0000.0001)                 3.311113725244482E+04,      /* J = 24 */
(PID.TID 0000.0001)                 3.382550341391024E+04,      /* J = 25 */
(PID.TID 0000.0001)                 3.455488377140061E+04,      /* J = 26 */
(PID.TID 0000.0001)                 3.529935211332738E+04,      /* J = 27 */
(PID.TID 0000.0001)                 3.605898499520765E+04,      /* J = 28 */
(PID.TID 0000.0001)                 3.683386137397906E+04,      /* J = 29 */
(PID.TID 0000.0001)                 3.762406228407349E+04       /* J = 30 */
(PID.TID 0000.0001)     ;
(PID.TID 0000.0001) dyC =  /* dyC(:,1,:,1) ( units: m ) */
(PID.TID 0000.0001)                 3.678277710845771E+04,      /* I =  1 */
(PID.TID 0000.0001)                 3.685438685866048E+04,      /* I =  2 */
(PID.TID 0000.0001)                 3.692002588020908E+04,      /* I =  3 */
(PID.TID 0000.0001)                 3.697969453541307E+04,      /* I =  4 */
(PID.TID 0000.0001)                 3.703339337607873E+04,      /* I =  5 */
(PID.TID 0000.0001)                 3.708112307814123E+04,      /* I =  6 */
(PID.TID 0000.0001)                 3.712288438364359E+04,      /* I =  7 */
(PID.TID 0000.0001)                 3.715867804995441E+04,      /* I =  8 */
(PID.TID 0000.0001)                 3.718850480589901E+04,      /* I =  9 */
(PID.TID 0000.0001)                 3.721236531452968E+04,      /* I = 10 */
(PID.TID 0000.0001)                 3.723026014246432E+04,      /* I = 11 */
(PID.TID 0000.0001)                 3.724218973548726E+04,      /* I = 12 */
(PID.TID 0000.0001)     2 @  3.724815440020872E+04,             /* I = 13: 14 */
(PID.TID 0000.0001)                 3.724218973548726E+04,      /* I = 15 */
(PID.TID 0000.0001)                 3.723026014246432E+04,      /* I = 16 */
(PID.TID 0000.0001)                 3.721236531452968E+04,      /* I = 17 */
(PID.TID 0000.0001)                 3.718850480589901E+04,      /* I = 18 */
(PID.TID 0000.0001)                 3.715867804995440E+04,      /* I = 19 */
(PID.TID 0000.0001)                 3.712288438364359E+04,      /* I = 20 */
(PID.TID 0000.0001)                 3.708112307814122E+04,      /* I = 21 */
(PID.TID 0000.0001)                 3.703339337607873E+04,      /* I = 22 */
(PID.TID 0000.0001)                 3.697969453541307E+04,      /* I = 23 */
(PID.TID 0000.0001)                 3.692002588020908E+04,      /* I = 24 */
(PID.TID 0000.0001)                 3.685438685866047E+04,      /* I = 25 */
(PID.TID 0000.0001)                 3.678277710845772E+04,      /* I = 26 */
(PID.TID 0000.0001)                 3.670519653011381E+04,      /* I = 27 */
(PID.TID 0000.0001)                 3.662164536844059E+04,      /* I = 28 */
(PID.TID 0000.0001)                 3.653212430257830E+04,      /* I = 29 */
(PID.TID 0000.0001)                 3.643663454523116E+04       /* I = 30 */
(PID.TID 0000.0001)     ;
(PID.TID 0000.0001) dyC =  /* dyC(1,:,1,:) ( units: m ) */
(PID.TID 0000.0001)                 3.678277710845771E+04,      /* J =  1 */
(PID.TID 0000.0001)                 3.723168694115569E+04,      /* J =  2 */
(PID.TID 0000.0001)                 3.767901897410101E+04,      /* J =  3 */
(PID.TID 0000.0001)                 3.812467364657602E+04,      /* J =  4 */
(PID.TID 0000.0001)                 3.856855210935249E+04,      /* J =  5 */
(PID.TID 0000.0001)                 3.901055633269680E+04,      /* J =  6 */
(PID.TID 0000.0001)                 3.945058917911859E+04,      /* J =  7 */
(PID.TID 0000.0001)                 3.988855443472220E+04,      /* J =  8 */
(PID.TID 0000.0001)                 4.032435681898361E+04,      /* J =  9 */
(PID.TID 0000.0001)                 4.075790196435841E+04,      /* J = 10 */
(PID.TID 0000.0001)                 4.118909638222960E+04,      /* J = 11 */
(PID.TID 0000.0001)                 4.161784741043697E+04,      /* J = 12 */
(PID.TID 0000.0001)                 4.204406315499045E+04,      /* J = 13 */
(PID.TID 0000.0001)                 4.246765242091182E+04,      /* J = 14 */
(PID.TID 0000.0001)                 4.288852464034393E+04,      /* J = 15 */
(PID.TID 0000.0001)                 4.330658981118225E+04,      /* J = 16 */
(PID.TID 0000.0001)                 4.372175841431943E+04,      /* J = 17 */
(PID.TID 0000.0001)                 4.413394136293020E+04,      /* J = 18 */
(PID.TID 0000.0001)                 4.454304993440304E+04,      /* J = 19 */
(PID.TID 0000.0001)                 4.494899572325061E+04,      /* J = 20 */
(PID.TID 0000.0001)                 4.535169059286820E+04,      /* J = 21 */
(PID.TID 0000.0001)                 4.575104664412256E+04,      /* J = 22 */
(PID.TID 0000.0001)                 4.614697618947234E+04,      /* J = 23 */
(PID.TID 0000.0001)                 4.653939173844085E+04,      /* J = 24 */
(PID.TID 0000.0001)                 4.692820600744408E+04,      /* J = 25 */
(PID.TID 0000.0001)                 4.731333194957835E+04,      /* J = 26 */
(PID.TID 0000.0001)                 4.769468283927006E+04,      /* J = 27 */
(PID.TID 0000.0001)                 4.807217249390641E+04,      /* J = 28 */
(PID.TID 0000.0001)                 4.844571593362943E+04,      /* J = 29 */
(PID.TID 0000.0001)                 4.881523285497380E+04       /* J = 30 */
(PID.TID 0000.0001)     ;
(PID.TID 0000.0001) dxV =  /* dxV(:,1,:,1) ( units: m ) */
(PID.TID 0000.0001)                 2.053110526075532E+04,      /* I =  1 */
(PID.TID 0000.0001)                 2.052326088418283E+04,      /* I =  2 */
(PID.TID 0000.0001)                 2.051595672244828E+04,      /* I =  3 */
(PID.TID 0000.0001)                 2.050921502797681E+04,      /* I =  4 */
(PID.TID 0000.0001)                 2.050305593886370E+04,      /* I =  5 */
(PID.TID 0000.0001)                 2.049749752783181E+04,      /* I =  6 */
(PID.TID 0000.0001)                 2.049255584793284E+04,      /* I =  7 */
(PID.TID 0000.0001)                 2.048824497292525E+04,      /* I =  8 */
(PID.TID 0000.0001)                 2.048457703515834E+04,      /* I =  9 */
(PID.TID 0000.0001)                 2.048156226915133E+04,      /* I = 10 */
(PID.TID 0000.0001)                 2.047920906551970E+04,      /* I = 11 */
(PID.TID 0000.0001)                 2.047752414469434E+04,      /* I = 12 */
(PID.TID 0000.0001)                 2.047651405696554E+04,      /* I = 13 */
(PID.TID 0000.0001)                 2.047614194664622E+04,      /* I = 14 */
(PID.TID 0000.0001)                 2.047651405696559E+04,      /* I = 15 */
(PID.TID 0000.0001)                 2.047752414469430E+04,      /* I = 16 */
(PID.TID 0000.0001)                 2.047920906551971E+04,      /* I = 17 */
(PID.TID 0000.0001)                 2.048156226915138E+04,      /* I = 18 */
(PID.TID 0000.0001)                 2.048457703515829E+04,      /* I = 19 */
(PID.TID 0000.0001)                 2.048824497292535E+04,      /* I = 20 */
(PID.TID 0000.0001)                 2.049255584793274E+04,      /* I = 21 */
(PID.TID 0000.0001)                 2.049749752783187E+04,      /* I = 22 */
(PID.TID 0000.0001)                 2.050305593886373E+04,      /* I = 23 */
(PID.TID 0000.0001)                 2.050921502797675E+04,      /* I = 24 */
(PID.TID 0000.0001)                 2.051595672244826E+04,      /* I = 25 */
(PID.TID 0000.0001)                 2.052326088418290E+04,      /* I = 26 */
(PID.TID 0000.0001)                 2.053110526075532E+04,      /* I = 27 */
(PID.TID 0000.0001)                 2.053946543494557E+04,      /* I = 28 */
(PID.TID 0000.0001)                 2.054831476098181E+04,      /* I = 29 */
(PID.TID 0000.0001)                 2.055762430839241E+04       /* I = 30 */
(PID.TID 0000.0001)     ;
(PID.TID 0000.0001) dxV =  /* dxV(1,:,1,:) ( units: m ) */
(PID.TID 0000.0001)                 2.053110526075532E+04,      /* J =  1 */
(PID.TID 0000.0001)                 2.090385356266093E+04,      /* J =  2 */
(PID.TID 0000.0001)                 2.129102607314009E+04,      /* J =  3 */
(PID.TID 0000.0001)                 2.169262269996662E+04,      /* J =  4 */
(PID.TID 0000.0001)                 2.210864071595607E+04,      /* J =  5 */
(PID.TID 0000.0001)                 2.253907593617405E+04,      /* J =  6 */
(PID.TID 0000.0001)                 2.298392379458377E+04,      /* J =  7 */
(PID.TID 0000.0001)                 2.344318031700113E+04,      /* J =  8 */
(PID.TID 0000.0001)                 2.391684298864163E+04,      /* J =  9 */
(PID.TID 0000.0001)                 2.440491151699962E+04,      /* J = 10 */
(PID.TID 0000.0001)                 2.490738849171163E+04,      /* J = 11 */
(PID.TID 0000.0001)                 2.542427994477456E+04,      /* J = 12 */
(PID.TID 0000.0001)                 2.595559581485789E+04,      /* J = 13 */
(PID.TID 0000.0001)                 2.650135032062733E+04,      /* J = 14 */
(PID.TID 0000.0001)                 2.706156224833991E+04,      /* J = 15 */
(PID.TID 0000.0001)                 2.763625515890197E+04,      /* J = 16 */
(PID.TID 0000.0001)                 2.822545752042790E+04,      /* J = 17 */
(PID.TID 0000.0001)                 2.882920277162976E+04,      /* J = 18 */
(PID.TID 0000.0001)                 2.944752932187136E+04,      /* J = 19 */
(PID.TID 0000.0001)                 3.008048049319959E+04,      /* J = 20 */
(PID.TID 0000.0001)                 3.072810440966728E+04,      /* J = 21 */
(PID.TID 0000.0001)                 3.139045383903842E+04,      /* J = 22 */
(PID.TID 0000.0001)                 3.206758599174654E+04,      /* J = 23 */
(PID.TID 0000.0001)                 3.275956228156967E+04,      /* J = 24 */
(PID.TID 0000.0001)                 3.346644805244220E+04,      /* J = 25 */
(PID.TID 0000.0001)                 3.418831227550044E+04,      /* J = 26 */
(PID.TID 0000.0001)                 3.492522722017510E+04,      /* J = 27 */
(PID.TID 0000.0001)                 3.567726810399632E+04,      /* J = 28 */
(PID.TID 0000.0001)                 3.644451272859776E+04,      /* J = 29 */
(PID.TID 0000.0001)                 3.722704112152557E+04       /* J = 30 */
(PID.TID 0000.0001)     ;
(PID.TID 0000.0001) dyU =  /* dyU(:,1,:,1) ( units: m ) */
(PID.TID 0000.0001)                 3.674473316658630E+04,      /* I =  1 */
(PID.TID 0000.0001)                 3.681932833792822E+04,      /* I =  2 */
(PID.TID 0000.0001)                 3.688795269313092E+04,      /* I =  3 */
(PID.TID 0000.0001)                 3.695060647275718E+04,      /* I =  4 */
(PID.TID 0000.0001)                 3.700729014250917E+04,      /* I =  5 */
(PID.TID 0000.0001)                 3.705800432398131E+04,      /* I =  6 */
(PID.TID 0000.0001)                 3.710274973294064E+04,      /* I =  7 */
(PID.TID 0000.0001)                 3.714152712500728E+04,      /* I =  8 */
(PID.TID 0000.0001)                 3.717433724834998E+04,      /* I =  9 */
(PID.TID 0000.0001)                 3.720118080314009E+04,      /* I = 10 */
(PID.TID 0000.0001)                 3.722205840764935E+04,      /* I = 11 */
(PID.TID 0000.0001)                 3.723697057073888E+04,      /* I = 12 */
(PID.TID 0000.0001)                 3.724591767054543E+04,      /* I = 13 */
(PID.TID 0000.0001)                 3.724891083990022E+04,      /* I = 14 */
(PID.TID 0000.0001)                 3.724591767054542E+04,      /* I = 15 */
(PID.TID 0000.0001)                 3.723697057073889E+04,      /* I = 16 */
(PID.TID 0000.0001)                 3.722205840764935E+04,      /* I = 17 */
(PID.TID 0000.0001)                 3.720118080314008E+04,      /* I = 18 */
(PID.TID 0000.0001)                 3.717433724834998E+04,      /* I = 19 */
(PID.TID 0000.0001)                 3.714152712500728E+04,      /* I = 20 */
(PID.TID 0000.0001)                 3.710274973294063E+04,      /* I = 21 */
(PID.TID 0000.0001)                 3.705800432398131E+04,      /* I = 22 */
(PID.TID 0000.0001)                 3.700729014250917E+04,      /* I = 23 */
(PID.TID 0000.0001)                 3.695060647275716E+04,      /* I = 24 */
(PID.TID 0000.0001)                 3.688795269313094E+04,      /* I = 25 */
(PID.TID 0000.0001)                 3.681932833792821E+04,      /* I = 26 */
(PID.TID 0000.0001)                 3.674473316658630E+04,      /* I = 27 */
(PID.TID 0000.0001)                 3.666416724104654E+04,      /* I = 28 */
(PID.TID 0000.0001)                 3.657763101146962E+04,      /* I = 29 */
(PID.TID 0000.0001)                 3.648512541079492E+04       /* I = 30 */
(PID.TID 0000.0001)     ;
(PID.TID 0000.0001) dyU =  /* dyU(1,:,1,:) ( units: m ) */
(PID.TID 0000.0001)                 3.674473316658630E+04,      /* J =  1 */
(PID.TID 0000.0001)                 3.719361547538896E+04,      /* J =  2 */
(PID.TID 0000.0001)                 3.764089459751266E+04,      /* J =  3 */
(PID.TID 0000.0001)                 3.808646730382765E+04,      /* J =  4 */
(PID.TID 0000.0001)                 3.853023123895088E+04,      /* J =  5 */
(PID.TID 0000.0001)                 3.897208503739593E+04,      /* J =  6 */
(PID.TID 0000.0001)                 3.941192840112046E+04,      /* J =  7 */
(PID.TID 0000.0001)                 3.984966213263487E+04,      /* J =  8 */
(PID.TID 0000.0001)                 4.028518814419441E+04,      /* J =  9 */
(PID.TID 0000.0001)                 4.071840943468107E+04,      /* J = 10 */
(PID.TID 0000.0001)                 4.114923005120406E+04,      /* J = 11 */
(PID.TID 0000.0001)                 4.157755503103340E+04,      /* J = 12 */
(PID.TID 0000.0001)                 4.200329033666767E+04,      /* J = 13 */
(PID.TID 0000.0001)                 4.242634277960793E+04,      /* J = 14 */
(PID.TID 0000.0001)                 4.284661994092684E+04,      /* J = 15 */
(PID.TID 0000.0001)                 4.326403010205203E+04,      /* J = 16 */
(PID.TID 0000.0001)                 4.367848215462093E+04,      /* J = 17 */
(PID.TID 0000.0001)                 4.408988554208750E+04,      /* J = 18 */
(PID.TID 0000.0001)                 4.449815018464295E+04,      /* J = 19 */
(PID.TID 0000.0001)                 4.490318642518511E+04,      /* J = 20 */
(PID.TID 0000.0001)                 4.530490497491705E+04,      /* J = 21 */
(PID.TID 0000.0001)                 4.570321687598708E+04,      /* J = 22 */
(PID.TID 0000.0001)                 4.609803347024994E+04,      /* J = 23 */
(PID.TID 0000.0001)                 4.648926637992392E+04,      /* J = 24 */
(PID.TID 0000.0001)                 4.687682751321772E+04,      /* J = 25 */
(PID.TID 0000.0001)                 4.726062909013533E+04,      /* J = 26 */
(PID.TID 0000.0001)                 4.764058372401170E+04,      /* J = 27 */
(PID.TID 0000.0001)                 4.801660464021451E+04,      /* J = 28 */
(PID.TID 0000.0001)                 4.838860633247659E+04,      /* J = 29 */
(PID.TID 0000.0001)                 4.875650803021456E+04       /* J = 30 */
(PID.TID 0000.0001)     ;
(PID.TID 0000.0001) rA  =  /* rA (:,1,:,1) ( units: m^2 ) */
(PID.TID 0000.0001)                 7.665113621396177E+08,      /* I =  1 */
(PID.TID 0000.0001)                 7.677029697239892E+08,      /* I =  2 */
(PID.TID 0000.0001)                 7.687913877455838E+08,      /* I =  3 */
(PID.TID 0000.0001)                 7.697775979751738E+08,      /* I =  4 */
(PID.TID 0000.0001)                 7.706625466485583E+08,      /* I =  5 */
(PID.TID 0000.0001)                 7.714470546020026E+08,      /* I =  6 */
(PID.TID 0000.0001)                 7.721318586456149E+08,      /* I =  7 */
(PID.TID 0000.0001)                 7.727176271684608E+08,      /* I =  8 */
(PID.TID 0000.0001)                 7.732049082776864E+08,      /* I =  9 */
(PID.TID 0000.0001)                 7.735941717305043E+08,      /* I = 10 */
(PID.TID 0000.0001)                 7.738858051500469E+08,      /* I = 11 */
(PID.TID 0000.0001)                 7.740801100790358E+08,      /* I = 12 */
(PID.TID 0000.0001)                 7.741766386182301E+08,      /* I = 13 */
(PID.TID 0000.0001)                 7.741766369784317E+08,      /* I = 14 */
(PID.TID 0000.0001)                 7.740801094843833E+08,      /* I = 15 */
(PID.TID 0000.0001)                 7.738858062852919E+08,      /* I = 16 */
(PID.TID 0000.0001)                 7.735941726495122E+08,      /* I = 17 */
(PID.TID 0000.0001)                 7.732049061873938E+08,      /* I = 18 */
(PID.TID 0000.0001)                 7.727176277450933E+08,      /* I = 19 */
(PID.TID 0000.0001)                 7.721318658895597E+08,      /* I = 20 */
(PID.TID 0000.0001)                 7.714470531424019E+08,      /* I = 21 */
(PID.TID 0000.0001)                 7.706625470810328E+08,      /* I = 22 */
(PID.TID 0000.0001)                 7.697776024260553E+08,      /* I = 23 */
(PID.TID 0000.0001)                 7.687913844659867E+08,      /* I = 24 */
(PID.TID 0000.0001)                 7.677029712196296E+08,      /* I = 25 */
(PID.TID 0000.0001)                 7.665113646083255E+08,      /* I = 26 */
(PID.TID 0000.0001)                 7.652154604170089E+08,      /* I = 27 */
(PID.TID 0000.0001)                 7.638140926048064E+08,      /* I = 28 */
(PID.TID 0000.0001)                 7.623059927966076E+08,      /* I = 29 */
(PID.TID 0000.0001)                 7.606898330980235E+08       /* I = 30 */
(PID.TID 0000.0001)     ;
(PID.TID 0000.0001) rA  =  /* rA (1,:,1,:) ( units: m^2 ) */
(PID.TID 0000.0001)                 7.665113621396177E+08,      /* J =  1 */
(PID.TID 0000.0001)                 7.900134359449342E+08,      /* J =  2 */
(PID.TID 0000.0001)                 8.143679155417176E+08,      /* J =  3 */
(PID.TID 0000.0001)                 8.395900636155584E+08,      /* J =  4 */
(PID.TID 0000.0001)                 8.656947784023314E+08,      /* J =  5 */
(PID.TID 0000.0001)                 8.926966010402582E+08,      /* J =  6 */
(PID.TID 0000.0001)                 9.206097737377057E+08,      /* J =  7 */
(PID.TID 0000.0001)                 9.494482582794807E+08,      /* J =  8 */
(PID.TID 0000.0001)                 9.792257431806778E+08,      /* J =  9 */
(PID.TID 0000.0001)                 1.009955679131553E+09,      /* J = 10 */
(PID.TID 0000.0001)                 1.041651296044221E+09,      /* J = 11 */
(PID.TID 0000.0001)                 1.074325614369065E+09,      /* J = 12 */
(PID.TID 0000.0001)                 1.107991467925779E+09,      /* J = 13 */
(PID.TID 0000.0001)                 1.142661498173082E+09,      /* J = 14 */
(PID.TID 0000.0001)                 1.178348167164929E+09,      /* J = 15 */
(PID.TID 0000.0001)                 1.215063762235644E+09,      /* J = 16 */
(PID.TID 0000.0001)                 1.252820414073754E+09,      /* J = 17 */
(PID.TID 0000.0001)                 1.291630043617734E+09,      /* J = 18 */
(PID.TID 0000.0001)                 1.331504416619858E+09,      /* J = 19 */
(PID.TID 0000.0001)                 1.372455096362339E+09,      /* J = 20 */
(PID.TID 0000.0001)                 1.414493440828222E+09,      /* J = 21 */
(PID.TID 0000.0001)                 1.457630613639386E+09,      /* J = 22 */
(PID.TID 0000.0001)                 1.501877517761831E+09,      /* J = 23 */
(PID.TID 0000.0001)                 1.547244834049951E+09,      /* J = 24 */
(PID.TID 0000.0001)                 1.593742963439136E+09,      /* J = 25 */
(PID.TID 0000.0001)                 1.641382020566774E+09,      /* J = 26 */
(PID.TID 0000.0001)                 1.690171807481416E+09,      /* J = 27 */
(PID.TID 0000.0001)                 1.740121820832662E+09,      /* J = 28 */
(PID.TID 0000.0001)                 1.791241246411172E+09,      /* J = 29 */
(PID.TID 0000.0001)                 1.843539059771026E+09       /* J = 30 */
(PID.TID 0000.0001)     ;
(PID.TID 0000.0001) rAw =  /* rAw(:,1,:,1) ( units: m^2 ) */
(PID.TID 0000.0001)                 7.658765213139513E+08,      /* I =  1 */
(PID.TID 0000.0001)                 7.671201328724998E+08,      /* I =  2 */
(PID.TID 0000.0001)                 7.682600121490355E+08,      /* I =  3 */
(PID.TID 0000.0001)                 7.692972101823016E+08,      /* I =  4 */
(PID.TID 0000.0001)                 7.702326756407654E+08,      /* I =  5 */
(PID.TID 0000.0001)                 7.710673044850856E+08,      /* I =  6 */
(PID.TID 0000.0001)                 7.718018764844863E+08,      /* I =  7 */
(PID.TID 0000.0001)                 7.724370884091616E+08,      /* I =  8 */
(PID.TID 0000.0001)                 7.729735468223690E+08,      /* I =  9 */
(PID.TID 0000.0001)                 7.734117650170708E+08,      /* I = 10 */
(PID.TID 0000.0001)                 7.737521718456172E+08,      /* I = 11 */
(PID.TID 0000.0001)                 7.739951054308500E+08,      /* I = 12 */
(PID.TID 0000.0001)                 7.741408739107244E+08,      /* I = 13 */
(PID.TID 0000.0001)                 7.741880730050739E+08,      /* I = 14 */
(PID.TID 0000.0001)                 7.741408710636016E+08,      /* I = 15 */
(PID.TID 0000.0001)                 7.739951071427275E+08,      /* I = 16 */
(PID.TID 0000.0001)                 7.737521718095777E+08,      /* I = 17 */
(PID.TID 0000.0001)                 7.734117675938969E+08,      /* I = 18 */
(PID.TID 0000.0001)                 7.729735457051437E+08,      /* I = 19 */
(PID.TID 0000.0001)                 7.724370889497546E+08,      /* I = 20 */
(PID.TID 0000.0001)                 7.718018793856685E+08,      /* I = 21 */
(PID.TID 0000.0001)                 7.710673053320146E+08,      /* I = 22 */
(PID.TID 0000.0001)                 7.702326816053071E+08,      /* I = 23 */
(PID.TID 0000.0001)                 7.692972065242898E+08,      /* I = 24 */
(PID.TID 0000.0001)                 7.682600115363635E+08,      /* I = 25 */
(PID.TID 0000.0001)                 7.671201363863536E+08,      /* I = 26 */
(PID.TID 0000.0001)                 7.658765213499908E+08,      /* I = 27 */
(PID.TID 0000.0001)                 7.645280345158333E+08,      /* I = 28 */
(PID.TID 0000.0001)                 7.630734673343852E+08,      /* I = 29 */
(PID.TID 0000.0001)                 7.615115062009304E+08       /* I = 30 */
(PID.TID 0000.0001)     ;
(PID.TID 0000.0001) rAw =  /* rAw(1,:,1,:) ( units: m^2 ) */
(PID.TID 0000.0001)                 7.658765213139513E+08,      /* J =  1 */
(PID.TID 0000.0001)                 7.893768970448780E+08,      /* J =  2 */
(PID.TID 0000.0001)                 8.137283914516071E+08,      /* J =  3 */
(PID.TID 0000.0001)                 8.389460603348250E+08,      /* J =  4 */
(PID.TID 0000.0001)                 8.650445848102766E+08,      /* J =  5 */
(PID.TID 0000.0001)                 8.920382782103341E+08,      /* J =  6 */
(PID.TID 0000.0001)                 9.199411445401106E+08,      /* J =  7 */
(PID.TID 0000.0001)                 9.487668893433769E+08,      /* J =  8 */
(PID.TID 0000.0001)                 9.785289545527842E+08,      /* J =  9 */
(PID.TID 0000.0001)                 1.009240515336406E+09,      /* J = 10 */
(PID.TID 0000.0001)                 1.040914522930714E+09,      /* J = 11 */
(PID.TID 0000.0001)                 1.073563715488477E+09,      /* J = 12 */
(PID.TID 0000.0001)                 1.107200612276400E+09,      /* J = 13 */
(PID.TID 0000.0001)                 1.141837554111466E+09,      /* J = 14 */
(PID.TID 0000.0001)                 1.177486672294872E+09,      /* J = 15 */
(PID.TID 0000.0001)                 1.214159933192917E+09,      /* J = 16 */
(PID.TID 0000.0001)                 1.251869095602249E+09,      /* J = 17 */
(PID.TID 0000.0001)                 1.290625742284441E+09,      /* J = 18 */
(PID.TID 0000.0001)                 1.330441258846839E+09,      /* J = 19 */
(PID.TID 0000.0001)                 1.371326820624166E+09,      /* J = 20 */
(PID.TID 0000.0001)                 1.413293399742275E+09,      /* J = 21 */
(PID.TID 0000.0001)                 1.456351737475827E+09,      /* J = 22 */
(PID.TID 0000.0001)                 1.500512320083793E+09,      /* J = 23 */
(PID.TID 0000.0001)                 1.545785394792978E+09,      /* J = 24 */
(PID.TID 0000.0001)                 1.592180902277974E+09,      /* J = 25 */
(PID.TID 0000.0001)                 1.639708504465653E+09,      /* J = 26 */
(PID.TID 0000.0001)                 1.688377519501836E+09,      /* J = 27 */
(PID.TID 0000.0001)                 1.738196956421325E+09,      /* J = 28 */
(PID.TID 0000.0001)                 1.789175499722981E+09,      /* J = 29 */
(PID.TID 0000.0001)                 1.841321602441802E+09       /* J = 30 */
(PID.TID 0000.0001)     ;
(PID.TID 0000.0001) rAs =  /* rAs(:,1,:,1) ( units: m^2 ) */
(PID.TID 0000.0001)                 7.550751050606852E+08,      /* I =  1 */
(PID.TID 0000.0001)                 7.562658447772087E+08,      /* I =  2 */
(PID.TID 0000.0001)                 7.573533970032284E+08,      /* I =  3 */
(PID.TID 0000.0001)                 7.583387692957978E+08,      /* I =  4 */
(PID.TID 0000.0001)                 7.592229121974397E+08,      /* I =  5 */
(PID.TID 0000.0001)                 7.600066705467438E+08,      /* I =  6 */
(PID.TID 0000.0001)                 7.606907923080522E+08,      /* I =  7 */
(PID.TID 0000.0001)                 7.612759532224941E+08,      /* I =  8 */
(PID.TID 0000.0001)                 7.617627129118443E+08,      /* I =  9 */
(PID.TID 0000.0001)                 7.621515550445726E+08,      /* I = 10 */
(PID.TID 0000.0001)                 7.624428588466020E+08,      /* I = 11 */
(PID.TID 0000.0001)                 7.626369483673384E+08,      /* I = 12 */
(PID.TID 0000.0001)                 7.627333738515058E+08,      /* I = 13 */
(PID.TID 0000.0001)                 7.627333728604188E+08,      /* I = 14 */
(PID.TID 0000.0001)                 7.626369508901051E+08,      /* I = 15 */
(PID.TID 0000.0001)                 7.624428655319341E+08,      /* I = 16 */
(PID.TID 0000.0001)                 7.621515526659639E+08,      /* I = 17 */
(PID.TID 0000.0001)                 7.617627197953936E+08,      /* I = 18 */
(PID.TID 0000.0001)                 7.612759510961621E+08,      /* I = 19 */
(PID.TID 0000.0001)                 7.606907969030919E+08,      /* I = 20 */
(PID.TID 0000.0001)                 7.600066694295187E+08,      /* I = 21 */
(PID.TID 0000.0001)                 7.592229103594238E+08,      /* I = 22 */
(PID.TID 0000.0001)                 7.583387684488690E+08,      /* I = 23 */
(PID.TID 0000.0001)                 7.573533915792797E+08,      /* I = 24 */
(PID.TID 0000.0001)                 7.562658465071062E+08,      /* I = 25 */
(PID.TID 0000.0001)                 7.550751079979067E+08,      /* I = 26 */
(PID.TID 0000.0001)                 7.537800585200102E+08,      /* I = 27 */
(PID.TID 0000.0001)                 7.523795064624999E+08,      /* I = 28 */
(PID.TID 0000.0001)                 7.508721675027735E+08,      /* I = 29 */
(PID.TID 0000.0001)                 7.492566800675046E+08       /* I = 30 */
(PID.TID 0000.0001)     ;
(PID.TID 0000.0001) rAs =  /* rAs(1,:,1,:) ( units: m^2 ) */
(PID.TID 0000.0001)                 7.550751050606852E+08,      /* J =  1 */
(PID.TID 0000.0001)                 7.781568160584769E+08,      /* J =  2 */
(PID.TID 0000.0001)                 8.020831616625657E+08,      /* J =  3 */
(PID.TID 0000.0001)                 8.268695937660589E+08,      /* J =  4 */
(PID.TID 0000.0001)                 8.525311818286231E+08,      /* J =  5 */
(PID.TID 0000.0001)                 8.790826547724357E+08,      /* J =  6 */
(PID.TID 0000.0001)                 9.065383887828039E+08,      /* J =  7 */
(PID.TID 0000.0001)                 9.349124897125442E+08,      /* J =  8 */
(PID.TID 0000.0001)                 9.642187819277472E+08,      /* J =  9 */
(PID.TID 0000.0001)                 9.944708240750725E+08,      /* J = 10 */
(PID.TID 0000.0001)                 1.025681954725808E+09,      /* J = 11 */
(PID.TID 0000.0001)                 1.057865313008499E+09,      /* J = 12 */
(PID.TID 0000.0001)                 1.091033805921100E+09,      /* J = 13 */
(PID.TID 0000.0001)                 1.125200178247652E+09,      /* J = 14 */
(PID.TID 0000.0001)                 1.160376979600140E+09,      /* J = 15 */
(PID.TID 0000.0001)                 1.196576586510721E+09,      /* J = 16 */
(PID.TID 0000.0001)                 1.233811208089928E+09,      /* J = 17 */
(PID.TID 0000.0001)                 1.272092866313053E+09,      /* J = 18 */
(PID.TID 0000.0001)                 1.311433405822894E+09,      /* J = 19 */
(PID.TID 0000.0001)                 1.351844507714875E+09,      /* J = 20 */
(PID.TID 0000.0001)                 1.393337606051485E+09,      /* J = 21 */
(PID.TID 0000.0001)                 1.435923987908001E+09,      /* J = 22 */
(PID.TID 0000.0001)                 1.479614675036705E+09,      /* J = 23 */
(PID.TID 0000.0001)                 1.524420466465598E+09,      /* J = 24 */
(PID.TID 0000.0001)                 1.570351910729954E+09,      /* J = 25 */
(PID.TID 0000.0001)                 1.617419255741331E+09,      /* J = 26 */
(PID.TID 0000.0001)                 1.665632470339211E+09,      /* J = 27 */
(PID.TID 0000.0001)                 1.715001205152071E+09,      /* J = 28 */
(PID.TID 0000.0001)                 1.765534790867491E+09,      /* J = 29 */
(PID.TID 0000.0001)                 1.817242347954489E+09       /* J = 30 */
(PID.TID 0000.0001)     ;
(PID.TID 0000.0001) globalArea = /* Integrated horizontal Area (m^2) */
(PID.TID 0000.0001)                 3.580138611494435E+14
(PID.TID 0000.0001)     ;
(PID.TID 0000.0001) hasWetCSCorners = /* Domain contains CS corners (True/False) */
(PID.TID 0000.0001)                   F
(PID.TID 0000.0001)     ;
(PID.TID 0000.0001) // =======================================================
(PID.TID 0000.0001) // End of Model config. summary
(PID.TID 0000.0001) // =======================================================
(PID.TID 0000.0001) 
(PID.TID 0000.0001) == Packages configuration : Check & print summary ==
(PID.TID 0000.0001) 
(PID.TID 0000.0001) GGL90_CHECK: #define ALLOW_GGL90
(PID.TID 0000.0001) GGL90_CHECK: Some form of convection has been enabled
(PID.TID 0000.0001) GMREDI_CHECK: #define GMREDI
(PID.TID 0000.0001) GM_AdvForm =     /* if FALSE => use SkewFlux Form */
(PID.TID 0000.0001)                   T
(PID.TID 0000.0001)     ;
(PID.TID 0000.0001) GM_InMomAsStress = /* if TRUE => apply as Eddy Stress */
(PID.TID 0000.0001)                   F
(PID.TID 0000.0001)     ;
(PID.TID 0000.0001) GM_AdvSeparate = /* Calc Bolus & Euler Adv. separately */
(PID.TID 0000.0001)                   F
(PID.TID 0000.0001)     ;
(PID.TID 0000.0001) GM_ExtraDiag =   /* Tensor Extra Diag (line 1&2) non 0 */
(PID.TID 0000.0001)                   T
(PID.TID 0000.0001)     ;
(PID.TID 0000.0001) GM_isopycK =    /* Background Isopyc. Diffusivity [m^2/s] */
(PID.TID 0000.0001)                 1.000000000000000E+03
(PID.TID 0000.0001)     ;
(PID.TID 0000.0001) GM_skewflx*K =  /* Background GM_SkewFlx Diffusivity [m^2/s] */
(PID.TID 0000.0001)                 0.000000000000000E+00
(PID.TID 0000.0001)     ;
(PID.TID 0000.0001) GM_advec*K =    /* Backg. GM-Advec(=Bolus) Diffusivity [m^2/s]*/
(PID.TID 0000.0001)                 1.000000000000000E+03
(PID.TID 0000.0001)     ;
(PID.TID 0000.0001) GM_Kmin_horiz = /* Minimum Horizontal Diffusivity [m^2/s] */
(PID.TID 0000.0001)                 1.000000000000000E+02
(PID.TID 0000.0001)     ;
(PID.TID 0000.0001) GM_Visbeck_alpha = /* Visbeck alpha coeff. [-] */
(PID.TID 0000.0001)                 0.000000000000000E+00
(PID.TID 0000.0001)     ;
(PID.TID 0000.0001) GM_Small_Number =  /* epsilon used in slope calc */
(PID.TID 0000.0001)                 9.999999999999999E-21
(PID.TID 0000.0001)     ;
(PID.TID 0000.0001) GM_slopeSqCutoff = /* Slope^2 cut-off value */
(PID.TID 0000.0001)                 1.000000000000000E+08
(PID.TID 0000.0001)     ;
(PID.TID 0000.0001) GM_taper_scheme =  /* Type of Tapering/Clipping scheme */
(PID.TID 0000.0001)               'stableGmAdjTap                          '
(PID.TID 0000.0001)     ;
(PID.TID 0000.0001) GM_maxSlope =  /* Maximum Slope (Tapering/Clipping) */
(PID.TID 0000.0001)                 4.000000000000000E-03
(PID.TID 0000.0001)     ;
(PID.TID 0000.0001) GM_facTrL2dz = /* Minimum Trans.Layer Thick. (factor of dz) */
(PID.TID 0000.0001)                 1.000000000000000E+00
(PID.TID 0000.0001)     ;
(PID.TID 0000.0001) GM_facTrL2ML = /* Max.Trans.Layer Thick. (factor of MxL Depth)*/
(PID.TID 0000.0001)                 5.000000000000000E+00
(PID.TID 0000.0001)     ;
(PID.TID 0000.0001) GM_maxTransLay = /* Maximum Transition Layer Thickness [m] */
(PID.TID 0000.0001)                 5.000000000000000E+02
(PID.TID 0000.0001)     ;
(PID.TID 0000.0001) GM_UseBVP = /* if TRUE => use bvp a la Ferrari et al. (2010) */
(PID.TID 0000.0001)                   F
(PID.TID 0000.0001)     ;
(PID.TID 0000.0001) GM_BVP_ModeNumber = /* Vertical mode number for BVP wave speed */
(PID.TID 0000.0001)                       1
(PID.TID 0000.0001)     ;
(PID.TID 0000.0001) GM_BVP_cMin = /* Minimum wave speed for BVP [m/s] */
(PID.TID 0000.0001)                 1.000000000000000E-01
(PID.TID 0000.0001)     ;
(PID.TID 0000.0001) GM_useSubMeso = /* if TRUE => use Sub-Meso param. (B.Fox-Kemper) */
(PID.TID 0000.0001)                   F
(PID.TID 0000.0001)     ;
(PID.TID 0000.0001) subMeso_Ceff = /* efficiency coeff. of Mixed-Layer Eddies [-] */
(PID.TID 0000.0001)                 7.000000000000001E-02
(PID.TID 0000.0001)     ;
(PID.TID 0000.0001) subMeso_invTau = /* inverse of Sub-Meso mixing time-scale [/s] */
(PID.TID 0000.0001)                 2.000000000000000E-06
(PID.TID 0000.0001)     ;
(PID.TID 0000.0001) subMeso_LfMin = /* minimum length-scale "Lf" [m] */
(PID.TID 0000.0001)                 1.000000000000000E+03
(PID.TID 0000.0001)     ;
(PID.TID 0000.0001) subMeso_Lmax = /* maximum grid-scale length [m] */
(PID.TID 0000.0001)                 1.100000000000000E+05
(PID.TID 0000.0001)     ;
(PID.TID 0000.0001) GM_useLeithQG = /* if TRUE => add QG Leith viscosity to GMRedi tensor */
(PID.TID 0000.0001)                   F
(PID.TID 0000.0001)     ;
(PID.TID 0000.0001) SEAICE_CHECK: #define ALLOW_SEAICE
(PID.TID 0000.0001) SALT_PLUME_CHECK: #define SALT_PLUME
(PID.TID 0000.0001) CTRL_CHECK: #define ALLOW_CTRL
(PID.TID 0000.0001) GAD_CHECK: #define ALLOW_GENERIC_ADVDIFF
(PID.TID 0000.0001) // =======================================================
(PID.TID 0000.0001) // Check Model config. (CONFIG_CHECK):
(PID.TID 0000.0001) // CONFIG_CHECK : Normal End
(PID.TID 0000.0001) // =======================================================
(PID.TID 0000.0001) 
(PID.TID 0000.0001)  nRecords = 403 ; filePrec =  64 ; fileIter =     26280
(PID.TID 0000.0001)     nDims =   2 , dims:
(PID.TID 0000.0001)    1:  90   1  90
(PID.TID 0000.0001)    2:1170   11170
(PID.TID 0000.0001)     nFlds =  11 , nFl3D =   8 , fields:
(PID.TID 0000.0001)  >Uvel    < >Vvel    < >Theta   < >Salt    < >GuNm1   < >GuNm2   < >GvNm1   < >GvNm2   < >EtaN    < >dEtaHdt < >EtaH    <
(PID.TID 0000.0001) missingVal=  1.00000000000000E+00 ; nTimRec =   1 , timeList:
(PID.TID 0000.0001)   9.460800000000E+07
(PID.TID 0000.0001) READ_MFLDS_3D_RL: read field: "Uvel    ", #   1 in fldList, rec=   1
(PID.TID 0000.0001) READ_MFLDS_3D_RL: read field: "Vvel    ", #   2 in fldList, rec=   2
(PID.TID 0000.0001) READ_MFLDS_3D_RL: read field: "Theta   ", #   3 in fldList, rec=   3
(PID.TID 0000.0001) READ_MFLDS_3D_RL: read field: "Salt    ", #   4 in fldList, rec=   4
(PID.TID 0000.0001) READ_MFLDS_3D_RL: read field: "GuNm1   ", #   5 in fldList, rec=   5
(PID.TID 0000.0001) READ_MFLDS_3D_RL: read field: "GvNm1   ", #   7 in fldList, rec=   7
(PID.TID 0000.0001) READ_MFLDS_3D_RL: read field: "EtaN    ", #   9 in fldList, rec= 401
(PID.TID 0000.0001) READ_MFLDS_3D_RL: read field: "dEtaHdt ", #  10 in fldList, rec= 402
(PID.TID 0000.0001) READ_MFLDS_3D_RL: read field: "EtaH    ", #  11 in fldList, rec= 403
(PID.TID 0000.0001) READ_MFLDS_CHECK: - normal end ; reset MFLDS file-name: pickup.0000000001
(PID.TID 0000.0001)  nRecords =   6 ; filePrec =  64 ; fileIter =     17532
(PID.TID 0000.0001)     nDims =   2 , dims:
(PID.TID 0000.0001)    1:  90   1  90
(PID.TID 0000.0001)    2:1170   11170
(PID.TID 0000.0001)     nFlds =   6 , nFl3D =   0 , fields:
(PID.TID 0000.0001)  >siTICE  < >siAREA  < >siHEFF  < >siHSNOW < >siUICE  < >siVICE  <
(PID.TID 0000.0001) missingVal=  1.00000000000000E+00 ; nTimRec =   1 , timeList:
(PID.TID 0000.0001)   6.311520000000E+07
(PID.TID 0000.0001) READ_MFLDS_3D_RL: field: "siTICES " missing in file: pickup_seaice.0000000001
(PID.TID 0000.0001) READ_MFLDS_LEV_RL: read field: "siTICE  ", #   1 in fldList, rec=   1
(PID.TID 0000.0001) READ_MFLDS_3D_RL: field: "siAREAn " missing in file: pickup_seaice.0000000001
(PID.TID 0000.0001) READ_MFLDS_3D_RL: read field: "siAREA  ", #   2 in fldList, rec=   2
(PID.TID 0000.0001) READ_MFLDS_3D_RL: read field: "siHEFF  ", #   3 in fldList, rec=   3
(PID.TID 0000.0001) READ_MFLDS_3D_RL: read field: "siHSNOW ", #   4 in fldList, rec=   4
(PID.TID 0000.0001) READ_MFLDS_3D_RL: read field: "siUICE  ", #   5 in fldList, rec=   5
(PID.TID 0000.0001) READ_MFLDS_3D_RL: read field: "siVICE  ", #   6 in fldList, rec=   6
(PID.TID 0000.0001) // =======================================================
(PID.TID 0000.0001) // Model current state
(PID.TID 0000.0001) // =======================================================
(PID.TID 0000.0001) 
(PID.TID 0000.0001) SOLVE_FOR_PRESSURE: putPmEinXvector =    F
 cg2d: Sum(rhs),rhsMax =   4.89869210074494E+01  3.22118414282205E-01
 cg2d: Sum(rhs),rhsMax =   4.84160508665935E+01  3.19429121308249E-01
 cg2d: Sum(rhs),rhsMax =   4.87298990625597E+01  3.25365165827658E-01
 cg2d: Sum(rhs),rhsMax =   4.94213027075080E+01  3.24736861276435E-01
 cg2d: Sum(rhs),rhsMax =   5.02155724830093E+01  3.19293092682679E-01
 cg2d: Sum(rhs),rhsMax =   5.10719022815792E+01  3.12650192104472E-01
 cg2d: Sum(rhs),rhsMax =   5.19867794858729E+01  3.09722788086563E-01
(PID.TID 0000.0001)      cg2d_init_res =   1.14193919844450E+00
(PID.TID 0000.0001)      cg2d_iters(min,last) =      -1      37
(PID.TID 0000.0001)      cg2d_last_res =   2.42835959073567E-05
(PID.TID 0000.0001) // =======================================================
(PID.TID 0000.0001) // Begin MONITOR dynamic field statistics
(PID.TID 0000.0001) // =======================================================
(PID.TID 0000.0001) %MON time_tsnumber                =                     8
(PID.TID 0000.0001) %MON time_secondsf                =   7.2000000000000E+03
(PID.TID 0000.0001) %MON dynstat_eta_max              =   1.1333629275969E+00
(PID.TID 0000.0001) %MON dynstat_eta_min              =  -4.5784376741499E+00
(PID.TID 0000.0001) %MON dynstat_eta_mean             =  -1.6445078698953E-03
(PID.TID 0000.0001) %MON dynstat_eta_sd               =   7.3559340423176E-01
(PID.TID 0000.0001) %MON dynstat_eta_del2             =   1.2148198469280E-04
(PID.TID 0000.0001) %MON dynstat_uvel_max             =   8.8417188318205E-01
(PID.TID 0000.0001) %MON dynstat_uvel_min             =  -1.0879497999652E+00
(PID.TID 0000.0001) %MON dynstat_uvel_mean            =   1.8217488713887E-03
(PID.TID 0000.0001) %MON dynstat_uvel_sd              =   2.1818771203587E-02
(PID.TID 0000.0001) %MON dynstat_uvel_del2            =   1.7262787575886E-05
(PID.TID 0000.0001) %MON dynstat_vvel_max             =   8.4248887054664E-01
(PID.TID 0000.0001) %MON dynstat_vvel_min             =  -9.4052412244316E-01
(PID.TID 0000.0001) %MON dynstat_vvel_mean            =   1.2398899498991E-03
(PID.TID 0000.0001) %MON dynstat_vvel_sd              =   2.3831642226792E-02
(PID.TID 0000.0001) %MON dynstat_vvel_del2            =   1.8571241061480E-05
(PID.TID 0000.0001) %MON dynstat_wvel_max             =   1.8506922421596E-03
(PID.TID 0000.0001) %MON dynstat_wvel_min             =  -1.4980113747763E-03
(PID.TID 0000.0001) %MON dynstat_wvel_mean            =   8.2636365200968E-08
(PID.TID 0000.0001) %MON dynstat_wvel_sd              =   3.3437306321144E-05
(PID.TID 0000.0001) %MON dynstat_wvel_del2            =   4.3066805412202E-08
(PID.TID 0000.0001) %MON dynstat_theta_max            =   3.2664360429120E+01
(PID.TID 0000.0001) %MON dynstat_theta_min            =  -2.0421617827286E+00
(PID.TID 0000.0001) %MON dynstat_theta_mean           =   3.5905901418835E+00
(PID.TID 0000.0001) %MON dynstat_theta_sd             =   4.4366014336761E+00
(PID.TID 0000.0001) %MON dynstat_theta_del2           =   1.0938255321174E-04
(PID.TID 0000.0001) %MON dynstat_salt_max             =   4.0711526586282E+01
(PID.TID 0000.0001) %MON dynstat_salt_min             =   1.8892542221942E+01
(PID.TID 0000.0001) %MON dynstat_salt_mean            =   3.4725775316219E+01
(PID.TID 0000.0001) %MON dynstat_salt_sd              =   3.7776275615870E-01
(PID.TID 0000.0001) %MON dynstat_salt_del2            =   2.6861612942851E-05
(PID.TID 0000.0001) %MON dynstat_sst_max              =   3.2664360429120E+01
(PID.TID 0000.0001) %MON dynstat_sst_min              =  -1.9524405790308E+00
(PID.TID 0000.0001) %MON dynstat_sst_mean             =   1.8503621643222E+01
(PID.TID 0000.0001) %MON dynstat_sst_sd               =   1.0093650521155E+01
(PID.TID 0000.0001) %MON dynstat_sst_del2             =   8.8112681927035E-04
(PID.TID 0000.0001) %MON dynstat_sss_max              =   3.9666468066096E+01
(PID.TID 0000.0001) %MON dynstat_sss_min              =   1.8892542221942E+01
(PID.TID 0000.0001) %MON dynstat_sss_mean             =   3.4713546504726E+01
(PID.TID 0000.0001) %MON dynstat_sss_sd               =   1.1591062657616E+00
(PID.TID 0000.0001) %MON dynstat_sss_del2             =   3.7411284186349E-04
(PID.TID 0000.0001) %MON forcing_qnet_max             =   1.6790687255859E+03
(PID.TID 0000.0001) %MON forcing_qnet_min             =  -1.2688027293147E+03
(PID.TID 0000.0001) %MON forcing_qnet_mean            =  -1.8970185147949E+01
(PID.TID 0000.0001) %MON forcing_qnet_sd              =   2.1978293727731E+02
(PID.TID 0000.0001) %MON forcing_qnet_del2            =   4.2426459134570E-01
(PID.TID 0000.0001) %MON forcing_qsw_max              =   0.0000000000000E+00
(PID.TID 0000.0001) %MON forcing_qsw_min              =  -1.0912275517544E+02
(PID.TID 0000.0001) %MON forcing_qsw_mean             =  -2.1371062886743E+01
(PID.TID 0000.0001) %MON forcing_qsw_sd               =   2.9704264872966E+01
(PID.TID 0000.0001) %MON forcing_qsw_del2             =   2.4642320306956E-02
(PID.TID 0000.0001) %MON forcing_empmr_max            =   3.7074110005051E-03
(PID.TID 0000.0001) %MON forcing_empmr_min            =  -5.4073082283139E-03
(PID.TID 0000.0001) %MON forcing_empmr_mean           =   3.3088624494100E-05
(PID.TID 0000.0001) %MON forcing_empmr_sd             =   4.5447395595450E-04
(PID.TID 0000.0001) %MON forcing_empmr_del2           =   1.0201586507111E-06
(PID.TID 0000.0001) %MON forcing_fu_max               =   1.5419277377099E+00
(PID.TID 0000.0001) %MON forcing_fu_min               =  -1.3600390342792E+00
(PID.TID 0000.0001) %MON forcing_fu_mean              =   1.2014935866818E-02
(PID.TID 0000.0001) %MON forcing_fu_sd                =   1.2282647527972E-01
(PID.TID 0000.0001) %MON forcing_fu_del2              =   2.1355016913791E-04
(PID.TID 0000.0001) %MON forcing_fv_max               =   8.6521513075652E-01
(PID.TID 0000.0001) %MON forcing_fv_min               =  -8.3984356816128E-01
(PID.TID 0000.0001) %MON forcing_fv_mean              =  -5.8039552152760E-03
(PID.TID 0000.0001) %MON forcing_fv_sd                =   1.1692826711889E-01
(PID.TID 0000.0001) %MON forcing_fv_del2              =   1.7912862641549E-04
(PID.TID 0000.0001) %MON trAdv_CFL_u_max              =   2.2490797628530E-02
(PID.TID 0000.0001) %MON trAdv_CFL_v_max              =   2.4060750820570E-02
(PID.TID 0000.0001) %MON trAdv_CFL_w_max              =   7.8689109291146E-02
(PID.TID 0000.0001) %MON advcfl_uvel_max              =   2.0939451378935E-02
(PID.TID 0000.0001) %MON advcfl_vvel_max              =   2.1504659087809E-02
(PID.TID 0000.0001) %MON advcfl_wvel_max              =   7.9218244792421E-02
(PID.TID 0000.0001) %MON advcfl_W_hf_max              =   7.9535523047849E-02
(PID.TID 0000.0001) %MON pe_b_mean                    =   7.1176444503541E-04
(PID.TID 0000.0001) %MON ke_max                       =   5.8495472664678E-01
(PID.TID 0000.0001) %MON ke_mean                      =   5.0575779060079E-04
(PID.TID 0000.0001) %MON ke_vol                       =   1.3349972985438E+18
(PID.TID 0000.0001) %MON vort_r_min                   =  -4.2214792038229E-05
(PID.TID 0000.0001) %MON vort_r_max                   =   3.3657119889315E-05
(PID.TID 0000.0001) %MON vort_a_mean                  =  -1.9727864647440E-05
(PID.TID 0000.0001) %MON vort_a_sd                    =   7.4543396014992E-05
(PID.TID 0000.0001) %MON vort_p_mean                  =  -2.1760537920023E-05
(PID.TID 0000.0001) %MON vort_p_sd                    =   9.7241257952718E-05
(PID.TID 0000.0001) %MON surfExpan_theta_mean         =  -2.4266968182668E-06
(PID.TID 0000.0001) %MON surfExpan_salt_mean          =  -2.9982725387569E-07
(PID.TID 0000.0001) // =======================================================
(PID.TID 0000.0001) // End MONITOR dynamic field statistics
(PID.TID 0000.0001) // =======================================================
(PID.TID 0000.0001) // =======================================================
(PID.TID 0000.0001) // Begin MONITOR SEAICE statistics
(PID.TID 0000.0001) // =======================================================
(PID.TID 0000.0001) %MON seaice_tsnumber              =                     8
(PID.TID 0000.0001) %MON seaice_time_sec              =   7.2000000000000E+03
(PID.TID 0000.0001) %MON seaice_uice_max              =   7.9925244181783E-01
(PID.TID 0000.0001) %MON seaice_uice_min              =  -9.5573889834457E-01
(PID.TID 0000.0001) %MON seaice_uice_mean             =   1.7906425087939E-03
(PID.TID 0000.0001) %MON seaice_uice_sd               =   1.4415796693499E-01
(PID.TID 0000.0001) %MON seaice_uice_del2             =   3.1073799210223E-04
(PID.TID 0000.0001) %MON seaice_vice_max              =   7.6041985902670E-01
(PID.TID 0000.0001) %MON seaice_vice_min              =  -9.5378345347897E-01
(PID.TID 0000.0001) %MON seaice_vice_mean             =  -2.7102835207518E-03
(PID.TID 0000.0001) %MON seaice_vice_sd               =   1.5752388770202E-01
(PID.TID 0000.0001) %MON seaice_vice_del2             =   2.8123437152247E-04
(PID.TID 0000.0001) %MON seaice_area_max              =   1.0086080289441E+00
(PID.TID 0000.0001) %MON seaice_area_min              =   0.0000000000000E+00
(PID.TID 0000.0001) %MON seaice_area_mean             =   6.5183896828290E-02
(PID.TID 0000.0001) %MON seaice_area_sd               =   2.2446216291518E-01
(PID.TID 0000.0001) %MON seaice_area_del2             =   9.5787282363607E-04
(PID.TID 0000.0001) %MON seaice_heff_max              =   2.2978614720552E+01
(PID.TID 0000.0001) %MON seaice_heff_min              =   0.0000000000000E+00
(PID.TID 0000.0001) %MON seaice_heff_mean             =   1.9331346335024E-01
(PID.TID 0000.0001) %MON seaice_heff_sd               =   1.0004038455158E+00
(PID.TID 0000.0001) %MON seaice_heff_del2             =   5.3040660895957E-03
(PID.TID 0000.0001) %MON seaice_hsnow_max             =   7.5898783404930E+00
(PID.TID 0000.0001) %MON seaice_hsnow_min             =   0.0000000000000E+00
(PID.TID 0000.0001) %MON seaice_hsnow_mean            =   2.1572133655515E-02
(PID.TID 0000.0001) %MON seaice_hsnow_sd              =   1.3665883181772E-01
(PID.TID 0000.0001) %MON seaice_hsnow_del2            =   1.4239417860146E-03
(PID.TID 0000.0001) // =======================================================
(PID.TID 0000.0001) // End MONITOR SEAICE statistics
(PID.TID 0000.0001) // =======================================================
 SEAICE_LSR: Residual Initial ipass,Uice,Vice=    1  4.07156166E-02  4.11197396E-02
 SEAICE_LSR (ipass=   1) iters,dU,Resid=   112  7.45049227E-05  6.58946338E-03
 SEAICE_LSR (ipass=   1) iters,dV,Resid=   112  9.82378136E-05  7.66414347E-03
 SEAICE_LSR: Residual Initial ipass,Uice,Vice=    2  3.78731269E-02  3.82128355E-02
 SEAICE_LSR (ipass=   2) iters,dU,Resid=    78  6.70541849E-05  6.43508318E-03
 SEAICE_LSR (ipass=   2) iters,dV,Resid=    78  9.95293901E-05  8.35387743E-03
 cg2d: Sum(rhs),rhsMax =   5.29320142103400E+01  3.07096129444003E-01
 cg2d: Sum(rhs),rhsMax =   5.38946049111735E+01  3.04099214631783E-01
 cg2d: Sum(rhs),rhsMax =   5.48496943285938E+01  3.01060734361392E-01
 cg2d: Sum(rhs),rhsMax =   5.57884128801044E+01  2.98240188076303E-01
 cg2d: Sum(rhs),rhsMax =   5.66972314196531E+01  2.95796014028532E-01
 cg2d: Sum(rhs),rhsMax =   5.75782023101208E+01  2.93789534634984E-01
 cg2d: Sum(rhs),rhsMax =   5.84268386108053E+01  2.92217476734856E-01
 cg2d: Sum(rhs),rhsMax =   5.92428146264049E+01  2.91027175060007E-01
(PID.TID 0000.0001)      cg2d_init_res =   7.97581718383704E-01
(PID.TID 0000.0001)      cg2d_iters(min,last) =      -1      34
(PID.TID 0000.0001)      cg2d_last_res =   2.49935047351989E-05
(PID.TID 0000.0001) // =======================================================
(PID.TID 0000.0001) // Begin MONITOR dynamic field statistics
(PID.TID 0000.0001) // =======================================================
(PID.TID 0000.0001) %MON time_tsnumber                =                    16
(PID.TID 0000.0001) %MON time_secondsf                =   1.4400000000000E+04
(PID.TID 0000.0001) %MON dynstat_eta_max              =   1.1138448275872E+00
(PID.TID 0000.0001) %MON dynstat_eta_min              =  -4.2794053561195E+00
(PID.TID 0000.0001) %MON dynstat_eta_mean             =  -1.8740394356289E-03
(PID.TID 0000.0001) %MON dynstat_eta_sd               =   7.2643295399502E-01
(PID.TID 0000.0001) %MON dynstat_eta_del2             =   1.0498426462181E-04
(PID.TID 0000.0001) %MON dynstat_uvel_max             =   8.6857793605008E-01
(PID.TID 0000.0001) %MON dynstat_uvel_min             =  -1.0573136413710E+00
(PID.TID 0000.0001) %MON dynstat_uvel_mean            =   1.9641389045818E-03
(PID.TID 0000.0001) %MON dynstat_uvel_sd              =   2.1915490589619E-02
(PID.TID 0000.0001) %MON dynstat_uvel_del2            =   1.5333336116803E-05
(PID.TID 0000.0001) %MON dynstat_vvel_max             =   9.3995976551890E-01
(PID.TID 0000.0001) %MON dynstat_vvel_min             =  -9.3439293984807E-01
(PID.TID 0000.0001) %MON dynstat_vvel_mean            =   1.1984563256774E-03
(PID.TID 0000.0001) %MON dynstat_vvel_sd              =   2.3715758706162E-02
(PID.TID 0000.0001) %MON dynstat_vvel_del2            =   1.6644189487047E-05
(PID.TID 0000.0001) %MON dynstat_wvel_max             =   2.3622489130288E-03
(PID.TID 0000.0001) %MON dynstat_wvel_min             =  -2.6514128929606E-03
(PID.TID 0000.0001) %MON dynstat_wvel_mean            =  -1.6861557013779E-08
(PID.TID 0000.0001) %MON dynstat_wvel_sd              =   3.2095711841105E-05
(PID.TID 0000.0001) %MON dynstat_wvel_del2            =   4.0065983266542E-08
(PID.TID 0000.0001) %MON dynstat_theta_max            =   3.2664027192618E+01
(PID.TID 0000.0001) %MON dynstat_theta_min            =  -2.0421812188451E+00
(PID.TID 0000.0001) %MON dynstat_theta_mean           =   3.5906018834279E+00
(PID.TID 0000.0001) %MON dynstat_theta_sd             =   4.4366186267478E+00
(PID.TID 0000.0001) %MON dynstat_theta_del2           =   1.0902886045575E-04
(PID.TID 0000.0001) %MON dynstat_salt_max             =   4.0711523205755E+01
(PID.TID 0000.0001) %MON dynstat_salt_min             =   1.8872617334462E+01
(PID.TID 0000.0001) %MON dynstat_salt_mean            =   3.4725725206167E+01
(PID.TID 0000.0001) %MON dynstat_salt_sd              =   3.7757183686102E-01
(PID.TID 0000.0001) %MON dynstat_salt_del2            =   2.6744230977915E-05
(PID.TID 0000.0001) %MON dynstat_sst_max              =   3.2664027192618E+01
(PID.TID 0000.0001) %MON dynstat_sst_min              =  -1.9437006452164E+00
(PID.TID 0000.0001) %MON dynstat_sst_mean             =   1.8503420189626E+01
(PID.TID 0000.0001) %MON dynstat_sst_sd               =   1.0096975052674E+01
(PID.TID 0000.0001) %MON dynstat_sst_del2             =   8.7639153674309E-04
(PID.TID 0000.0001) %MON dynstat_sss_max              =   3.9618061403464E+01
(PID.TID 0000.0001) %MON dynstat_sss_min              =   1.8872617334462E+01
(PID.TID 0000.0001) %MON dynstat_sss_mean             =   3.4697912316859E+01
(PID.TID 0000.0001) %MON dynstat_sss_sd               =   1.1421903837702E+00
(PID.TID 0000.0001) %MON dynstat_sss_del2             =   3.7541661842263E-04
(PID.TID 0000.0001) %MON forcing_qnet_max             =   9.9241413068206E+02
(PID.TID 0000.0001) %MON forcing_qnet_min             =  -1.0768703658657E+03
(PID.TID 0000.0001) %MON forcing_qnet_mean            =  -2.1001194780368E+01
(PID.TID 0000.0001) %MON forcing_qnet_sd              =   2.2572164269911E+02
(PID.TID 0000.0001) %MON forcing_qnet_del2            =   4.3347943110584E-01
(PID.TID 0000.0001) %MON forcing_qsw_max              =   0.0000000000000E+00
(PID.TID 0000.0001) %MON forcing_qsw_min              =  -1.0993348525336E+02
(PID.TID 0000.0001) %MON forcing_qsw_mean             =  -2.1149802103235E+01
(PID.TID 0000.0001) %MON forcing_qsw_sd               =   3.0735639686926E+01
(PID.TID 0000.0001) %MON forcing_qsw_del2             =   2.4147183944478E-02
(PID.TID 0000.0001) %MON forcing_empmr_max            =   3.3443681895733E-03
(PID.TID 0000.0001) %MON forcing_empmr_min            =  -3.3597820438445E-03
(PID.TID 0000.0001) %MON forcing_empmr_mean           =   2.9511637025832E-05
(PID.TID 0000.0001) %MON forcing_empmr_sd             =   3.7460135943808E-04
(PID.TID 0000.0001) %MON forcing_empmr_del2           =   8.3283952791698E-07
(PID.TID 0000.0001) %MON forcing_fu_max               =   1.8124633650922E+00
(PID.TID 0000.0001) %MON forcing_fu_min               =  -1.2337784671100E+00
(PID.TID 0000.0001) %MON forcing_fu_mean              =   1.1512007895925E-02
(PID.TID 0000.0001) %MON forcing_fu_sd                =   1.1994357575449E-01
(PID.TID 0000.0001) %MON forcing_fu_del2              =   2.0634899563616E-04
(PID.TID 0000.0001) %MON forcing_fv_max               =   7.6767156444090E-01
(PID.TID 0000.0001) %MON forcing_fv_min               =  -1.1549739055223E+00
(PID.TID 0000.0001) %MON forcing_fv_mean              =  -5.3424478632595E-03
(PID.TID 0000.0001) %MON forcing_fv_sd                =   1.1221342516457E-01
(PID.TID 0000.0001) %MON forcing_fv_del2              =   1.7791935842993E-04
(PID.TID 0000.0001) %MON trAdv_CFL_u_max              =   2.0942486739501E-02
(PID.TID 0000.0001) %MON trAdv_CFL_v_max              =   2.1108427538174E-02
(PID.TID 0000.0001) %MON trAdv_CFL_w_max              =   6.3113160924385E-02
(PID.TID 0000.0001) %MON advcfl_uvel_max              =   1.9300757606869E-02
(PID.TID 0000.0001) %MON advcfl_vvel_max              =   1.8902791992347E-02
(PID.TID 0000.0001) %MON advcfl_wvel_max              =   6.3704832242927E-02
(PID.TID 0000.0001) %MON advcfl_W_hf_max              =   6.6646914396978E-02
(PID.TID 0000.0001) %MON pe_b_mean                    =   6.9414861014934E-04
(PID.TID 0000.0001) %MON ke_max                       =   5.2314906476976E-01
(PID.TID 0000.0001) %MON ke_mean                      =   5.0535094074538E-04
(PID.TID 0000.0001) %MON ke_vol                       =   1.3349972152482E+18
(PID.TID 0000.0001) %MON vort_r_min                   =  -4.1639164241401E-05
(PID.TID 0000.0001) %MON vort_r_max                   =   3.1825984980044E-05
(PID.TID 0000.0001) %MON vort_a_mean                  =  -1.9727864647440E-05
(PID.TID 0000.0001) %MON vort_a_sd                    =   7.4543377912763E-05
(PID.TID 0000.0001) %MON vort_p_mean                  =  -2.1760539896362E-05
(PID.TID 0000.0001) %MON vort_p_sd                    =   9.7242536626942E-05
(PID.TID 0000.0001) %MON surfExpan_theta_mean         =  -2.7603351452952E-06
(PID.TID 0000.0001) %MON surfExpan_salt_mean          =  -3.4908898710763E-07
(PID.TID 0000.0001) // =======================================================
(PID.TID 0000.0001) // End MONITOR dynamic field statistics
(PID.TID 0000.0001) // =======================================================
(PID.TID 0000.0001) // =======================================================
(PID.TID 0000.0001) // Begin MONITOR SEAICE statistics
(PID.TID 0000.0001) // =======================================================
(PID.TID 0000.0001) %MON seaice_tsnumber              =                    16
(PID.TID 0000.0001) %MON seaice_time_sec              =   1.4400000000000E+04
(PID.TID 0000.0001) %MON seaice_uice_max              =   8.5262277175654E-01
(PID.TID 0000.0001) %MON seaice_uice_min              =  -1.2263920787482E+00
(PID.TID 0000.0001) %MON seaice_uice_mean             =   5.9251195154705E-04
(PID.TID 0000.0001) %MON seaice_uice_sd               =   1.5189061554320E-01
(PID.TID 0000.0001) %MON seaice_uice_del2             =   3.2001404593060E-04
(PID.TID 0000.0001) %MON seaice_vice_max              =   7.0595211531032E-01
(PID.TID 0000.0001) %MON seaice_vice_min              =  -9.4590835317275E-01
(PID.TID 0000.0001) %MON seaice_vice_mean             =  -3.0715986111213E-03
(PID.TID 0000.0001) %MON seaice_vice_sd               =   1.6345004798539E-01
(PID.TID 0000.0001) %MON seaice_vice_del2             =   2.8223105390090E-04
(PID.TID 0000.0001) %MON seaice_area_max              =   1.0111219889333E+00
(PID.TID 0000.0001) %MON seaice_area_min              =   0.0000000000000E+00
(PID.TID 0000.0001) %MON seaice_area_mean             =   6.4748842027307E-02
(PID.TID 0000.0001) %MON seaice_area_sd               =   2.2430597586291E-01
(PID.TID 0000.0001) %MON seaice_area_del2             =   9.5047750825768E-04
(PID.TID 0000.0001) %MON seaice_heff_max              =   2.2948516821068E+01
(PID.TID 0000.0001) %MON seaice_heff_min              =   0.0000000000000E+00
(PID.TID 0000.0001) %MON seaice_heff_mean             =   1.9360120645167E-01
(PID.TID 0000.0001) %MON seaice_heff_sd               =   1.0020290114062E+00
(PID.TID 0000.0001) %MON seaice_heff_del2             =   5.2320420168244E-03
(PID.TID 0000.0001) %MON seaice_hsnow_max             =   7.5799372356947E+00
(PID.TID 0000.0001) %MON seaice_hsnow_min             =   0.0000000000000E+00
(PID.TID 0000.0001) %MON seaice_hsnow_mean            =   2.1554857623645E-02
(PID.TID 0000.0001) %MON seaice_hsnow_sd              =   1.3605180595809E-01
(PID.TID 0000.0001) %MON seaice_hsnow_del2            =   1.3944786582135E-03
(PID.TID 0000.0001) // =======================================================
(PID.TID 0000.0001) // End MONITOR SEAICE statistics
(PID.TID 0000.0001) // =======================================================
 SEAICE_LSR: Residual Initial ipass,Uice,Vice=    1  3.18719079E-02  3.58250304E-02
 SEAICE_LSR (ipass=   1) iters,dU,Resid=    56  9.90077759E-05  9.93628220E-03
 SEAICE_LSR (ipass=   1) iters,dV,Resid=    56  7.99855792E-05  1.61561161E-02
 SEAICE_LSR: Residual Initial ipass,Uice,Vice=    2  2.83576562E-02  3.33413496E-02
 SEAICE_LSR (ipass=   2) iters,dU,Resid=    34  9.92044451E-05  1.09670772E-02
 SEAICE_LSR (ipass=   2) iters,dV,Resid=    34  8.66987830E-05  1.73942871E-02
 cg2d: Sum(rhs),rhsMax =   6.00264422199927E+01  2.90134875679062E-01
 cg2d: Sum(rhs),rhsMax =   6.07855738292549E+01  2.89448252190355E-01
 cg2d: Sum(rhs),rhsMax =   6.14979311598645E+01  2.88894438197463E-01
 cg2d: Sum(rhs),rhsMax =   6.21829976156568E+01  2.88427877361120E-01
 cg2d: Sum(rhs),rhsMax =   6.28327814746322E+01  2.88060797712159E-01
 cg2d: Sum(rhs),rhsMax =   6.34503769135532E+01  2.87843072249305E-01
 cg2d: Sum(rhs),rhsMax =   6.40276459202935E+01  2.87853590597948E-01
 cg2d: Sum(rhs),rhsMax =   6.45742044794878E+01  2.88165767733810E-01
(PID.TID 0000.0001)      cg2d_init_res =   6.04082265594898E-01
(PID.TID 0000.0001)      cg2d_iters(min,last) =      -1      34
(PID.TID 0000.0001)      cg2d_last_res =   2.45903219220182E-05
(PID.TID 0000.0001) // =======================================================
(PID.TID 0000.0001) // Begin MONITOR dynamic field statistics
(PID.TID 0000.0001) // =======================================================
(PID.TID 0000.0001) %MON time_tsnumber                =                    24
(PID.TID 0000.0001) %MON time_secondsf                =   2.1600000000000E+04
(PID.TID 0000.0001) %MON dynstat_eta_max              =   1.1048896870621E+00
(PID.TID 0000.0001) %MON dynstat_eta_min              =  -3.8626785114234E+00
(PID.TID 0000.0001) %MON dynstat_eta_mean             =  -2.0426883240113E-03
(PID.TID 0000.0001) %MON dynstat_eta_sd               =   7.2120716336358E-01
(PID.TID 0000.0001) %MON dynstat_eta_del2             =   9.5257686042056E-05
(PID.TID 0000.0001) %MON dynstat_uvel_max             =   9.0005018302914E-01
(PID.TID 0000.0001) %MON dynstat_uvel_min             =  -1.0812003721410E+00
(PID.TID 0000.0001) %MON dynstat_uvel_mean            =   1.9042885532578E-03
(PID.TID 0000.0001) %MON dynstat_uvel_sd              =   2.1972203512335E-02
(PID.TID 0000.0001) %MON dynstat_uvel_del2            =   1.4213683453131E-05
(PID.TID 0000.0001) %MON dynstat_vvel_max             =   9.1827112925944E-01
(PID.TID 0000.0001) %MON dynstat_vvel_min             =  -9.2913727657054E-01
(PID.TID 0000.0001) %MON dynstat_vvel_mean            =   1.2857497097168E-03
(PID.TID 0000.0001) %MON dynstat_vvel_sd              =   2.3580352901693E-02
(PID.TID 0000.0001) %MON dynstat_vvel_del2            =   1.5329022518684E-05
(PID.TID 0000.0001) %MON dynstat_wvel_max             =   2.4547335242108E-03
(PID.TID 0000.0001) %MON dynstat_wvel_min             =  -3.6060663427967E-03
(PID.TID 0000.0001) %MON dynstat_wvel_mean            =   3.5594294777527E-08
(PID.TID 0000.0001) %MON dynstat_wvel_sd              =   3.3681072835251E-05
(PID.TID 0000.0001) %MON dynstat_wvel_del2            =   4.5135723656311E-08
(PID.TID 0000.0001) %MON dynstat_theta_max            =   3.2668791279993E+01
(PID.TID 0000.0001) %MON dynstat_theta_min            =  -2.0422120223295E+00
(PID.TID 0000.0001) %MON dynstat_theta_mean           =   3.5906064077878E+00
(PID.TID 0000.0001) %MON dynstat_theta_sd             =   4.4366232981447E+00
(PID.TID 0000.0001) %MON dynstat_theta_del2           =   1.0859465886206E-04
(PID.TID 0000.0001) %MON dynstat_salt_max             =   4.0711521894282E+01
(PID.TID 0000.0001) %MON dynstat_salt_min             =   1.8855752187497E+01
(PID.TID 0000.0001) %MON dynstat_salt_mean            =   3.4725693918566E+01
(PID.TID 0000.0001) %MON dynstat_salt_sd              =   3.7743994152854E-01
(PID.TID 0000.0001) %MON dynstat_salt_del2            =   2.6590954738665E-05
(PID.TID 0000.0001) %MON dynstat_sst_max              =   3.2668791279993E+01
(PID.TID 0000.0001) %MON dynstat_sst_min              =  -1.9417326212118E+00
(PID.TID 0000.0001) %MON dynstat_sst_mean             =   1.8501704318354E+01
(PID.TID 0000.0001) %MON dynstat_sst_sd               =   1.0101167859248E+01
(PID.TID 0000.0001) %MON dynstat_sst_del2             =   8.7362368208317E-04
(PID.TID 0000.0001) %MON dynstat_sss_max              =   3.9575144401180E+01
(PID.TID 0000.0001) %MON dynstat_sss_min              =   1.8855752187497E+01
(PID.TID 0000.0001) %MON dynstat_sss_mean             =   3.4690044934647E+01
(PID.TID 0000.0001) %MON dynstat_sss_sd               =   1.1324980774853E+00
(PID.TID 0000.0001) %MON dynstat_sss_del2             =   3.7479392405749E-04
(PID.TID 0000.0001) %MON forcing_qnet_max             =   3.4060158691406E+03
(PID.TID 0000.0001) %MON forcing_qnet_min             =  -1.0361973397100E+03
(PID.TID 0000.0001) %MON forcing_qnet_mean            =   2.7286286262801E+00
(PID.TID 0000.0001) %MON forcing_qnet_sd              =   2.0896013632765E+02
(PID.TID 0000.0001) %MON forcing_qnet_del2            =   5.1619709113722E-01
(PID.TID 0000.0001) %MON forcing_qsw_max              =   0.0000000000000E+00
(PID.TID 0000.0001) %MON forcing_qsw_min              =  -1.1079068158419E+02
(PID.TID 0000.0001) %MON forcing_qsw_mean             =  -1.8568306087500E+01
(PID.TID 0000.0001) %MON forcing_qsw_sd               =   2.7866220932899E+01
(PID.TID 0000.0001) %MON forcing_qsw_del2             =   2.4045081506908E-02
(PID.TID 0000.0001) %MON forcing_empmr_max            =   3.4680999815464E-03
(PID.TID 0000.0001) %MON forcing_empmr_min            =  -2.9508739244193E-03
(PID.TID 0000.0001) %MON forcing_empmr_mean           =   1.9767539123809E-05
(PID.TID 0000.0001) %MON forcing_empmr_sd             =   2.9163738570424E-04
(PID.TID 0000.0001) %MON forcing_empmr_del2           =   7.2425913546414E-07
(PID.TID 0000.0001) %MON forcing_fu_max               =   1.7893449176832E+00
(PID.TID 0000.0001) %MON forcing_fu_min               =  -1.0590365361104E+00
(PID.TID 0000.0001) %MON forcing_fu_mean              =   1.1383687149082E-02
(PID.TID 0000.0001) %MON forcing_fu_sd                =   1.1575108172864E-01
(PID.TID 0000.0001) %MON forcing_fu_del2              =   1.9404191632134E-04
(PID.TID 0000.0001) %MON forcing_fv_max               =   7.7698484203240E-01
(PID.TID 0000.0001) %MON forcing_fv_min               =  -1.1817285195859E+00
(PID.TID 0000.0001) %MON forcing_fv_mean              =  -5.9657378968055E-03
(PID.TID 0000.0001) %MON forcing_fv_sd                =   1.0919371213557E-01
(PID.TID 0000.0001) %MON forcing_fv_del2              =   1.7466287011847E-04
(PID.TID 0000.0001) %MON trAdv_CFL_u_max              =   1.9022409655619E-02
(PID.TID 0000.0001) %MON trAdv_CFL_v_max              =   1.8005118499525E-02
(PID.TID 0000.0001) %MON trAdv_CFL_w_max              =   6.9221486279341E-02
(PID.TID 0000.0001) %MON advcfl_uvel_max              =   1.9192477758534E-02
(PID.TID 0000.0001) %MON advcfl_vvel_max              =   1.7106150357059E-02
(PID.TID 0000.0001) %MON advcfl_wvel_max              =   7.0802319753049E-02
(PID.TID 0000.0001) %MON advcfl_W_hf_max              =   7.4571095955447E-02
(PID.TID 0000.0001) %MON pe_b_mean                    =   6.8419841112070E-04
(PID.TID 0000.0001) %MON ke_max                       =   5.2516168107516E-01
(PID.TID 0000.0001) %MON ke_mean                      =   5.0345534830966E-04
(PID.TID 0000.0001) %MON ke_vol                       =   1.3349971518184E+18
(PID.TID 0000.0001) %MON vort_r_min                   =  -3.7113888069613E-05
(PID.TID 0000.0001) %MON vort_r_max                   =   3.0349935680103E-05
(PID.TID 0000.0001) %MON vort_a_mean                  =  -1.9727864647440E-05
(PID.TID 0000.0001) %MON vort_a_sd                    =   7.4543362715338E-05
(PID.TID 0000.0001) %MON vort_p_mean                  =  -2.1760541038714E-05
(PID.TID 0000.0001) %MON vort_p_sd                    =   9.7243483229273E-05
(PID.TID 0000.0001) %MON surfExpan_theta_mean         =  -2.0206134749496E-06
(PID.TID 0000.0001) %MON surfExpan_salt_mean          =  -5.5881127497432E-07
(PID.TID 0000.0001) // =======================================================
(PID.TID 0000.0001) // End MONITOR dynamic field statistics
(PID.TID 0000.0001) // =======================================================
(PID.TID 0000.0001) // =======================================================
(PID.TID 0000.0001) // Begin MONITOR SEAICE statistics
(PID.TID 0000.0001) // =======================================================
(PID.TID 0000.0001) %MON seaice_tsnumber              =                    24
(PID.TID 0000.0001) %MON seaice_time_sec              =   2.1600000000000E+04
(PID.TID 0000.0001) %MON seaice_uice_max              =   8.0912428570465E-01
(PID.TID 0000.0001) %MON seaice_uice_min              =  -1.0429251152918E+00
(PID.TID 0000.0001) %MON seaice_uice_mean             =  -1.7190969201427E-03
(PID.TID 0000.0001) %MON seaice_uice_sd               =   1.5262660197430E-01
(PID.TID 0000.0001) %MON seaice_uice_del2             =   3.0604127065777E-04
(PID.TID 0000.0001) %MON seaice_vice_max              =   7.7015241611786E-01
(PID.TID 0000.0001) %MON seaice_vice_min              =  -9.4020155656357E-01
(PID.TID 0000.0001) %MON seaice_vice_mean             =  -5.1280774868434E-03
(PID.TID 0000.0001) %MON seaice_vice_sd               =   1.6489321132152E-01
(PID.TID 0000.0001) %MON seaice_vice_del2             =   2.8095572195769E-04
(PID.TID 0000.0001) %MON seaice_area_max              =   1.0107905157769E+00
(PID.TID 0000.0001) %MON seaice_area_min              =   0.0000000000000E+00
(PID.TID 0000.0001) %MON seaice_area_mean             =   6.4379264783683E-02
(PID.TID 0000.0001) %MON seaice_area_sd               =   2.2414584628058E-01
(PID.TID 0000.0001) %MON seaice_area_del2             =   9.4362653206095E-04
(PID.TID 0000.0001) %MON seaice_heff_max              =   2.2934051456185E+01
(PID.TID 0000.0001) %MON seaice_heff_min              =   0.0000000000000E+00
(PID.TID 0000.0001) %MON seaice_heff_mean             =   1.9379372183075E-01
(PID.TID 0000.0001) %MON seaice_heff_sd               =   1.0030446448833E+00
(PID.TID 0000.0001) %MON seaice_heff_del2             =   5.1596245290809E-03
(PID.TID 0000.0001) %MON seaice_hsnow_max             =   7.5751594368558E+00
(PID.TID 0000.0001) %MON seaice_hsnow_min             =   0.0000000000000E+00
(PID.TID 0000.0001) %MON seaice_hsnow_mean            =   2.1533148197885E-02
(PID.TID 0000.0001) %MON seaice_hsnow_sd              =   1.3541944407172E-01
(PID.TID 0000.0001) %MON seaice_hsnow_del2            =   1.3648354221551E-03
(PID.TID 0000.0001) // =======================================================
(PID.TID 0000.0001) // End MONITOR SEAICE statistics
(PID.TID 0000.0001) // =======================================================
 SEAICE_LSR: Residual Initial ipass,Uice,Vice=    1  2.23950034E-02  2.57645163E-02
 SEAICE_LSR (ipass=   1) iters,dU,Resid=    44  9.92395275E-05  8.44577643E-03
 SEAICE_LSR (ipass=   1) iters,dV,Resid=    44  7.26532794E-05  1.31459133E-02
 SEAICE_LSR: Residual Initial ipass,Uice,Vice=    2  1.93242987E-02  2.42156086E-02
 SEAICE_LSR (ipass=   2) iters,dU,Resid=    22  9.79772666E-05  9.26925646E-03
 SEAICE_LSR (ipass=   2) iters,dV,Resid=    22  8.80074491E-05  1.39065577E-02
 cg2d: Sum(rhs),rhsMax =   6.50828679240537E+01  2.88825650437857E-01
 cg2d: Sum(rhs),rhsMax =   6.55633178923742E+01  2.89840909535255E-01
 cg2d: Sum(rhs),rhsMax =   6.60206442108810E+01  2.91166275689974E-01
 cg2d: Sum(rhs),rhsMax =   6.64647148095473E+01  2.92717960872157E-01
 cg2d: Sum(rhs),rhsMax =   6.68822742161123E+01  2.94379247866823E-01
 cg2d: Sum(rhs),rhsMax =   6.72731563316932E+01  2.96017200790023E-01
 cg2d: Sum(rhs),rhsMax =   6.76374599366497E+01  2.97506106851312E-01
 cg2d: Sum(rhs),rhsMax =   6.79766519481850E+01  2.98739849590607E-01
(PID.TID 0000.0001)      cg2d_init_res =   5.41919082574876E-01
(PID.TID 0000.0001)      cg2d_iters(min,last) =      -1      34
(PID.TID 0000.0001)      cg2d_last_res =   2.77652309370564E-05
(PID.TID 0000.0001) // =======================================================
(PID.TID 0000.0001) // Begin MONITOR dynamic field statistics
(PID.TID 0000.0001) // =======================================================
(PID.TID 0000.0001) %MON time_tsnumber                =                    32
(PID.TID 0000.0001) %MON time_secondsf                =   2.8800000000000E+04
(PID.TID 0000.0001) %MON dynstat_eta_max              =   1.0925226391782E+00
(PID.TID 0000.0001) %MON dynstat_eta_min              =  -3.7441835697072E+00
(PID.TID 0000.0001) %MON dynstat_eta_mean             =  -2.1503186041425E-03
(PID.TID 0000.0001) %MON dynstat_eta_sd               =   7.1930408189933E-01
(PID.TID 0000.0001) %MON dynstat_eta_del2             =   8.9704017299533E-05
(PID.TID 0000.0001) %MON dynstat_uvel_max             =   7.3723994347334E-01
(PID.TID 0000.0001) %MON dynstat_uvel_min             =  -1.1344759043603E+00
(PID.TID 0000.0001) %MON dynstat_uvel_mean            =   1.8665063582727E-03
(PID.TID 0000.0001) %MON dynstat_uvel_sd              =   2.1919080677915E-02
(PID.TID 0000.0001) %MON dynstat_uvel_del2            =   1.3548281096404E-05
(PID.TID 0000.0001) %MON dynstat_vvel_max             =   8.7713182022437E-01
(PID.TID 0000.0001) %MON dynstat_vvel_min             =  -9.2515858013211E-01
(PID.TID 0000.0001) %MON dynstat_vvel_mean            =   1.3829033663662E-03
(PID.TID 0000.0001) %MON dynstat_vvel_sd              =   2.3408373881993E-02
(PID.TID 0000.0001) %MON dynstat_vvel_del2            =   1.4534615978275E-05
(PID.TID 0000.0001) %MON dynstat_wvel_max             =   2.8039767894557E-03
(PID.TID 0000.0001) %MON dynstat_wvel_min             =  -3.9153950969665E-03
(PID.TID 0000.0001) %MON dynstat_wvel_mean            =   7.1197858013149E-08
(PID.TID 0000.0001) %MON dynstat_wvel_sd              =   3.5295680749720E-05
(PID.TID 0000.0001) %MON dynstat_wvel_del2            =   4.9748532041365E-08
(PID.TID 0000.0001) %MON dynstat_theta_max            =   3.2680084214735E+01
(PID.TID 0000.0001) %MON dynstat_theta_min            =  -2.0422676488124E+00
(PID.TID 0000.0001) %MON dynstat_theta_mean           =   3.5905984116380E+00
(PID.TID 0000.0001) %MON dynstat_theta_sd             =   4.4365860034105E+00
(PID.TID 0000.0001) %MON dynstat_theta_del2           =   1.0806518506478E-04
(PID.TID 0000.0001) %MON dynstat_salt_max             =   4.0711522001366E+01
(PID.TID 0000.0001) %MON dynstat_salt_min             =   1.8863770099914E+01
(PID.TID 0000.0001) %MON dynstat_salt_mean            =   3.4725671302327E+01
(PID.TID 0000.0001) %MON dynstat_salt_sd              =   3.7734090546799E-01
(PID.TID 0000.0001) %MON dynstat_salt_del2            =   2.6421394291624E-05
(PID.TID 0000.0001) %MON dynstat_sst_max              =   3.2680084214735E+01
(PID.TID 0000.0001) %MON dynstat_sst_min              =  -1.9393578725396E+00
(PID.TID 0000.0001) %MON dynstat_sst_mean             =   1.8497348512027E+01
(PID.TID 0000.0001) %MON dynstat_sst_sd               =   1.0104240481799E+01
(PID.TID 0000.0001) %MON dynstat_sst_del2             =   8.7185153839290E-04
(PID.TID 0000.0001) %MON dynstat_sss_max              =   3.9537065411420E+01
(PID.TID 0000.0001) %MON dynstat_sss_min              =   1.8863770099914E+01
(PID.TID 0000.0001) %MON dynstat_sss_mean             =   3.4685682005422E+01
(PID.TID 0000.0001) %MON dynstat_sss_sd               =   1.1266468111480E+00
(PID.TID 0000.0001) %MON dynstat_sss_del2             =   3.7359523128656E-04
(PID.TID 0000.0001) %MON forcing_qnet_max             =   1.5964880371094E+03
(PID.TID 0000.0001) %MON forcing_qnet_min             =  -1.1808810221414E+03
(PID.TID 0000.0001) %MON forcing_qnet_mean            =   2.8753569320444E+01
(PID.TID 0000.0001) %MON forcing_qnet_sd              =   1.9404185571080E+02
(PID.TID 0000.0001) %MON forcing_qnet_del2            =   4.7049160692870E-01
(PID.TID 0000.0001) %MON forcing_qsw_max              =   0.0000000000000E+00
(PID.TID 0000.0001) %MON forcing_qsw_min              =  -1.1102641201256E+02
(PID.TID 0000.0001) %MON forcing_qsw_mean             =  -1.6409310447175E+01
(PID.TID 0000.0001) %MON forcing_qsw_sd               =   2.5995019556587E+01
(PID.TID 0000.0001) %MON forcing_qsw_del2             =   2.2735291465616E-02
(PID.TID 0000.0001) %MON forcing_empmr_max            =   3.3458229154348E-03
(PID.TID 0000.0001) %MON forcing_empmr_min            =  -2.8640409000218E-03
(PID.TID 0000.0001) %MON forcing_empmr_mean           =   1.2267654116142E-05
(PID.TID 0000.0001) %MON forcing_empmr_sd             =   2.3439816805286E-04
(PID.TID 0000.0001) %MON forcing_empmr_del2           =   6.4309307767137E-07
(PID.TID 0000.0001) %MON forcing_fu_max               =   1.8042018073167E+00
(PID.TID 0000.0001) %MON forcing_fu_min               =  -9.4762410254254E-01
(PID.TID 0000.0001) %MON forcing_fu_mean              =   1.1808372161624E-02
(PID.TID 0000.0001) %MON forcing_fu_sd                =   1.1321846952656E-01
(PID.TID 0000.0001) %MON forcing_fu_del2              =   1.8525221283587E-04
(PID.TID 0000.0001) %MON forcing_fv_max               =   8.3836199188695E-01
(PID.TID 0000.0001) %MON forcing_fv_min               =  -1.1590517067168E+00
(PID.TID 0000.0001) %MON forcing_fv_mean              =  -7.3636080277489E-03
(PID.TID 0000.0001) %MON forcing_fv_sd                =   1.0824349848951E-01
(PID.TID 0000.0001) %MON forcing_fv_del2              =   1.6804849322785E-04
(PID.TID 0000.0001) %MON trAdv_CFL_u_max              =   1.7586506525280E-02
(PID.TID 0000.0001) %MON trAdv_CFL_v_max              =   1.5919275956264E-02
(PID.TID 0000.0001) %MON trAdv_CFL_w_max              =   5.8581555186522E-02
(PID.TID 0000.0001) %MON advcfl_uvel_max              =   1.8585514759636E-02
(PID.TID 0000.0001) %MON advcfl_vvel_max              =   1.5569778606229E-02
(PID.TID 0000.0001) %MON advcfl_wvel_max              =   5.9452125976396E-02
(PID.TID 0000.0001) %MON advcfl_W_hf_max              =   6.2497224986534E-02
(PID.TID 0000.0001) %MON pe_b_mean                    =   6.8059296893626E-04
(PID.TID 0000.0001) %MON ke_max                       =   5.5780396561177E-01
(PID.TID 0000.0001) %MON ke_mean                      =   4.9849037603780E-04
(PID.TID 0000.0001) %MON ke_vol                       =   1.3349971109368E+18
(PID.TID 0000.0001) %MON vort_r_min                   =  -3.3746729851533E-05
(PID.TID 0000.0001) %MON vort_r_max                   =   3.1254651170861E-05
(PID.TID 0000.0001) %MON vort_a_mean                  =  -1.9727864647440E-05
(PID.TID 0000.0001) %MON vort_a_sd                    =   7.4543347943054E-05
(PID.TID 0000.0001) %MON vort_p_mean                  =  -2.1760542116923E-05
(PID.TID 0000.0001) %MON vort_p_sd                    =   9.7244034590027E-05
(PID.TID 0000.0001) %MON surfExpan_theta_mean         =  -1.5363743864088E-06
(PID.TID 0000.0001) %MON surfExpan_salt_mean          =  -4.2053058494201E-07
(PID.TID 0000.0001) // =======================================================
(PID.TID 0000.0001) // End MONITOR dynamic field statistics
(PID.TID 0000.0001) // =======================================================
(PID.TID 0000.0001) // =======================================================
(PID.TID 0000.0001) // Begin MONITOR SEAICE statistics
(PID.TID 0000.0001) // =======================================================
(PID.TID 0000.0001) %MON seaice_tsnumber              =                    32
(PID.TID 0000.0001) %MON seaice_time_sec              =   2.8800000000000E+04
(PID.TID 0000.0001) %MON seaice_uice_max              =   6.9021231175253E-01
(PID.TID 0000.0001) %MON seaice_uice_min              =  -7.6265102116974E-01
(PID.TID 0000.0001) %MON seaice_uice_mean             =  -3.0951772329478E-03
(PID.TID 0000.0001) %MON seaice_uice_sd               =   1.4982598823468E-01
(PID.TID 0000.0001) %MON seaice_uice_del2             =   2.8867683045476E-04
(PID.TID 0000.0001) %MON seaice_vice_max              =   7.8396510164030E-01
(PID.TID 0000.0001) %MON seaice_vice_min              =  -9.3704309388559E-01
(PID.TID 0000.0001) %MON seaice_vice_mean             =  -8.5948004746312E-03
(PID.TID 0000.0001) %MON seaice_vice_sd               =   1.6250860958842E-01
(PID.TID 0000.0001) %MON seaice_vice_del2             =   2.7229528952378E-04
(PID.TID 0000.0001) %MON seaice_area_max              =   1.0092200704915E+00
(PID.TID 0000.0001) %MON seaice_area_min              =   0.0000000000000E+00
(PID.TID 0000.0001) %MON seaice_area_mean             =   6.4063238342320E-02
(PID.TID 0000.0001) %MON seaice_area_sd               =   2.2398341476718E-01
(PID.TID 0000.0001) %MON seaice_area_del2             =   9.3774391852310E-04
(PID.TID 0000.0001) %MON seaice_heff_max              =   2.2922717121015E+01
(PID.TID 0000.0001) %MON seaice_heff_min              =   0.0000000000000E+00
(PID.TID 0000.0001) %MON seaice_heff_mean             =   1.9391089016396E-01
(PID.TID 0000.0001) %MON seaice_heff_sd               =   1.0036843074428E+00
(PID.TID 0000.0001) %MON seaice_heff_del2             =   5.0987931323383E-03
(PID.TID 0000.0001) %MON seaice_hsnow_max             =   7.5714162891291E+00
(PID.TID 0000.0001) %MON seaice_hsnow_min             =   0.0000000000000E+00
(PID.TID 0000.0001) %MON seaice_hsnow_mean            =   2.1521395845980E-02
(PID.TID 0000.0001) %MON seaice_hsnow_sd              =   1.3487967682334E-01
(PID.TID 0000.0001) %MON seaice_hsnow_del2            =   1.3399055664159E-03
(PID.TID 0000.0001) // =======================================================
(PID.TID 0000.0001) // End MONITOR SEAICE statistics
(PID.TID 0000.0001) // =======================================================
 SEAICE_LSR: Residual Initial ipass,Uice,Vice=    1  1.82531335E-02  1.99059315E-02
 SEAICE_LSR (ipass=   1) iters,dU,Resid=    38  9.50108110E-05  7.73095139E-03
 SEAICE_LSR (ipass=   1) iters,dV,Resid=    38  7.68460414E-05  9.95216378E-03
 SEAICE_LSR: Residual Initial ipass,Uice,Vice=    2  1.68346666E-02  1.86413669E-02
 SEAICE_LSR (ipass=   2) iters,dU,Resid=    22  9.67725962E-05  8.32026833E-03
 SEAICE_LSR (ipass=   2) iters,dV,Resid=    22  8.41706282E-05  1.04562616E-02
 cg2d: Sum(rhs),rhsMax =   6.82917598561374E+01  2.99647303440963E-01
 cg2d: Sum(rhs),rhsMax =   6.85805537986109E+01  3.00196856816517E-01
 cg2d: Sum(rhs),rhsMax =   6.88405864085833E+01  3.00400725333679E-01
 cg2d: Sum(rhs),rhsMax =   6.90831361701406E+01  3.00296396179619E-01
 cg2d: Sum(rhs),rhsMax =   6.93051804632862E+01  2.99949792729941E-01
 cg2d: Sum(rhs),rhsMax =   6.95025653183662E+01  2.99442538881895E-01
 cg2d: Sum(rhs),rhsMax =   6.96914870582816E+01  2.98860045714214E-01
 cg2d: Sum(rhs),rhsMax =   6.98529299630704E+01  2.98278379329764E-01
(PID.TID 0000.0001)      cg2d_init_res =   4.67694743840060E-01
(PID.TID 0000.0001)      cg2d_iters(min,last) =      -1      33
(PID.TID 0000.0001)      cg2d_last_res =   2.41674077735550E-05
(PID.TID 0000.0001) // =======================================================
(PID.TID 0000.0001) // Begin MONITOR dynamic field statistics
(PID.TID 0000.0001) // =======================================================
(PID.TID 0000.0001) %MON time_tsnumber                =                    40
(PID.TID 0000.0001) %MON time_secondsf                =   3.6000000000000E+04
(PID.TID 0000.0001) %MON dynstat_eta_max              =   1.0848621822930E+00
(PID.TID 0000.0001) %MON dynstat_eta_min              =  -3.5834934291531E+00
(PID.TID 0000.0001) %MON dynstat_eta_mean             =  -2.2096712701875E-03
(PID.TID 0000.0001) %MON dynstat_eta_sd               =   7.1765419541372E-01
(PID.TID 0000.0001) %MON dynstat_eta_del2             =   8.5089448099689E-05
(PID.TID 0000.0001) %MON dynstat_uvel_max             =   6.5132358446453E-01
(PID.TID 0000.0001) %MON dynstat_uvel_min             =  -1.0960050284419E+00
(PID.TID 0000.0001) %MON dynstat_uvel_mean            =   1.8037613342541E-03
(PID.TID 0000.0001) %MON dynstat_uvel_sd              =   2.1788466555422E-02
(PID.TID 0000.0001) %MON dynstat_uvel_del2            =   1.3194874431824E-05
(PID.TID 0000.0001) %MON dynstat_vvel_max             =   8.3708482795065E-01
(PID.TID 0000.0001) %MON dynstat_vvel_min             =  -9.2137568651172E-01
(PID.TID 0000.0001) %MON dynstat_vvel_mean            =   1.4639848462528E-03
(PID.TID 0000.0001) %MON dynstat_vvel_sd              =   2.3255059414849E-02
(PID.TID 0000.0001) %MON dynstat_vvel_del2            =   1.4018183296669E-05
(PID.TID 0000.0001) %MON dynstat_wvel_max             =   2.8495403028893E-03
(PID.TID 0000.0001) %MON dynstat_wvel_min             =  -3.9470268635335E-03
(PID.TID 0000.0001) %MON dynstat_wvel_mean            =   6.1887774658524E-08
(PID.TID 0000.0001) %MON dynstat_wvel_sd              =   3.5843659884447E-05
(PID.TID 0000.0001) %MON dynstat_wvel_del2            =   5.2419392525425E-08
(PID.TID 0000.0001) %MON dynstat_theta_max            =   3.2691773931185E+01
(PID.TID 0000.0001) %MON dynstat_theta_min            =  -2.0423342055963E+00
(PID.TID 0000.0001) %MON dynstat_theta_mean           =   3.5905790552249E+00
(PID.TID 0000.0001) %MON dynstat_theta_sd             =   4.4365058256023E+00
(PID.TID 0000.0001) %MON dynstat_theta_del2           =   1.0747635010110E-04
(PID.TID 0000.0001) %MON dynstat_salt_max             =   4.0711522914698E+01
(PID.TID 0000.0001) %MON dynstat_salt_min             =   1.8867759198281E+01
(PID.TID 0000.0001) %MON dynstat_salt_mean            =   3.4725654690022E+01
(PID.TID 0000.0001) %MON dynstat_salt_sd              =   3.7726567475703E-01
(PID.TID 0000.0001) %MON dynstat_salt_del2            =   2.6244919162446E-05
(PID.TID 0000.0001) %MON dynstat_sst_max              =   3.2691773931185E+01
(PID.TID 0000.0001) %MON dynstat_sst_min              =  -1.9327729080673E+00
(PID.TID 0000.0001) %MON dynstat_sst_mean             =   1.8491095399693E+01
(PID.TID 0000.0001) %MON dynstat_sst_sd               =   1.0105939749640E+01
(PID.TID 0000.0001) %MON dynstat_sst_del2             =   8.6969101818139E-04
(PID.TID 0000.0001) %MON dynstat_sss_max              =   3.9503137413877E+01
(PID.TID 0000.0001) %MON dynstat_sss_min              =   1.8867759198281E+01
(PID.TID 0000.0001) %MON dynstat_sss_mean             =   3.4683561287477E+01
(PID.TID 0000.0001) %MON dynstat_sss_sd               =   1.1235115553419E+00
(PID.TID 0000.0001) %MON dynstat_sss_del2             =   3.7220370432711E-04
(PID.TID 0000.0001) %MON forcing_qnet_max             =   2.3723862304688E+03
(PID.TID 0000.0001) %MON forcing_qnet_min             =  -8.5316876538654E+02
(PID.TID 0000.0001) %MON forcing_qnet_mean            =   5.0010913975418E+01
(PID.TID 0000.0001) %MON forcing_qnet_sd              =   1.8844010539747E+02
(PID.TID 0000.0001) %MON forcing_qnet_del2            =   5.0594317941849E-01
(PID.TID 0000.0001) %MON forcing_qsw_max              =   0.0000000000000E+00
(PID.TID 0000.0001) %MON forcing_qsw_min              =  -1.1018272096281E+02
(PID.TID 0000.0001) %MON forcing_qsw_mean             =  -1.4445143718669E+01
(PID.TID 0000.0001) %MON forcing_qsw_sd               =   2.6717189769093E+01
(PID.TID 0000.0001) %MON forcing_qsw_del2             =   2.0930176950765E-02
(PID.TID 0000.0001) %MON forcing_empmr_max            =   3.0908086337149E-03
(PID.TID 0000.0001) %MON forcing_empmr_min            =  -3.2854548189789E-03
(PID.TID 0000.0001) %MON forcing_empmr_mean           =   5.8389515321757E-06
(PID.TID 0000.0001) %MON forcing_empmr_sd             =   1.9878972672341E-04
(PID.TID 0000.0001) %MON forcing_empmr_del2           =   6.9012876406741E-07
(PID.TID 0000.0001) %MON forcing_fu_max               =   1.7682971475869E+00
(PID.TID 0000.0001) %MON forcing_fu_min               =  -9.0294619475093E-01
(PID.TID 0000.0001) %MON forcing_fu_mean              =   1.1902567355227E-02
(PID.TID 0000.0001) %MON forcing_fu_sd                =   1.1121516093481E-01
(PID.TID 0000.0001) %MON forcing_fu_del2              =   1.7909281489957E-04
(PID.TID 0000.0001) %MON forcing_fv_max               =   7.6344283716864E-01
(PID.TID 0000.0001) %MON forcing_fv_min               =  -1.1318607008635E+00
(PID.TID 0000.0001) %MON forcing_fv_mean              =  -8.9543101275699E-03
(PID.TID 0000.0001) %MON forcing_fv_sd                =   1.0759946074222E-01
(PID.TID 0000.0001) %MON forcing_fv_del2              =   1.6002221060773E-04
(PID.TID 0000.0001) %MON trAdv_CFL_u_max              =   1.7038971042101E-02
(PID.TID 0000.0001) %MON trAdv_CFL_v_max              =   1.6909687594549E-02
(PID.TID 0000.0001) %MON trAdv_CFL_w_max              =   6.3832257251615E-02
(PID.TID 0000.0001) %MON advcfl_uvel_max              =   1.7955266880903E-02
(PID.TID 0000.0001) %MON advcfl_vvel_max              =   1.4858913045123E-02
(PID.TID 0000.0001) %MON advcfl_wvel_max              =   6.0949893256558E-02
(PID.TID 0000.0001) %MON advcfl_W_hf_max              =   6.3617462443204E-02
(PID.TID 0000.0001) %MON pe_b_mean                    =   6.7747474213103E-04
(PID.TID 0000.0001) %MON ke_max                       =   5.1549252849344E-01
(PID.TID 0000.0001) %MON ke_mean                      =   4.9228812799235E-04
(PID.TID 0000.0001) %MON ke_vol                       =   1.3349970876747E+18
(PID.TID 0000.0001) %MON vort_r_min                   =  -3.2178464723694E-05
(PID.TID 0000.0001) %MON vort_r_max                   =   3.0252807173090E-05
(PID.TID 0000.0001) %MON vort_a_mean                  =  -1.9727864647440E-05
(PID.TID 0000.0001) %MON vort_a_sd                    =   7.4543342472341E-05
(PID.TID 0000.0001) %MON vort_p_mean                  =  -2.1760542858590E-05
(PID.TID 0000.0001) %MON vort_p_sd                    =   9.7244385664271E-05
(PID.TID 0000.0001) %MON surfExpan_theta_mean         =  -1.7242070639617E-06
(PID.TID 0000.0001) %MON surfExpan_salt_mean          =  -3.3533415572409E-07
(PID.TID 0000.0001) // =======================================================
(PID.TID 0000.0001) // End MONITOR dynamic field statistics
(PID.TID 0000.0001) // =======================================================
(PID.TID 0000.0001) // =======================================================
(PID.TID 0000.0001) // Begin MONITOR SEAICE statistics
(PID.TID 0000.0001) // =======================================================
(PID.TID 0000.0001) %MON seaice_tsnumber              =                    40
(PID.TID 0000.0001) %MON seaice_time_sec              =   3.6000000000000E+04
(PID.TID 0000.0001) %MON seaice_uice_max              =   6.5352291707145E-01
(PID.TID 0000.0001) %MON seaice_uice_min              =  -6.5559499140260E-01
(PID.TID 0000.0001) %MON seaice_uice_mean             =  -3.2715368231097E-03
(PID.TID 0000.0001) %MON seaice_uice_sd               =   1.4590741401714E-01
(PID.TID 0000.0001) %MON seaice_uice_del2             =   2.7690171155558E-04
(PID.TID 0000.0001) %MON seaice_vice_max              =   7.7948564101101E-01
(PID.TID 0000.0001) %MON seaice_vice_min              =  -9.3352418955246E-01
(PID.TID 0000.0001) %MON seaice_vice_mean             =  -1.2257691413734E-02
(PID.TID 0000.0001) %MON seaice_vice_sd               =   1.5883407033535E-01
(PID.TID 0000.0001) %MON seaice_vice_del2             =   2.6337599256043E-04
(PID.TID 0000.0001) %MON seaice_area_max              =   1.0083010547468E+00
(PID.TID 0000.0001) %MON seaice_area_min              =   0.0000000000000E+00
(PID.TID 0000.0001) %MON seaice_area_mean             =   6.3789695470070E-02
(PID.TID 0000.0001) %MON seaice_area_sd               =   2.2382105332692E-01
(PID.TID 0000.0001) %MON seaice_area_del2             =   9.3293119030807E-04
(PID.TID 0000.0001) %MON seaice_heff_max              =   2.2913002126695E+01
(PID.TID 0000.0001) %MON seaice_heff_min              =   0.0000000000000E+00
(PID.TID 0000.0001) %MON seaice_heff_mean             =   1.9397639454247E-01
(PID.TID 0000.0001) %MON seaice_heff_sd               =   1.0041195391704E+00
(PID.TID 0000.0001) %MON seaice_heff_del2             =   5.0521318992837E-03
(PID.TID 0000.0001) %MON seaice_hsnow_max             =   7.5682076444081E+00
(PID.TID 0000.0001) %MON seaice_hsnow_min             =   0.0000000000000E+00
(PID.TID 0000.0001) %MON seaice_hsnow_mean            =   2.1518103578098E-02
(PID.TID 0000.0001) %MON seaice_hsnow_sd              =   1.3445607531743E-01
(PID.TID 0000.0001) %MON seaice_hsnow_del2            =   1.3206300942068E-03
(PID.TID 0000.0001) // =======================================================
(PID.TID 0000.0001) // End MONITOR SEAICE statistics
(PID.TID 0000.0001) // =======================================================
 SEAICE_LSR: Residual Initial ipass,Uice,Vice=    1  1.65516106E-02  1.70977107E-02
 SEAICE_LSR (ipass=   1) iters,dU,Resid=    46  7.22084471E-05  5.96804025E-03
 SEAICE_LSR (ipass=   1) iters,dV,Resid=    46  9.61099393E-05  6.56094340E-03
 SEAICE_LSR: Residual Initial ipass,Uice,Vice=    2  1.53566484E-02  1.53388314E-02
 SEAICE_LSR (ipass=   2) iters,dU,Resid=    32  6.05295290E-05  6.24460116E-03
 SEAICE_LSR (ipass=   2) iters,dV,Resid=    32  9.60710474E-05  6.80899728E-03
 cg2d: Sum(rhs),rhsMax =   6.99988941220771E+01  2.97762383240351E-01
 cg2d: Sum(rhs),rhsMax =   7.01321457526857E+01  2.97358153961857E-01
 cg2d: Sum(rhs),rhsMax =   7.02366050995378E+01  2.97093887773388E-01
 cg2d: Sum(rhs),rhsMax =   7.03280753845177E+01  2.96975528876207E-01
 cg2d: Sum(rhs),rhsMax =   7.04073840440483E+01  2.96994542338888E-01
 cg2d: Sum(rhs),rhsMax =   7.04706349848932E+01  2.97134535239814E-01
 cg2d: Sum(rhs),rhsMax =   7.05195351619636E+01  2.97379555295221E-01
 cg2d: Sum(rhs),rhsMax =   7.05449125935100E+01  2.97676747178341E-01
(PID.TID 0000.0001)      cg2d_init_res =   4.02932113223444E-01
(PID.TID 0000.0001)      cg2d_iters(min,last) =      -1      31
(PID.TID 0000.0001)      cg2d_last_res =   2.32983018232384E-05
(PID.TID 0000.0001) // =======================================================
(PID.TID 0000.0001) // Begin MONITOR dynamic field statistics
(PID.TID 0000.0001) // =======================================================
(PID.TID 0000.0001) %MON time_tsnumber                =                    48
(PID.TID 0000.0001) %MON time_secondsf                =   4.3200000000000E+04
(PID.TID 0000.0001) %MON dynstat_eta_max              =   1.0839041163767E+00
(PID.TID 0000.0001) %MON dynstat_eta_min              =  -3.4160078908319E+00
(PID.TID 0000.0001) %MON dynstat_eta_mean             =  -2.2315608908343E-03
(PID.TID 0000.0001) %MON dynstat_eta_sd               =   7.1368185309796E-01
(PID.TID 0000.0001) %MON dynstat_eta_del2             =   8.4847460322958E-05
(PID.TID 0000.0001) %MON dynstat_uvel_max             =   7.5539141867177E-01
(PID.TID 0000.0001) %MON dynstat_uvel_min             =  -1.0593688534497E+00
(PID.TID 0000.0001) %MON dynstat_uvel_mean            =   1.7570205755126E-03
(PID.TID 0000.0001) %MON dynstat_uvel_sd              =   2.1700917559277E-02
(PID.TID 0000.0001) %MON dynstat_uvel_del2            =   1.3069033607746E-05
(PID.TID 0000.0001) %MON dynstat_vvel_max             =   8.4701204703027E-01
(PID.TID 0000.0001) %MON dynstat_vvel_min             =  -9.1766871352559E-01
(PID.TID 0000.0001) %MON dynstat_vvel_mean            =   1.5379077504532E-03
(PID.TID 0000.0001) %MON dynstat_vvel_sd              =   2.3121332099304E-02
(PID.TID 0000.0001) %MON dynstat_vvel_del2            =   1.3705225164326E-05
(PID.TID 0000.0001) %MON dynstat_wvel_max             =   3.3293435735792E-03
(PID.TID 0000.0001) %MON dynstat_wvel_min             =  -3.3827094568028E-03
(PID.TID 0000.0001) %MON dynstat_wvel_mean            =   6.0773220860392E-08
(PID.TID 0000.0001) %MON dynstat_wvel_sd              =   3.5372818147732E-05
(PID.TID 0000.0001) %MON dynstat_wvel_del2            =   5.3515693726908E-08
(PID.TID 0000.0001) %MON dynstat_theta_max            =   3.2699180652678E+01
(PID.TID 0000.0001) %MON dynstat_theta_min            =  -2.0423591717111E+00
(PID.TID 0000.0001) %MON dynstat_theta_mean           =   3.5905543568597E+00
(PID.TID 0000.0001) %MON dynstat_theta_sd             =   4.4364036271238E+00
(PID.TID 0000.0001) %MON dynstat_theta_del2           =   1.0687106065943E-04
(PID.TID 0000.0001) %MON dynstat_salt_max             =   4.0711524276970E+01
(PID.TID 0000.0001) %MON dynstat_salt_min             =   1.8869381217083E+01
(PID.TID 0000.0001) %MON dynstat_salt_mean            =   3.4725642649563E+01
(PID.TID 0000.0001) %MON dynstat_salt_sd              =   3.7720976896257E-01
(PID.TID 0000.0001) %MON dynstat_salt_del2            =   2.6070896309913E-05
(PID.TID 0000.0001) %MON dynstat_sst_max              =   3.2699180652678E+01
(PID.TID 0000.0001) %MON dynstat_sst_min              =  -1.9299027629744E+00
(PID.TID 0000.0001) %MON dynstat_sst_mean             =   1.8484936738559E+01
(PID.TID 0000.0001) %MON dynstat_sst_sd               =   1.0106811639141E+01
(PID.TID 0000.0001) %MON dynstat_sst_del2             =   8.6633579639733E-04
(PID.TID 0000.0001) %MON dynstat_sss_max              =   3.9472728312825E+01
(PID.TID 0000.0001) %MON dynstat_sss_min              =   1.8869381217083E+01
(PID.TID 0000.0001) %MON dynstat_sss_mean             =   3.4683032295579E+01
(PID.TID 0000.0001) %MON dynstat_sss_sd               =   1.1224426704616E+00
(PID.TID 0000.0001) %MON dynstat_sss_del2             =   3.7031018266310E-04
(PID.TID 0000.0001) %MON forcing_qnet_max             =   1.9844925537109E+03
(PID.TID 0000.0001) %MON forcing_qnet_min             =  -1.0858320126908E+03
(PID.TID 0000.0001) %MON forcing_qnet_mean            =   5.2969399987495E+01
(PID.TID 0000.0001) %MON forcing_qnet_sd              =   1.7973009516051E+02
(PID.TID 0000.0001) %MON forcing_qnet_del2            =   4.4560704192575E-01
(PID.TID 0000.0001) %MON forcing_qsw_max              =   0.0000000000000E+00
(PID.TID 0000.0001) %MON forcing_qsw_min              =  -1.1135554810266E+02
(PID.TID 0000.0001) %MON forcing_qsw_mean             =  -1.3876476244510E+01
(PID.TID 0000.0001) %MON forcing_qsw_sd               =   2.5667406666324E+01
(PID.TID 0000.0001) %MON forcing_qsw_del2             =   2.0210096229130E-02
(PID.TID 0000.0001) %MON forcing_empmr_max            =   3.1366646289825E-03
(PID.TID 0000.0001) %MON forcing_empmr_min            =  -2.7425130829215E-03
(PID.TID 0000.0001) %MON forcing_empmr_mean           =   9.1783279683589E-07
(PID.TID 0000.0001) %MON forcing_empmr_sd             =   1.7329303311404E-04
(PID.TID 0000.0001) %MON forcing_empmr_del2           =   6.6857137659548E-07
(PID.TID 0000.0001) %MON forcing_fu_max               =   1.7117872705273E+00
(PID.TID 0000.0001) %MON forcing_fu_min               =  -8.3940155769029E-01
(PID.TID 0000.0001) %MON forcing_fu_mean              =   1.1499645809142E-02
(PID.TID 0000.0001) %MON forcing_fu_sd                =   1.1009961240516E-01
(PID.TID 0000.0001) %MON forcing_fu_del2              =   1.7794382452566E-04
(PID.TID 0000.0001) %MON forcing_fv_max               =   7.9493176669476E-01
(PID.TID 0000.0001) %MON forcing_fv_min               =  -9.0304110359533E-01
(PID.TID 0000.0001) %MON forcing_fv_mean              =  -9.9569498761931E-03
(PID.TID 0000.0001) %MON forcing_fv_sd                =   1.0670074199757E-01
(PID.TID 0000.0001) %MON forcing_fv_del2              =   1.5626773295299E-04
(PID.TID 0000.0001) %MON trAdv_CFL_u_max              =   1.8823949455602E-02
(PID.TID 0000.0001) %MON trAdv_CFL_v_max              =   1.8445489776301E-02
(PID.TID 0000.0001) %MON trAdv_CFL_w_max              =   7.9665451521886E-02
(PID.TID 0000.0001) %MON advcfl_uvel_max              =   1.7355075930671E-02
(PID.TID 0000.0001) %MON advcfl_vvel_max              =   1.6180969059259E-02
(PID.TID 0000.0001) %MON advcfl_wvel_max              =   7.6894342937559E-02
(PID.TID 0000.0001) %MON advcfl_W_hf_max              =   8.1365795720937E-02
(PID.TID 0000.0001) %MON pe_b_mean                    =   6.6999581827350E-04
(PID.TID 0000.0001) %MON ke_max                       =   4.8793047073364E-01
(PID.TID 0000.0001) %MON ke_mean                      =   4.8748829671993E-04
(PID.TID 0000.0001) %MON ke_vol                       =   1.3349970782970E+18
(PID.TID 0000.0001) %MON vort_r_min                   =  -3.1360088552176E-05
(PID.TID 0000.0001) %MON vort_r_max                   =   3.1105694241428E-05
(PID.TID 0000.0001) %MON vort_a_mean                  =  -1.9727864647440E-05
(PID.TID 0000.0001) %MON vort_a_sd                    =   7.4543348825585E-05
(PID.TID 0000.0001) %MON vort_p_mean                  =  -2.1760543139893E-05
(PID.TID 0000.0001) %MON vort_p_sd                    =   9.7244641051665E-05
(PID.TID 0000.0001) %MON surfExpan_theta_mean         =  -2.3471254185557E-06
(PID.TID 0000.0001) %MON surfExpan_salt_mean          =  -2.5313158461533E-07
(PID.TID 0000.0001) // =======================================================
(PID.TID 0000.0001) // End MONITOR dynamic field statistics
(PID.TID 0000.0001) // =======================================================
(PID.TID 0000.0001) // =======================================================
(PID.TID 0000.0001) // Begin MONITOR SEAICE statistics
(PID.TID 0000.0001) // =======================================================
(PID.TID 0000.0001) %MON seaice_tsnumber              =                    48
(PID.TID 0000.0001) %MON seaice_time_sec              =   4.3200000000000E+04
(PID.TID 0000.0001) %MON seaice_uice_max              =   6.3608799818887E-01
(PID.TID 0000.0001) %MON seaice_uice_min              =  -6.4416185940748E-01
(PID.TID 0000.0001) %MON seaice_uice_mean             =  -2.5299932218674E-03
(PID.TID 0000.0001) %MON seaice_uice_sd               =   1.4321746170111E-01
(PID.TID 0000.0001) %MON seaice_uice_del2             =   2.7370229598895E-04
(PID.TID 0000.0001) %MON seaice_vice_max              =   8.0475921953850E-01
(PID.TID 0000.0001) %MON seaice_vice_min              =  -9.3026781975115E-01
(PID.TID 0000.0001) %MON seaice_vice_mean             =  -1.5098963007582E-02
(PID.TID 0000.0001) %MON seaice_vice_sd               =   1.5604481500175E-01
(PID.TID 0000.0001) %MON seaice_vice_del2             =   2.5744310695874E-04
(PID.TID 0000.0001) %MON seaice_area_max              =   1.0078399361377E+00
(PID.TID 0000.0001) %MON seaice_area_min              =   0.0000000000000E+00
(PID.TID 0000.0001) %MON seaice_area_mean             =   6.3547939604079E-02
(PID.TID 0000.0001) %MON seaice_area_sd               =   2.2366094280792E-01
(PID.TID 0000.0001) %MON seaice_area_del2             =   9.2870789375351E-04
(PID.TID 0000.0001) %MON seaice_heff_max              =   2.2904526353060E+01
(PID.TID 0000.0001) %MON seaice_heff_min              =   0.0000000000000E+00
(PID.TID 0000.0001) %MON seaice_heff_mean             =   1.9400609370804E-01
(PID.TID 0000.0001) %MON seaice_heff_sd               =   1.0044114528149E+00
(PID.TID 0000.0001) %MON seaice_heff_del2             =   5.0152527152538E-03
(PID.TID 0000.0001) %MON seaice_hsnow_max             =   7.5654087540387E+00
(PID.TID 0000.0001) %MON seaice_hsnow_min             =   0.0000000000000E+00
(PID.TID 0000.0001) %MON seaice_hsnow_mean            =   2.1516676867670E-02
(PID.TID 0000.0001) %MON seaice_hsnow_sd              =   1.3412025476914E-01
(PID.TID 0000.0001) %MON seaice_hsnow_del2            =   1.3053901554167E-03
(PID.TID 0000.0001) // =======================================================
(PID.TID 0000.0001) // End MONITOR SEAICE statistics
(PID.TID 0000.0001) // =======================================================
 SEAICE_LSR: Residual Initial ipass,Uice,Vice=    1  1.22257707E-02  1.20120314E-02
 SEAICE_LSR (ipass=   1) iters,dU,Resid=    28  8.63480254E-05  5.18516991E-03
 SEAICE_LSR (ipass=   1) iters,dV,Resid=    28  9.83591123E-05  5.59436986E-03
 SEAICE_LSR: Residual Initial ipass,Uice,Vice=    2  1.11999767E-02  1.10165233E-02
 SEAICE_LSR (ipass=   2) iters,dU,Resid=    14  9.37082010E-05  5.71267175E-03
 SEAICE_LSR (ipass=   2) iters,dV,Resid=    14  9.10645161E-05  5.98181577E-03
 cg2d: Sum(rhs),rhsMax =   7.05531873163677E+01  2.97988483502557E-01
 cg2d: Sum(rhs),rhsMax =   7.05531257043267E+01  2.98280387180932E-01
 cg2d: Sum(rhs),rhsMax =   7.05434504178700E+01  2.98523500884924E-01
 cg2d: Sum(rhs),rhsMax =   7.05188410669304E+01  2.98696119575239E-01
 cg2d: Sum(rhs),rhsMax =   7.04810199252524E+01  2.98788500131442E-01
 cg2d: Sum(rhs),rhsMax =   7.04486141113863E+01  2.98798787421415E-01
 cg2d: Sum(rhs),rhsMax =   7.04163424275116E+01  2.98734639971712E-01
 cg2d: Sum(rhs),rhsMax =   7.03697025423571E+01  2.98610344102828E-01
(PID.TID 0000.0001)      cg2d_init_res =   3.72600120257771E-01
(PID.TID 0000.0001)      cg2d_iters(min,last) =      -1      32
(PID.TID 0000.0001)      cg2d_last_res =   2.59084837383789E-05
(PID.TID 0000.0001) // =======================================================
(PID.TID 0000.0001) // Begin MONITOR dynamic field statistics
(PID.TID 0000.0001) // =======================================================
(PID.TID 0000.0001) %MON time_tsnumber                =                    56
(PID.TID 0000.0001) %MON time_secondsf                =   5.0400000000000E+04
(PID.TID 0000.0001) %MON dynstat_eta_max              =   1.0883639468242E+00
(PID.TID 0000.0001) %MON dynstat_eta_min              =  -3.2567320668081E+00
(PID.TID 0000.0001) %MON dynstat_eta_mean             =  -2.2260184373325E-03
(PID.TID 0000.0001) %MON dynstat_eta_sd               =   7.0845672043068E-01
(PID.TID 0000.0001) %MON dynstat_eta_del2             =   8.4895206186063E-05
(PID.TID 0000.0001) %MON dynstat_uvel_max             =   8.8632675459442E-01
(PID.TID 0000.0001) %MON dynstat_uvel_min             =  -1.0461949903144E+00
(PID.TID 0000.0001) %MON dynstat_uvel_mean            =   1.7161491802726E-03
(PID.TID 0000.0001) %MON dynstat_uvel_sd              =   2.1658495860182E-02
(PID.TID 0000.0001) %MON dynstat_uvel_del2            =   1.3025318737598E-05
(PID.TID 0000.0001) %MON dynstat_vvel_max             =   8.7714463633658E-01
(PID.TID 0000.0001) %MON dynstat_vvel_min             =  -9.9867867369505E-01
(PID.TID 0000.0001) %MON dynstat_vvel_mean            =   1.5840677711149E-03
(PID.TID 0000.0001) %MON dynstat_vvel_sd              =   2.2987995775684E-02
(PID.TID 0000.0001) %MON dynstat_vvel_del2            =   1.3492026963069E-05
(PID.TID 0000.0001) %MON dynstat_wvel_max             =   3.7584414479664E-03
(PID.TID 0000.0001) %MON dynstat_wvel_min             =  -2.5404760623525E-03
(PID.TID 0000.0001) %MON dynstat_wvel_mean            =   6.7394216149044E-08
(PID.TID 0000.0001) %MON dynstat_wvel_sd              =   3.4529792988142E-05
(PID.TID 0000.0001) %MON dynstat_wvel_del2            =   5.3596025973226E-08
(PID.TID 0000.0001) %MON dynstat_theta_max            =   3.2693059749018E+01
(PID.TID 0000.0001) %MON dynstat_theta_min            =  -2.0423212081318E+00
(PID.TID 0000.0001) %MON dynstat_theta_mean           =   3.5905331438178E+00
(PID.TID 0000.0001) %MON dynstat_theta_sd             =   4.4363119895213E+00
(PID.TID 0000.0001) %MON dynstat_theta_del2           =   1.0628596248228E-04
(PID.TID 0000.0001) %MON dynstat_salt_max             =   4.0711525715638E+01
(PID.TID 0000.0001) %MON dynstat_salt_min             =   1.8870553043056E+01
(PID.TID 0000.0001) %MON dynstat_salt_mean            =   3.4725633833801E+01
(PID.TID 0000.0001) %MON dynstat_salt_sd              =   3.7716875324254E-01
(PID.TID 0000.0001) %MON dynstat_salt_del2            =   2.5916417061947E-05
(PID.TID 0000.0001) %MON dynstat_sst_max              =   3.2693059749018E+01
(PID.TID 0000.0001) %MON dynstat_sst_min              =  -1.9036400707612E+00
(PID.TID 0000.0001) %MON dynstat_sst_mean             =   1.8481315066582E+01
(PID.TID 0000.0001) %MON dynstat_sst_sd               =   1.0107601859852E+01
(PID.TID 0000.0001) %MON dynstat_sst_del2             =   8.6306871915074E-04
(PID.TID 0000.0001) %MON dynstat_sss_max              =   3.9445248192512E+01
(PID.TID 0000.0001) %MON dynstat_sss_min              =   1.8870553043056E+01
(PID.TID 0000.0001) %MON dynstat_sss_mean             =   3.4683470719025E+01
(PID.TID 0000.0001) %MON dynstat_sss_sd               =   1.1227717581859E+00
(PID.TID 0000.0001) %MON dynstat_sss_del2             =   3.6901876393452E-04
(PID.TID 0000.0001) %MON forcing_qnet_max             =   1.5294430564541E+03
(PID.TID 0000.0001) %MON forcing_qnet_min             =  -7.2196844758367E+02
(PID.TID 0000.0001) %MON forcing_qnet_mean            =   3.9658949454013E+01
(PID.TID 0000.0001) %MON forcing_qnet_sd              =   1.8054395416521E+02
(PID.TID 0000.0001) %MON forcing_qnet_del2            =   4.2023678214215E-01
(PID.TID 0000.0001) %MON forcing_qsw_max              =   0.0000000000000E+00
(PID.TID 0000.0001) %MON forcing_qsw_min              =  -1.0062948689381E+02
(PID.TID 0000.0001) %MON forcing_qsw_mean             =  -1.4838244057773E+01
(PID.TID 0000.0001) %MON forcing_qsw_sd               =   2.4926701693744E+01
(PID.TID 0000.0001) %MON forcing_qsw_del2             =   2.1493019378495E-02
(PID.TID 0000.0001) %MON forcing_empmr_max            =   2.5730463676155E-03
(PID.TID 0000.0001) %MON forcing_empmr_min            =  -5.1842522807419E-03
(PID.TID 0000.0001) %MON forcing_empmr_mean           =  -1.6868380139326E-06
(PID.TID 0000.0001) %MON forcing_empmr_sd             =   1.5811971932629E-04
(PID.TID 0000.0001) %MON forcing_empmr_del2           =   7.0120352176262E-07
(PID.TID 0000.0001) %MON forcing_fu_max               =   1.6373235134242E+00
(PID.TID 0000.0001) %MON forcing_fu_min               =  -1.0723632214336E+00
(PID.TID 0000.0001) %MON forcing_fu_mean              =   1.0643428895694E-02
(PID.TID 0000.0001) %MON forcing_fu_sd                =   1.0845632509989E-01
(PID.TID 0000.0001) %MON forcing_fu_del2              =   1.7556001509890E-04
(PID.TID 0000.0001) %MON forcing_fv_max               =   1.0407542882930E+00
(PID.TID 0000.0001) %MON forcing_fv_min               =  -7.9008677775137E-01
(PID.TID 0000.0001) %MON forcing_fv_mean              =  -1.0013863860006E-02
(PID.TID 0000.0001) %MON forcing_fv_sd                =   1.0587319234645E-01
(PID.TID 0000.0001) %MON forcing_fv_del2              =   1.5691829404506E-04
(PID.TID 0000.0001) %MON trAdv_CFL_u_max              =   2.0397246656695E-02
(PID.TID 0000.0001) %MON trAdv_CFL_v_max              =   1.9659885710339E-02
(PID.TID 0000.0001) %MON trAdv_CFL_w_max              =   8.2291006890214E-02
(PID.TID 0000.0001) %MON advcfl_uvel_max              =   1.8592726583800E-02
(PID.TID 0000.0001) %MON advcfl_vvel_max              =   2.0275749355122E-02
(PID.TID 0000.0001) %MON advcfl_wvel_max              =   8.5749641354595E-02
(PID.TID 0000.0001) %MON advcfl_W_hf_max              =   9.1222013494591E-02
(PID.TID 0000.0001) %MON pe_b_mean                    =   6.6022121261383E-04
(PID.TID 0000.0001) %MON ke_max                       =   5.3724451848963E-01
(PID.TID 0000.0001) %MON ke_mean                      =   4.8363749203067E-04
(PID.TID 0000.0001) %MON ke_vol                       =   1.3349970794656E+18
(PID.TID 0000.0001) %MON vort_r_min                   =  -3.1048032302350E-05
(PID.TID 0000.0001) %MON vort_r_max                   =   3.4576202179291E-05
(PID.TID 0000.0001) %MON vort_a_mean                  =  -1.9727864647440E-05
(PID.TID 0000.0001) %MON vort_a_sd                    =   7.4543349537107E-05
(PID.TID 0000.0001) %MON vort_p_mean                  =  -2.1760543206600E-05
(PID.TID 0000.0001) %MON vort_p_sd                    =   9.7245003670853E-05
(PID.TID 0000.0001) %MON surfExpan_theta_mean         =  -2.7995071456428E-06
(PID.TID 0000.0001) %MON surfExpan_salt_mean          =  -2.7265035957033E-07
(PID.TID 0000.0001) // =======================================================
(PID.TID 0000.0001) // End MONITOR dynamic field statistics
(PID.TID 0000.0001) // =======================================================
(PID.TID 0000.0001) // =======================================================
(PID.TID 0000.0001) // Begin MONITOR SEAICE statistics
(PID.TID 0000.0001) // =======================================================
(PID.TID 0000.0001) %MON seaice_tsnumber              =                    56
(PID.TID 0000.0001) %MON seaice_time_sec              =   5.0400000000000E+04
(PID.TID 0000.0001) %MON seaice_uice_max              =   6.3296408599247E-01
(PID.TID 0000.0001) %MON seaice_uice_min              =  -7.1413513100916E-01
(PID.TID 0000.0001) %MON seaice_uice_mean             =  -1.3346736042789E-03
(PID.TID 0000.0001) %MON seaice_uice_sd               =   1.4271623918218E-01
(PID.TID 0000.0001) %MON seaice_uice_del2             =   2.7629805769978E-04
(PID.TID 0000.0001) %MON seaice_vice_max              =   7.8918850916231E-01
(PID.TID 0000.0001) %MON seaice_vice_min              =  -9.2432215728387E-01
(PID.TID 0000.0001) %MON seaice_vice_mean             =  -1.6321529363893E-02
(PID.TID 0000.0001) %MON seaice_vice_sd               =   1.5493393784228E-01
(PID.TID 0000.0001) %MON seaice_vice_del2             =   2.5334252850971E-04
(PID.TID 0000.0001) %MON seaice_area_max              =   1.0063618395538E+00
(PID.TID 0000.0001) %MON seaice_area_min              =   0.0000000000000E+00
(PID.TID 0000.0001) %MON seaice_area_mean             =   6.3327648302911E-02
(PID.TID 0000.0001) %MON seaice_area_sd               =   2.2350324316241E-01
(PID.TID 0000.0001) %MON seaice_area_del2             =   9.2473559132574E-04
(PID.TID 0000.0001) %MON seaice_heff_max              =   2.2897001390421E+01
(PID.TID 0000.0001) %MON seaice_heff_min              =   0.0000000000000E+00
(PID.TID 0000.0001) %MON seaice_heff_mean             =   1.9400884040209E-01
(PID.TID 0000.0001) %MON seaice_heff_sd               =   1.0045722183420E+00
(PID.TID 0000.0001) %MON seaice_heff_del2             =   4.9827252466710E-03
(PID.TID 0000.0001) %MON seaice_hsnow_max             =   7.5629241443371E+00
(PID.TID 0000.0001) %MON seaice_hsnow_min             =   0.0000000000000E+00
(PID.TID 0000.0001) %MON seaice_hsnow_mean            =   2.1514633247780E-02
(PID.TID 0000.0001) %MON seaice_hsnow_sd              =   1.3382949805810E-01
(PID.TID 0000.0001) %MON seaice_hsnow_del2            =   1.2920426553969E-03
(PID.TID 0000.0001) // =======================================================
(PID.TID 0000.0001) // End MONITOR SEAICE statistics
(PID.TID 0000.0001) // =======================================================
 SEAICE_LSR: Residual Initial ipass,Uice,Vice=    1  1.27590113E-02  1.25496182E-02
 SEAICE_LSR (ipass=   1) iters,dU,Resid=    62  9.89260595E-05  2.48409235E-03
 SEAICE_LSR (ipass=   1) iters,dV,Resid=    62  7.25840591E-05  2.73623188E-03
 SEAICE_LSR: Residual Initial ipass,Uice,Vice=    2  1.05574647E-02  1.05007384E-02
 SEAICE_LSR (ipass=   2) iters,dU,Resid=    24  9.98312390E-05  3.10122948E-03
 SEAICE_LSR (ipass=   2) iters,dV,Resid=    24  5.96330246E-05  3.45624939E-03
 cg2d: Sum(rhs),rhsMax =   7.03069506256906E+01  2.98445844233068E-01
 cg2d: Sum(rhs),rhsMax =   7.02460307754185E+01  2.98264329737243E-01
 cg2d: Sum(rhs),rhsMax =   7.01733799937631E+01  2.98090460756727E-01
 cg2d: Sum(rhs),rhsMax =   7.01094846729128E+01  2.97946369717616E-01
 cg2d: Sum(rhs),rhsMax =   7.00209274128000E+01  2.97851974768410E-01
 cg2d: Sum(rhs),rhsMax =   6.99279347829421E+01  2.97823141093236E-01
 cg2d: Sum(rhs),rhsMax =   6.98213570345044E+01  2.97869940999085E-01
 cg2d: Sum(rhs),rhsMax =   6.97166615643702E+01  2.97997357806268E-01
(PID.TID 0000.0001)      cg2d_init_res =   3.48259446982383E-01
(PID.TID 0000.0001)      cg2d_iters(min,last) =      -1      32
(PID.TID 0000.0001)      cg2d_last_res =   2.77438214548320E-05
(PID.TID 0000.0001) // =======================================================
(PID.TID 0000.0001) // Begin MONITOR dynamic field statistics
(PID.TID 0000.0001) // =======================================================
(PID.TID 0000.0001) %MON time_tsnumber                =                    64
(PID.TID 0000.0001) %MON time_secondsf                =   5.7600000000000E+04
(PID.TID 0000.0001) %MON dynstat_eta_max              =   1.0897583020421E+00
(PID.TID 0000.0001) %MON dynstat_eta_min              =  -3.1298119076620E+00
(PID.TID 0000.0001) %MON dynstat_eta_mean             =  -2.2053606655243E-03
(PID.TID 0000.0001) %MON dynstat_eta_sd               =   7.0280488162430E-01
(PID.TID 0000.0001) %MON dynstat_eta_del2             =   8.2975095970569E-05
(PID.TID 0000.0001) %MON dynstat_uvel_max             =   9.3166489517149E-01
(PID.TID 0000.0001) %MON dynstat_uvel_min             =  -1.0309110810640E+00
(PID.TID 0000.0001) %MON dynstat_uvel_mean            =   1.6148287786741E-03
(PID.TID 0000.0001) %MON dynstat_uvel_sd              =   2.1590586593997E-02
(PID.TID 0000.0001) %MON dynstat_uvel_del2            =   1.2998414199556E-05
(PID.TID 0000.0001) %MON dynstat_vvel_max             =   8.8414358466079E-01
(PID.TID 0000.0001) %MON dynstat_vvel_min             =  -9.5157974919178E-01
(PID.TID 0000.0001) %MON dynstat_vvel_mean            =   1.6259739446274E-03
(PID.TID 0000.0001) %MON dynstat_vvel_sd              =   2.2886288105556E-02
(PID.TID 0000.0001) %MON dynstat_vvel_del2            =   1.3292710685622E-05
(PID.TID 0000.0001) %MON dynstat_wvel_max             =   4.2067360933808E-03
(PID.TID 0000.0001) %MON dynstat_wvel_min             =  -2.5278816700540E-03
(PID.TID 0000.0001) %MON dynstat_wvel_mean            =   7.0552720531398E-08
(PID.TID 0000.0001) %MON dynstat_wvel_sd              =   3.3592948941421E-05
(PID.TID 0000.0001) %MON dynstat_wvel_del2            =   5.3160117841830E-08
(PID.TID 0000.0001) %MON dynstat_theta_max            =   3.2652704748546E+01
(PID.TID 0000.0001) %MON dynstat_theta_min            =  -2.0422931471546E+00
(PID.TID 0000.0001) %MON dynstat_theta_mean           =   3.5905187201965E+00
(PID.TID 0000.0001) %MON dynstat_theta_sd             =   4.4362445557881E+00
(PID.TID 0000.0001) %MON dynstat_theta_del2           =   1.0572631766581E-04
(PID.TID 0000.0001) %MON dynstat_salt_max             =   4.0711527000592E+01
(PID.TID 0000.0001) %MON dynstat_salt_min             =   1.8871597922431E+01
(PID.TID 0000.0001) %MON dynstat_salt_mean            =   3.4725627036604E+01
(PID.TID 0000.0001) %MON dynstat_salt_sd              =   3.7713748584979E-01
(PID.TID 0000.0001) %MON dynstat_salt_del2            =   2.5772074310512E-05
(PID.TID 0000.0001) %MON dynstat_sst_max              =   3.2652704748546E+01
(PID.TID 0000.0001) %MON dynstat_sst_min              =  -1.8990216448452E+00
(PID.TID 0000.0001) %MON dynstat_sst_mean             =   1.8480360886882E+01
(PID.TID 0000.0001) %MON dynstat_sst_sd               =   1.0108465443441E+01
(PID.TID 0000.0001) %MON dynstat_sst_del2             =   8.6006882839560E-04
(PID.TID 0000.0001) %MON dynstat_sss_max              =   3.9420086848739E+01
(PID.TID 0000.0001) %MON dynstat_sss_min              =   1.8871597922431E+01
(PID.TID 0000.0001) %MON dynstat_sss_mean             =   3.4684257395663E+01
(PID.TID 0000.0001) %MON dynstat_sss_sd               =   1.1235873579040E+00
(PID.TID 0000.0001) %MON dynstat_sss_del2             =   3.6797771786879E-04
(PID.TID 0000.0001) %MON forcing_qnet_max             =   1.1332692871094E+03
(PID.TID 0000.0001) %MON forcing_qnet_min             =  -8.0916785410866E+02
(PID.TID 0000.0001) %MON forcing_qnet_mean            =   2.4767776262028E+01
(PID.TID 0000.0001) %MON forcing_qnet_sd              =   1.9675873430128E+02
(PID.TID 0000.0001) %MON forcing_qnet_del2            =   3.8597908246873E-01
(PID.TID 0000.0001) %MON forcing_qsw_max              =   0.0000000000000E+00
(PID.TID 0000.0001) %MON forcing_qsw_min              =  -1.0540834250731E+02
(PID.TID 0000.0001) %MON forcing_qsw_mean             =  -1.5908060338134E+01
(PID.TID 0000.0001) %MON forcing_qsw_sd               =   2.7629739963392E+01
(PID.TID 0000.0001) %MON forcing_qsw_del2             =   2.2732537413516E-02
(PID.TID 0000.0001) %MON forcing_empmr_max            =   1.9873047713190E-03
(PID.TID 0000.0001) %MON forcing_empmr_min            =  -2.6775444857776E-03
(PID.TID 0000.0001) %MON forcing_empmr_mean           =  -3.7865508959162E-06
(PID.TID 0000.0001) %MON forcing_empmr_sd             =   1.4186934042733E-04
(PID.TID 0000.0001) %MON forcing_empmr_del2           =   5.6592381072391E-07
(PID.TID 0000.0001) %MON forcing_fu_max               =   1.5773584560429E+00
(PID.TID 0000.0001) %MON forcing_fu_min               =  -1.0762848015068E+00
(PID.TID 0000.0001) %MON forcing_fu_mean              =   9.9384728464409E-03
(PID.TID 0000.0001) %MON forcing_fu_sd                =   1.0730163486799E-01
(PID.TID 0000.0001) %MON forcing_fu_del2              =   1.7268265800005E-04
(PID.TID 0000.0001) %MON forcing_fv_max               =   1.0615395453790E+00
(PID.TID 0000.0001) %MON forcing_fv_min               =  -8.1985820817173E-01
(PID.TID 0000.0001) %MON forcing_fv_mean              =  -9.6865102499142E-03
(PID.TID 0000.0001) %MON forcing_fv_sd                =   1.0528245023926E-01
(PID.TID 0000.0001) %MON forcing_fv_del2              =   1.5615695063107E-04
(PID.TID 0000.0001) %MON trAdv_CFL_u_max              =   2.1286640750158E-02
(PID.TID 0000.0001) %MON trAdv_CFL_v_max              =   1.9520932121115E-02
(PID.TID 0000.0001) %MON trAdv_CFL_w_max              =   8.0072790002436E-02
(PID.TID 0000.0001) %MON advcfl_uvel_max              =   1.6888867396255E-02
(PID.TID 0000.0001) %MON advcfl_vvel_max              =   1.9319519875833E-02
(PID.TID 0000.0001) %MON advcfl_wvel_max              =   8.3451667152393E-02
(PID.TID 0000.0001) %MON advcfl_W_hf_max              =   8.8842864884468E-02
(PID.TID 0000.0001) %MON pe_b_mean                    =   6.4972914815666E-04
(PID.TID 0000.0001) %MON ke_max                       =   4.9577485027942E-01
(PID.TID 0000.0001) %MON ke_mean                      =   4.7987347596456E-04
(PID.TID 0000.0001) %MON ke_vol                       =   1.3349970862039E+18
(PID.TID 0000.0001) %MON vort_r_min                   =  -3.0381664516516E-05
(PID.TID 0000.0001) %MON vort_r_max                   =   3.1774299369273E-05
(PID.TID 0000.0001) %MON vort_a_mean                  =  -1.9727864647440E-05
(PID.TID 0000.0001) %MON vort_a_sd                    =   7.4543336759033E-05
(PID.TID 0000.0001) %MON vort_p_mean                  =  -2.1760542967761E-05
(PID.TID 0000.0001) %MON vort_p_sd                    =   9.7245341274589E-05
(PID.TID 0000.0001) %MON surfExpan_theta_mean         =  -2.7422043184072E-06
(PID.TID 0000.0001) %MON surfExpan_salt_mean          =  -2.5967211639707E-07
(PID.TID 0000.0001) // =======================================================
(PID.TID 0000.0001) // End MONITOR dynamic field statistics
(PID.TID 0000.0001) // =======================================================
(PID.TID 0000.0001) // =======================================================
(PID.TID 0000.0001) // Begin MONITOR SEAICE statistics
(PID.TID 0000.0001) // =======================================================
(PID.TID 0000.0001) %MON seaice_tsnumber              =                    64
(PID.TID 0000.0001) %MON seaice_time_sec              =   5.7600000000000E+04
(PID.TID 0000.0001) %MON seaice_uice_max              =   6.8577390474575E-01
(PID.TID 0000.0001) %MON seaice_uice_min              =  -7.9825928820494E-01
(PID.TID 0000.0001) %MON seaice_uice_mean             =  -5.6274250914251E-04
(PID.TID 0000.0001) %MON seaice_uice_sd               =   1.4378631346427E-01
(PID.TID 0000.0001) %MON seaice_uice_del2             =   2.8035271006289E-04
(PID.TID 0000.0001) %MON seaice_vice_max              =   7.8672402313867E-01
(PID.TID 0000.0001) %MON seaice_vice_min              =  -9.1858545410736E-01
(PID.TID 0000.0001) %MON seaice_vice_mean             =  -1.6325759950802E-02
(PID.TID 0000.0001) %MON seaice_vice_sd               =   1.5500470170750E-01
(PID.TID 0000.0001) %MON seaice_vice_del2             =   2.5025462125133E-04
(PID.TID 0000.0001) %MON seaice_area_max              =   1.0062766461440E+00
(PID.TID 0000.0001) %MON seaice_area_min              =   0.0000000000000E+00
(PID.TID 0000.0001) %MON seaice_area_mean             =   6.3123796707271E-02
(PID.TID 0000.0001) %MON seaice_area_sd               =   2.2334804757066E-01
(PID.TID 0000.0001) %MON seaice_area_del2             =   9.2090248933165E-04
(PID.TID 0000.0001) %MON seaice_heff_max              =   2.2890175858462E+01
(PID.TID 0000.0001) %MON seaice_heff_min              =   0.0000000000000E+00
(PID.TID 0000.0001) %MON seaice_heff_mean             =   1.9399175393079E-01
(PID.TID 0000.0001) %MON seaice_heff_sd               =   1.0046099936482E+00
(PID.TID 0000.0001) %MON seaice_heff_del2             =   4.9513508351089E-03
(PID.TID 0000.0001) %MON seaice_hsnow_max             =   7.5606711323550E+00
(PID.TID 0000.0001) %MON seaice_hsnow_min             =   0.0000000000000E+00
(PID.TID 0000.0001) %MON seaice_hsnow_mean            =   2.1509728971494E-02
(PID.TID 0000.0001) %MON seaice_hsnow_sd              =   1.3354927136682E-01
(PID.TID 0000.0001) %MON seaice_hsnow_del2            =   1.2792342233702E-03
(PID.TID 0000.0001) // =======================================================
(PID.TID 0000.0001) // End MONITOR SEAICE statistics
(PID.TID 0000.0001) // =======================================================
 SEAICE_LSR: Residual Initial ipass,Uice,Vice=    1  8.84009805E-03  9.63123593E-03
 SEAICE_LSR (ipass=   1) iters,dU,Resid=    42  9.88387956E-05  1.39075986E-03
 SEAICE_LSR (ipass=   1) iters,dV,Resid=    42  7.78311776E-05  2.03846670E-03
 SEAICE_LSR: Residual Initial ipass,Uice,Vice=    2  6.93297316E-03  7.70199811E-03
 SEAICE_LSR (ipass=   2) iters,dU,Resid=    16  9.93163385E-05  1.61647837E-03
 SEAICE_LSR (ipass=   2) iters,dV,Resid=    16  9.08229781E-05  2.46226151E-03
 cg2d: Sum(rhs),rhsMax =   6.96128632654624E+01  2.98204206411597E-01
 cg2d: Sum(rhs),rhsMax =   6.94823402293084E+01  2.98485019148225E-01
 cg2d: Sum(rhs),rhsMax =   6.93415202686854E+01  2.98829836454110E-01
 cg2d: Sum(rhs),rhsMax =   6.91998392590370E+01  2.99225850632462E-01
 cg2d: Sum(rhs),rhsMax =   6.90496312573062E+01  2.99657084366343E-01
 cg2d: Sum(rhs),rhsMax =   6.88922562609589E+01  3.00107902543662E-01
 cg2d: Sum(rhs),rhsMax =   6.87413833411920E+01  3.00562185042139E-01
 cg2d: Sum(rhs),rhsMax =   6.85886272434753E+01  3.01005593144337E-01
(PID.TID 0000.0001)      cg2d_init_res =   3.23620902420650E-01
(PID.TID 0000.0001)      cg2d_iters(min,last) =      -1      32
(PID.TID 0000.0001)      cg2d_last_res =   2.28125142358816E-05
(PID.TID 0000.0001) // =======================================================
(PID.TID 0000.0001) // Begin MONITOR dynamic field statistics
(PID.TID 0000.0001) // =======================================================
(PID.TID 0000.0001) %MON time_tsnumber                =                    72
(PID.TID 0000.0001) %MON time_secondsf                =   6.4800000000000E+04
(PID.TID 0000.0001) %MON dynstat_eta_max              =   1.0826977737612E+00
(PID.TID 0000.0001) %MON dynstat_eta_min              =  -2.9862197887865E+00
(PID.TID 0000.0001) %MON dynstat_eta_mean             =  -2.1696773372519E-03
(PID.TID 0000.0001) %MON dynstat_eta_sd               =   6.9721945541806E-01
(PID.TID 0000.0001) %MON dynstat_eta_del2             =   8.0344824036258E-05
(PID.TID 0000.0001) %MON dynstat_uvel_max             =   9.1092514543683E-01
(PID.TID 0000.0001) %MON dynstat_uvel_min             =  -1.0170511830336E+00
(PID.TID 0000.0001) %MON dynstat_uvel_mean            =   1.4189884162290E-03
(PID.TID 0000.0001) %MON dynstat_uvel_sd              =   2.1466790386338E-02
(PID.TID 0000.0001) %MON dynstat_uvel_del2            =   1.2959219697183E-05
(PID.TID 0000.0001) %MON dynstat_vvel_max             =   8.6833900941134E-01
(PID.TID 0000.0001) %MON dynstat_vvel_min             =  -9.0175785452541E-01
(PID.TID 0000.0001) %MON dynstat_vvel_mean            =   1.6759404097887E-03
(PID.TID 0000.0001) %MON dynstat_vvel_sd              =   2.2797384532428E-02
(PID.TID 0000.0001) %MON dynstat_vvel_del2            =   1.3072147902362E-05
(PID.TID 0000.0001) %MON dynstat_wvel_max             =   4.0896872036558E-03
(PID.TID 0000.0001) %MON dynstat_wvel_min             =  -2.4704628952938E-03
(PID.TID 0000.0001) %MON dynstat_wvel_mean            =   5.1417182374665E-08
(PID.TID 0000.0001) %MON dynstat_wvel_sd              =   3.2754149993795E-05
(PID.TID 0000.0001) %MON dynstat_wvel_del2            =   5.2333804883437E-08
(PID.TID 0000.0001) %MON dynstat_theta_max            =   3.2642806433005E+01
(PID.TID 0000.0001) %MON dynstat_theta_min            =  -2.0422816510167E+00
(PID.TID 0000.0001) %MON dynstat_theta_mean           =   3.5905108698273E+00
(PID.TID 0000.0001) %MON dynstat_theta_sd             =   4.4362065922828E+00
(PID.TID 0000.0001) %MON dynstat_theta_del2           =   1.0520289023762E-04
(PID.TID 0000.0001) %MON dynstat_salt_max             =   4.0711528090723E+01
(PID.TID 0000.0001) %MON dynstat_salt_min             =   1.8873060219938E+01
(PID.TID 0000.0001) %MON dynstat_salt_mean            =   3.4725621530320E+01
(PID.TID 0000.0001) %MON dynstat_salt_sd              =   3.7711296899462E-01
(PID.TID 0000.0001) %MON dynstat_salt_del2            =   2.5614475769169E-05
(PID.TID 0000.0001) %MON dynstat_sst_max              =   3.2622685222893E+01
(PID.TID 0000.0001) %MON dynstat_sst_min              =  -1.8935725859154E+00
(PID.TID 0000.0001) %MON dynstat_sst_mean             =   1.8481499866129E+01
(PID.TID 0000.0001) %MON dynstat_sst_sd               =   1.0110069107168E+01
(PID.TID 0000.0001) %MON dynstat_sst_del2             =   8.5724578971047E-04
(PID.TID 0000.0001) %MON dynstat_sss_max              =   3.9396595775560E+01
(PID.TID 0000.0001) %MON dynstat_sss_min              =   1.8873060219938E+01
(PID.TID 0000.0001) %MON dynstat_sss_mean             =   3.4685113668520E+01
(PID.TID 0000.0001) %MON dynstat_sss_sd               =   1.1245167983132E+00
(PID.TID 0000.0001) %MON dynstat_sss_del2             =   3.6679768826995E-04
(PID.TID 0000.0001) %MON forcing_qnet_max             =   1.8179412841797E+03
(PID.TID 0000.0001) %MON forcing_qnet_min             =  -1.1471754150391E+03
(PID.TID 0000.0001) %MON forcing_qnet_mean            =   1.1257190416336E+01
(PID.TID 0000.0001) %MON forcing_qnet_sd              =   2.0570067302312E+02
(PID.TID 0000.0001) %MON forcing_qnet_del2            =   3.8997150450346E-01
(PID.TID 0000.0001) %MON forcing_qsw_max              =   0.0000000000000E+00
(PID.TID 0000.0001) %MON forcing_qsw_min              =  -1.0937445167449E+02
(PID.TID 0000.0001) %MON forcing_qsw_mean             =  -1.7296607016363E+01
(PID.TID 0000.0001) %MON forcing_qsw_sd               =   2.9272951074657E+01
(PID.TID 0000.0001) %MON forcing_qsw_del2             =   2.2899786036881E-02
(PID.TID 0000.0001) %MON forcing_empmr_max            =   1.8180338665843E-03
(PID.TID 0000.0001) %MON forcing_empmr_min            =  -5.6406757794321E-03
(PID.TID 0000.0001) %MON forcing_empmr_mean           =  -5.5247733059512E-06
(PID.TID 0000.0001) %MON forcing_empmr_sd             =   1.3624543922489E-04
(PID.TID 0000.0001) %MON forcing_empmr_del2           =   6.1218855224341E-07
(PID.TID 0000.0001) %MON forcing_fu_max               =   1.4864757177301E+00
(PID.TID 0000.0001) %MON forcing_fu_min               =  -7.0101582299635E-01
(PID.TID 0000.0001) %MON forcing_fu_mean              =   9.3583242729064E-03
(PID.TID 0000.0001) %MON forcing_fu_sd                =   1.0554860285835E-01
(PID.TID 0000.0001) %MON forcing_fu_del2              =   1.6690022891843E-04
(PID.TID 0000.0001) %MON forcing_fv_max               =   9.1798813794811E-01
(PID.TID 0000.0001) %MON forcing_fv_min               =  -8.4510837070107E-01
(PID.TID 0000.0001) %MON forcing_fv_mean              =  -9.5302402872150E-03
(PID.TID 0000.0001) %MON forcing_fv_sd                =   1.0505531490802E-01
(PID.TID 0000.0001) %MON forcing_fv_del2              =   1.5369621798345E-04
(PID.TID 0000.0001) %MON trAdv_CFL_u_max              =   2.2079394833178E-02
(PID.TID 0000.0001) %MON trAdv_CFL_v_max              =   1.7800720653298E-02
(PID.TID 0000.0001) %MON trAdv_CFL_w_max              =   9.3202030682314E-02
(PID.TID 0000.0001) %MON advcfl_uvel_max              =   1.9158089882744E-02
(PID.TID 0000.0001) %MON advcfl_vvel_max              =   1.5413802542929E-02
(PID.TID 0000.0001) %MON advcfl_wvel_max              =   9.7016040145616E-02
(PID.TID 0000.0001) %MON advcfl_W_hf_max              =   1.0240885923268E-01
(PID.TID 0000.0001) %MON pe_b_mean                    =   6.3944284412443E-04
(PID.TID 0000.0001) %MON ke_max                       =   4.8103456135963E-01
(PID.TID 0000.0001) %MON ke_mean                      =   4.7513803561415E-04
(PID.TID 0000.0001) %MON ke_vol                       =   1.3349970984347E+18
(PID.TID 0000.0001) %MON vort_r_min                   =  -2.9977174928128E-05
(PID.TID 0000.0001) %MON vort_r_max                   =   3.5483773354559E-05
(PID.TID 0000.0001) %MON vort_a_mean                  =  -1.9727864647440E-05
(PID.TID 0000.0001) %MON vort_a_sd                    =   7.4543309591891E-05
(PID.TID 0000.0001) %MON vort_p_mean                  =  -2.1760542455798E-05
(PID.TID 0000.0001) %MON vort_p_sd                    =   9.7245559345836E-05
(PID.TID 0000.0001) %MON surfExpan_theta_mean         =  -2.3906892110158E-06
(PID.TID 0000.0001) %MON surfExpan_salt_mean          =  -1.6169513414557E-07
(PID.TID 0000.0001) // =======================================================
(PID.TID 0000.0001) // End MONITOR dynamic field statistics
(PID.TID 0000.0001) // =======================================================
(PID.TID 0000.0001) // =======================================================
(PID.TID 0000.0001) // Begin MONITOR SEAICE statistics
(PID.TID 0000.0001) // =======================================================
(PID.TID 0000.0001) %MON seaice_tsnumber              =                    72
(PID.TID 0000.0001) %MON seaice_time_sec              =   6.4800000000000E+04
(PID.TID 0000.0001) %MON seaice_uice_max              =   6.9733241716506E-01
(PID.TID 0000.0001) %MON seaice_uice_min              =  -8.1968692782162E-01
(PID.TID 0000.0001) %MON seaice_uice_mean             =  -7.0274911969604E-04
(PID.TID 0000.0001) %MON seaice_uice_sd               =   1.4431698911745E-01
(PID.TID 0000.0001) %MON seaice_uice_del2             =   2.7927092196111E-04
(PID.TID 0000.0001) %MON seaice_vice_max              =   7.5046239701631E-01
(PID.TID 0000.0001) %MON seaice_vice_min              =  -9.1808814428149E-01
(PID.TID 0000.0001) %MON seaice_vice_mean             =  -1.6238102853472E-02
(PID.TID 0000.0001) %MON seaice_vice_sd               =   1.5545727326283E-01
(PID.TID 0000.0001) %MON seaice_vice_del2             =   2.4908965937175E-04
(PID.TID 0000.0001) %MON seaice_area_max              =   1.0057790869723E+00
(PID.TID 0000.0001) %MON seaice_area_min              =   0.0000000000000E+00
(PID.TID 0000.0001) %MON seaice_area_mean             =   6.2936222021762E-02
(PID.TID 0000.0001) %MON seaice_area_sd               =   2.2319442036155E-01
(PID.TID 0000.0001) %MON seaice_area_del2             =   9.1726046166545E-04
(PID.TID 0000.0001) %MON seaice_heff_max              =   2.2883992637395E+01
(PID.TID 0000.0001) %MON seaice_heff_min              =   0.0000000000000E+00
(PID.TID 0000.0001) %MON seaice_heff_mean             =   1.9395971876066E-01
(PID.TID 0000.0001) %MON seaice_heff_sd               =   1.0045510392022E+00
(PID.TID 0000.0001) %MON seaice_heff_del2             =   4.9211428271569E-03
(PID.TID 0000.0001) %MON seaice_hsnow_max             =   7.5586287959402E+00
(PID.TID 0000.0001) %MON seaice_hsnow_min             =   0.0000000000000E+00
(PID.TID 0000.0001) %MON seaice_hsnow_mean            =   2.1499437803649E-02
(PID.TID 0000.0001) %MON seaice_hsnow_sd              =   1.3326952727104E-01
(PID.TID 0000.0001) %MON seaice_hsnow_del2            =   1.2669384665771E-03
(PID.TID 0000.0001) // =======================================================
(PID.TID 0000.0001) // End MONITOR SEAICE statistics
(PID.TID 0000.0001) // =======================================================
 SEAICE_LSR: Residual Initial ipass,Uice,Vice=    1  7.06279730E-03  7.15616640E-03
 SEAICE_LSR (ipass=   1) iters,dU,Resid=    30  9.71469663E-05  1.06776474E-03
 SEAICE_LSR (ipass=   1) iters,dV,Resid=    30  8.82158050E-05  1.48641039E-03
 SEAICE_LSR: Residual Initial ipass,Uice,Vice=    2  5.97273504E-03  6.29276146E-03
 SEAICE_LSR (ipass=   2) iters,dU,Resid=    24  9.54829396E-05  1.04485615E-03
 SEAICE_LSR (ipass=   2) iters,dV,Resid=    24  8.64190789E-05  1.44571322E-03
 cg2d: Sum(rhs),rhsMax =   6.84360474041544E+01  3.01425061699979E-01
 cg2d: Sum(rhs),rhsMax =   6.82648833327386E+01  3.01809517791180E-01
 cg2d: Sum(rhs),rhsMax =   6.80890522273721E+01  3.02149551216846E-01
 cg2d: Sum(rhs),rhsMax =   6.79184666904280E+01  3.02438097793434E-01
 cg2d: Sum(rhs),rhsMax =   6.77573013628649E+01  3.02670334046848E-01
 cg2d: Sum(rhs),rhsMax =   6.75848531389241E+01  3.02842395783544E-01
 cg2d: Sum(rhs),rhsMax =   6.73999287542998E+01  3.02990056113157E-01
 cg2d: Sum(rhs),rhsMax =   6.72197680210692E+01  3.03247404723243E-01
(PID.TID 0000.0001)      cg2d_init_res =   3.05686723574556E-01
(PID.TID 0000.0001)      cg2d_iters(min,last) =      -1      31
(PID.TID 0000.0001)      cg2d_last_res =   2.22797366032618E-05
(PID.TID 0000.0001) // =======================================================
(PID.TID 0000.0001) // Begin MONITOR dynamic field statistics
(PID.TID 0000.0001) // =======================================================
(PID.TID 0000.0001) %MON time_tsnumber                =                    80
(PID.TID 0000.0001) %MON time_secondsf                =   7.2000000000000E+04
(PID.TID 0000.0001) %MON dynstat_eta_max              =   1.0815795470441E+00
(PID.TID 0000.0001) %MON dynstat_eta_min              =  -2.8358350644917E+00
(PID.TID 0000.0001) %MON dynstat_eta_mean             =  -2.1263759482008E-03
(PID.TID 0000.0001) %MON dynstat_eta_sd               =   6.9255154302556E-01
(PID.TID 0000.0001) %MON dynstat_eta_del2             =   7.8431657927858E-05
(PID.TID 0000.0001) %MON dynstat_uvel_max             =   8.8204815671748E-01
(PID.TID 0000.0001) %MON dynstat_uvel_min             =  -9.8788930328651E-01
(PID.TID 0000.0001) %MON dynstat_uvel_mean            =   1.1679445842314E-03
(PID.TID 0000.0001) %MON dynstat_uvel_sd              =   2.1290888364166E-02
(PID.TID 0000.0001) %MON dynstat_uvel_del2            =   1.2909103872907E-05
(PID.TID 0000.0001) %MON dynstat_vvel_max             =   8.6871775920076E-01
(PID.TID 0000.0001) %MON dynstat_vvel_min             =  -8.9824214419882E-01
(PID.TID 0000.0001) %MON dynstat_vvel_mean            =   1.6852780093917E-03
(PID.TID 0000.0001) %MON dynstat_vvel_sd              =   2.2663903981386E-02
(PID.TID 0000.0001) %MON dynstat_vvel_del2            =   1.2828435373739E-05
(PID.TID 0000.0001) %MON dynstat_wvel_max             =   3.6968356721462E-03
(PID.TID 0000.0001) %MON dynstat_wvel_min             =  -2.3066301123368E-03
(PID.TID 0000.0001) %MON dynstat_wvel_mean            =   3.4409667521667E-08
(PID.TID 0000.0001) %MON dynstat_wvel_sd              =   3.2100276888996E-05
(PID.TID 0000.0001) %MON dynstat_wvel_del2            =   5.1248696731270E-08
(PID.TID 0000.0001) %MON dynstat_theta_max            =   3.2635735564933E+01
(PID.TID 0000.0001) %MON dynstat_theta_min            =  -2.0422730857410E+00
(PID.TID 0000.0001) %MON dynstat_theta_mean           =   3.5905087134126E+00
(PID.TID 0000.0001) %MON dynstat_theta_sd             =   4.4361980441667E+00
(PID.TID 0000.0001) %MON dynstat_theta_del2           =   1.0471451287370E-04
(PID.TID 0000.0001) %MON dynstat_salt_max             =   4.0711529030700E+01
(PID.TID 0000.0001) %MON dynstat_salt_min             =   1.8874366222303E+01
(PID.TID 0000.0001) %MON dynstat_salt_mean            =   3.4725616868592E+01
(PID.TID 0000.0001) %MON dynstat_salt_sd              =   3.7709275929554E-01
(PID.TID 0000.0001) %MON dynstat_salt_del2            =   2.5455817326428E-05
(PID.TID 0000.0001) %MON dynstat_sst_max              =   3.2593420886435E+01
(PID.TID 0000.0001) %MON dynstat_sst_min              =  -1.8883327358246E+00
(PID.TID 0000.0001) %MON dynstat_sst_mean             =   1.8483928088079E+01
(PID.TID 0000.0001) %MON dynstat_sst_sd               =   1.0112805673981E+01
(PID.TID 0000.0001) %MON dynstat_sst_del2             =   8.5476565523284E-04
(PID.TID 0000.0001) %MON dynstat_sss_max              =   3.9374214324834E+01
(PID.TID 0000.0001) %MON dynstat_sss_min              =   1.8874366222303E+01
(PID.TID 0000.0001) %MON dynstat_sss_mean             =   3.4685912031915E+01
(PID.TID 0000.0001) %MON dynstat_sss_sd               =   1.1254351198316E+00
(PID.TID 0000.0001) %MON dynstat_sss_del2             =   3.6580835776801E-04
(PID.TID 0000.0001) %MON forcing_qnet_max             =   4.0132241210938E+03
(PID.TID 0000.0001) %MON forcing_qnet_min             =  -8.1309753135723E+02
(PID.TID 0000.0001) %MON forcing_qnet_mean            =   4.6623854049072E-01
(PID.TID 0000.0001) %MON forcing_qnet_sd              =   1.9331308013656E+02
(PID.TID 0000.0001) %MON forcing_qnet_del2            =   4.1506342979440E-01
(PID.TID 0000.0001) %MON forcing_qsw_max              =   0.0000000000000E+00
(PID.TID 0000.0001) %MON forcing_qsw_min              =  -1.1007974042692E+02
(PID.TID 0000.0001) %MON forcing_qsw_mean             =  -1.8868370028609E+01
(PID.TID 0000.0001) %MON forcing_qsw_sd               =   2.8629537524023E+01
(PID.TID 0000.0001) %MON forcing_qsw_del2             =   2.1679162158644E-02
(PID.TID 0000.0001) %MON forcing_empmr_max            =   1.6620551468804E-03
(PID.TID 0000.0001) %MON forcing_empmr_min            =  -1.4878201298416E-02
(PID.TID 0000.0001) %MON forcing_empmr_mean           =  -6.5159245661003E-06
(PID.TID 0000.0001) %MON forcing_empmr_sd             =   1.4426864448944E-04
(PID.TID 0000.0001) %MON forcing_empmr_del2           =   8.6555850191149E-07
(PID.TID 0000.0001) %MON forcing_fu_max               =   1.3945385346943E+00
(PID.TID 0000.0001) %MON forcing_fu_min               =  -6.8159581647294E-01
(PID.TID 0000.0001) %MON forcing_fu_mean              =   9.2074129060804E-03
(PID.TID 0000.0001) %MON forcing_fu_sd                =   1.0370650417638E-01
(PID.TID 0000.0001) %MON forcing_fu_del2              =   1.6155656163219E-04
(PID.TID 0000.0001) %MON forcing_fv_max               =   9.3186827081315E-01
(PID.TID 0000.0001) %MON forcing_fv_min               =  -8.6017631899535E-01
(PID.TID 0000.0001) %MON forcing_fv_mean              =  -9.8622258858195E-03
(PID.TID 0000.0001) %MON forcing_fv_sd                =   1.0440203766530E-01
(PID.TID 0000.0001) %MON forcing_fv_del2              =   1.4965313474551E-04
(PID.TID 0000.0001) %MON trAdv_CFL_u_max              =   2.2726541678387E-02
(PID.TID 0000.0001) %MON trAdv_CFL_v_max              =   1.6635488558394E-02
(PID.TID 0000.0001) %MON trAdv_CFL_w_max              =   1.0666124333732E-01
(PID.TID 0000.0001) %MON advcfl_uvel_max              =   2.0778499470584E-02
(PID.TID 0000.0001) %MON advcfl_vvel_max              =   1.5420525694146E-02
(PID.TID 0000.0001) %MON advcfl_wvel_max              =   1.1104762304956E-01
(PID.TID 0000.0001) %MON advcfl_W_hf_max              =   1.1723061586767E-01
(PID.TID 0000.0001) %MON pe_b_mean                    =   6.3090914569608E-04
(PID.TID 0000.0001) %MON ke_max                       =   4.6211476328306E-01
(PID.TID 0000.0001) %MON ke_mean                      =   4.6828754373950E-04
(PID.TID 0000.0001) %MON ke_vol                       =   1.3349971136269E+18
(PID.TID 0000.0001) %MON vort_r_min                   =  -2.9143491200872E-05
(PID.TID 0000.0001) %MON vort_r_max                   =   3.7282523056272E-05
(PID.TID 0000.0001) %MON vort_a_mean                  =  -1.9727864647440E-05
(PID.TID 0000.0001) %MON vort_a_sd                    =   7.4543267648654E-05
(PID.TID 0000.0001) %MON vort_p_mean                  =  -2.1760541811360E-05
(PID.TID 0000.0001) %MON vort_p_sd                    =   9.7245650858271E-05
(PID.TID 0000.0001) %MON surfExpan_theta_mean         =  -2.0574152695647E-06
(PID.TID 0000.0001) %MON surfExpan_salt_mean          =  -1.1071692652078E-07
(PID.TID 0000.0001) // =======================================================
(PID.TID 0000.0001) // End MONITOR dynamic field statistics
(PID.TID 0000.0001) // =======================================================
(PID.TID 0000.0001) // =======================================================
(PID.TID 0000.0001) // Begin MONITOR SEAICE statistics
(PID.TID 0000.0001) // =======================================================
(PID.TID 0000.0001) %MON seaice_tsnumber              =                    80
(PID.TID 0000.0001) %MON seaice_time_sec              =   7.2000000000000E+04
(PID.TID 0000.0001) %MON seaice_uice_max              =   6.6873124538444E-01
(PID.TID 0000.0001) %MON seaice_uice_min              =  -7.4838230471181E-01
(PID.TID 0000.0001) %MON seaice_uice_mean             =  -1.4867131421424E-03
(PID.TID 0000.0001) %MON seaice_uice_sd               =   1.4337374484131E-01
(PID.TID 0000.0001) %MON seaice_uice_del2             =   2.7176124820945E-04
(PID.TID 0000.0001) %MON seaice_vice_max              =   7.5756632878482E-01
(PID.TID 0000.0001) %MON seaice_vice_min              =  -9.2179134342858E-01
(PID.TID 0000.0001) %MON seaice_vice_mean             =  -1.6956947377584E-02
(PID.TID 0000.0001) %MON seaice_vice_sd               =   1.5515548632405E-01
(PID.TID 0000.0001) %MON seaice_vice_del2             =   2.4894017683861E-04
(PID.TID 0000.0001) %MON seaice_area_max              =   1.0052192222612E+00
(PID.TID 0000.0001) %MON seaice_area_min              =   0.0000000000000E+00
(PID.TID 0000.0001) %MON seaice_area_mean             =   6.2766157915391E-02
(PID.TID 0000.0001) %MON seaice_area_sd               =   2.2304144541951E-01
(PID.TID 0000.0001) %MON seaice_area_del2             =   9.1383457145504E-04
(PID.TID 0000.0001) %MON seaice_heff_max              =   2.2878400274625E+01
(PID.TID 0000.0001) %MON seaice_heff_min              =   0.0000000000000E+00
(PID.TID 0000.0001) %MON seaice_heff_mean             =   1.9391738740066E-01
(PID.TID 0000.0001) %MON seaice_heff_sd               =   1.0044368539473E+00
(PID.TID 0000.0001) %MON seaice_heff_del2             =   4.8935864394610E-03
(PID.TID 0000.0001) %MON seaice_hsnow_max             =   7.5567825707545E+00
(PID.TID 0000.0001) %MON seaice_hsnow_min             =   0.0000000000000E+00
(PID.TID 0000.0001) %MON seaice_hsnow_mean            =   2.1487283957205E-02
(PID.TID 0000.0001) %MON seaice_hsnow_sd              =   1.3300999377039E-01
(PID.TID 0000.0001) %MON seaice_hsnow_del2            =   1.2557741927905E-03
(PID.TID 0000.0001) // =======================================================
(PID.TID 0000.0001) // End MONITOR SEAICE statistics
(PID.TID 0000.0001) // =======================================================
 SEAICE_LSR: Residual Initial ipass,Uice,Vice=    1  6.86335389E-03  6.44383460E-03
 SEAICE_LSR (ipass=   1) iters,dU,Resid=    36  9.80087765E-05  8.09177683E-04
 SEAICE_LSR (ipass=   1) iters,dV,Resid=    36  7.33517596E-05  1.46793817E-03
 SEAICE_LSR: Residual Initial ipass,Uice,Vice=    2  5.24758189E-03  6.04767086E-03
 SEAICE_LSR (ipass=   2) iters,dU,Resid=    20  9.92541155E-05  9.58365627E-04
 SEAICE_LSR (ipass=   2) iters,dV,Resid=    20  8.10497153E-05  1.54482629E-03
 cg2d: Sum(rhs),rhsMax =   6.70511967613770E+01  3.03440554838310E-01
 cg2d: Sum(rhs),rhsMax =   6.68876685751366E+01  3.03566440027519E-01
 cg2d: Sum(rhs),rhsMax =   6.67046651287510E+01  3.03623750215618E-01
 cg2d: Sum(rhs),rhsMax =   6.65218907878963E+01  3.03611059417542E-01
 cg2d: Sum(rhs),rhsMax =   6.63555609673011E+01  3.03529884322527E-01
 cg2d: Sum(rhs),rhsMax =   6.61965066377633E+01  3.03377911433151E-01
 cg2d: Sum(rhs),rhsMax =   6.60471519330462E+01  3.03155588930200E-01
 cg2d: Sum(rhs),rhsMax =   6.58968846012491E+01  3.02864223945875E-01
(PID.TID 0000.0001)      cg2d_init_res =   2.80127652560921E-01
(PID.TID 0000.0001)      cg2d_iters(min,last) =      -1      31
(PID.TID 0000.0001)      cg2d_last_res =   2.53265518229369E-05
(PID.TID 0000.0001) // =======================================================
(PID.TID 0000.0001) // Begin MONITOR dynamic field statistics
(PID.TID 0000.0001) // =======================================================
(PID.TID 0000.0001) %MON time_tsnumber                =                    88
(PID.TID 0000.0001) %MON time_secondsf                =   7.9200000000000E+04
(PID.TID 0000.0001) %MON dynstat_eta_max              =   1.0869762375935E+00
(PID.TID 0000.0001) %MON dynstat_eta_min              =  -2.7354076638143E+00
(PID.TID 0000.0001) %MON dynstat_eta_mean             =  -2.0845289206227E-03
(PID.TID 0000.0001) %MON dynstat_eta_sd               =   6.8879943364636E-01
(PID.TID 0000.0001) %MON dynstat_eta_del2             =   7.7289890030539E-05
(PID.TID 0000.0001) %MON dynstat_uvel_max             =   9.1512868196749E-01
(PID.TID 0000.0001) %MON dynstat_uvel_min             =  -9.4824138829013E-01
(PID.TID 0000.0001) %MON dynstat_uvel_mean            =   9.6376794095919E-04
(PID.TID 0000.0001) %MON dynstat_uvel_sd              =   2.1100478030033E-02
(PID.TID 0000.0001) %MON dynstat_uvel_del2            =   1.2828892449353E-05
(PID.TID 0000.0001) %MON dynstat_vvel_max             =   8.6315781201584E-01
(PID.TID 0000.0001) %MON dynstat_vvel_min             =  -8.9482156747349E-01
(PID.TID 0000.0001) %MON dynstat_vvel_mean            =   1.6267325677632E-03
(PID.TID 0000.0001) %MON dynstat_vvel_sd              =   2.2469843608760E-02
(PID.TID 0000.0001) %MON dynstat_vvel_del2            =   1.2576897768512E-05
(PID.TID 0000.0001) %MON dynstat_wvel_max             =   3.7135936115509E-03
(PID.TID 0000.0001) %MON dynstat_wvel_min             =  -2.0353450439912E-03
(PID.TID 0000.0001) %MON dynstat_wvel_mean            =   3.5586998396424E-08
(PID.TID 0000.0001) %MON dynstat_wvel_sd              =   3.1484353203479E-05
(PID.TID 0000.0001) %MON dynstat_wvel_del2            =   4.9941661071088E-08
(PID.TID 0000.0001) %MON dynstat_theta_max            =   3.2617553899525E+01
(PID.TID 0000.0001) %MON dynstat_theta_min            =  -2.0422694090429E+00
(PID.TID 0000.0001) %MON dynstat_theta_mean           =   3.5905110011924E+00
(PID.TID 0000.0001) %MON dynstat_theta_sd             =   4.4362136812231E+00
(PID.TID 0000.0001) %MON dynstat_theta_del2           =   1.0424892977116E-04
(PID.TID 0000.0001) %MON dynstat_salt_max             =   4.0711529947064E+01
(PID.TID 0000.0001) %MON dynstat_salt_min             =   1.8876143461107E+01
(PID.TID 0000.0001) %MON dynstat_salt_mean            =   3.4725612884524E+01
(PID.TID 0000.0001) %MON dynstat_salt_sd              =   3.7707565843648E-01
(PID.TID 0000.0001) %MON dynstat_salt_del2            =   2.5297265354645E-05
(PID.TID 0000.0001) %MON dynstat_sst_max              =   3.2571370381423E+01
(PID.TID 0000.0001) %MON dynstat_sst_min              =  -1.8836207700751E+00
(PID.TID 0000.0001) %MON dynstat_sst_mean             =   1.8486332217483E+01
(PID.TID 0000.0001) %MON dynstat_sst_sd               =   1.0116184342476E+01
(PID.TID 0000.0001) %MON dynstat_sst_del2             =   8.5181641442915E-04
(PID.TID 0000.0001) %MON dynstat_sss_max              =   3.9353026422495E+01
(PID.TID 0000.0001) %MON dynstat_sss_min              =   1.8876143461107E+01
(PID.TID 0000.0001) %MON dynstat_sss_mean             =   3.4686583208159E+01
(PID.TID 0000.0001) %MON dynstat_sss_sd               =   1.1262627126053E+00
(PID.TID 0000.0001) %MON dynstat_sss_del2             =   3.6491120296737E-04
(PID.TID 0000.0001) %MON forcing_qnet_max             =   1.2991953620331E+03
(PID.TID 0000.0001) %MON forcing_qnet_min             =  -9.1358810678554E+02
(PID.TID 0000.0001) %MON forcing_qnet_mean            =  -9.0771663303772E+00
(PID.TID 0000.0001) %MON forcing_qnet_sd              =   1.8481788558680E+02
(PID.TID 0000.0001) %MON forcing_qnet_del2            =   3.4402187835845E-01
(PID.TID 0000.0001) %MON forcing_qsw_max              =   0.0000000000000E+00
(PID.TID 0000.0001) %MON forcing_qsw_min              =  -1.0995537651820E+02
(PID.TID 0000.0001) %MON forcing_qsw_mean             =  -2.0437512894363E+01
(PID.TID 0000.0001) %MON forcing_qsw_sd               =   2.9903434173128E+01
(PID.TID 0000.0001) %MON forcing_qsw_del2             =   2.0013767445319E-02
(PID.TID 0000.0001) %MON forcing_empmr_max            =   1.5211317222565E-03
(PID.TID 0000.0001) %MON forcing_empmr_min            =  -4.0536304004490E-03
(PID.TID 0000.0001) %MON forcing_empmr_mean           =  -5.4347613998422E-06
(PID.TID 0000.0001) %MON forcing_empmr_sd             =   1.2653579625947E-04
(PID.TID 0000.0001) %MON forcing_empmr_del2           =   5.3314041375847E-07
(PID.TID 0000.0001) %MON forcing_fu_max               =   1.3546582397039E+00
(PID.TID 0000.0001) %MON forcing_fu_min               =  -6.9918725373317E-01
(PID.TID 0000.0001) %MON forcing_fu_mean              =   8.8838349046514E-03
(PID.TID 0000.0001) %MON forcing_fu_sd                =   1.0198790045468E-01
(PID.TID 0000.0001) %MON forcing_fu_del2              =   1.5873630107299E-04
(PID.TID 0000.0001) %MON forcing_fv_max               =   1.0030808088714E+00
(PID.TID 0000.0001) %MON forcing_fv_min               =  -8.7965984880955E-01
(PID.TID 0000.0001) %MON forcing_fv_mean              =  -1.0230709571194E-02
(PID.TID 0000.0001) %MON forcing_fv_sd                =   1.0442726108617E-01
(PID.TID 0000.0001) %MON forcing_fv_del2              =   1.4741257882256E-04
(PID.TID 0000.0001) %MON trAdv_CFL_u_max              =   2.2928861015605E-02
(PID.TID 0000.0001) %MON trAdv_CFL_v_max              =   1.5945038757453E-02
(PID.TID 0000.0001) %MON trAdv_CFL_w_max              =   1.1419247238089E-01
(PID.TID 0000.0001) %MON advcfl_uvel_max              =   2.1557780818387E-02
(PID.TID 0000.0001) %MON advcfl_vvel_max              =   1.5321831604477E-02
(PID.TID 0000.0001) %MON advcfl_wvel_max              =   1.1890325671306E-01
(PID.TID 0000.0001) %MON advcfl_W_hf_max              =   1.2554765805284E-01
(PID.TID 0000.0001) %MON pe_b_mean                    =   6.2409120409339E-04
(PID.TID 0000.0001) %MON ke_max                       =   4.4442764190636E-01
(PID.TID 0000.0001) %MON ke_mean                      =   4.5986874239265E-04
(PID.TID 0000.0001) %MON ke_vol                       =   1.3349971289472E+18
(PID.TID 0000.0001) %MON vort_r_min                   =  -2.7928509194481E-05
(PID.TID 0000.0001) %MON vort_r_max                   =   3.7582684799410E-05
(PID.TID 0000.0001) %MON vort_a_mean                  =  -1.9727864647440E-05
(PID.TID 0000.0001) %MON vort_a_sd                    =   7.4543217701590E-05
(PID.TID 0000.0001) %MON vort_p_mean                  =  -2.1760541186420E-05
(PID.TID 0000.0001) %MON vort_p_sd                    =   9.7245773693692E-05
(PID.TID 0000.0001) %MON surfExpan_theta_mean         =  -1.7467961827738E-06
(PID.TID 0000.0001) %MON surfExpan_salt_mean          =  -1.2152295727107E-07
(PID.TID 0000.0001) // =======================================================
(PID.TID 0000.0001) // End MONITOR dynamic field statistics
(PID.TID 0000.0001) // =======================================================
(PID.TID 0000.0001) // =======================================================
(PID.TID 0000.0001) // Begin MONITOR SEAICE statistics
(PID.TID 0000.0001) // =======================================================
(PID.TID 0000.0001) %MON seaice_tsnumber              =                    88
(PID.TID 0000.0001) %MON seaice_time_sec              =   7.9200000000000E+04
(PID.TID 0000.0001) %MON seaice_uice_max              =   6.3464463514143E-01
(PID.TID 0000.0001) %MON seaice_uice_min              =  -6.6437826273349E-01
(PID.TID 0000.0001) %MON seaice_uice_mean             =  -2.5549356317065E-03
(PID.TID 0000.0001) %MON seaice_uice_sd               =   1.4174276977796E-01
(PID.TID 0000.0001) %MON seaice_uice_del2             =   2.6513224291467E-04
(PID.TID 0000.0001) %MON seaice_vice_max              =   7.6922050389502E-01
(PID.TID 0000.0001) %MON seaice_vice_min              =  -9.1973363861320E-01
(PID.TID 0000.0001) %MON seaice_vice_mean             =  -1.8436893257467E-02
(PID.TID 0000.0001) %MON seaice_vice_sd               =   1.5359515911468E-01
(PID.TID 0000.0001) %MON seaice_vice_del2             =   2.4617495531599E-04
(PID.TID 0000.0001) %MON seaice_area_max              =   1.0046080600409E+00
(PID.TID 0000.0001) %MON seaice_area_min              =   0.0000000000000E+00
(PID.TID 0000.0001) %MON seaice_area_mean             =   6.2612607578867E-02
(PID.TID 0000.0001) %MON seaice_area_sd               =   2.2288985543335E-01
(PID.TID 0000.0001) %MON seaice_area_del2             =   9.1065977785730E-04
(PID.TID 0000.0001) %MON seaice_heff_max              =   2.2873277052922E+01
(PID.TID 0000.0001) %MON seaice_heff_min              =   0.0000000000000E+00
(PID.TID 0000.0001) %MON seaice_heff_mean             =   1.9386805831876E-01
(PID.TID 0000.0001) %MON seaice_heff_sd               =   1.0042975837047E+00
(PID.TID 0000.0001) %MON seaice_heff_del2             =   4.8694237533878E-03
(PID.TID 0000.0001) %MON seaice_hsnow_max             =   7.5550908244945E+00
(PID.TID 0000.0001) %MON seaice_hsnow_min             =   0.0000000000000E+00
(PID.TID 0000.0001) %MON seaice_hsnow_mean            =   2.1479276940587E-02
(PID.TID 0000.0001) %MON seaice_hsnow_sd              =   1.3279126474700E-01
(PID.TID 0000.0001) %MON seaice_hsnow_del2            =   1.2459816540474E-03
(PID.TID 0000.0001) // =======================================================
(PID.TID 0000.0001) // End MONITOR SEAICE statistics
(PID.TID 0000.0001) // =======================================================
 SEAICE_LSR: Residual Initial ipass,Uice,Vice=    1  6.66642601E-03  6.61166568E-03
 SEAICE_LSR (ipass=   1) iters,dU,Resid=    38  6.52219018E-05  1.30392308E-03
 SEAICE_LSR (ipass=   1) iters,dV,Resid=    38  9.89386959E-05  1.47817216E-03
 SEAICE_LSR: Residual Initial ipass,Uice,Vice=    2  5.17864878E-03  5.92640713E-03
 SEAICE_LSR (ipass=   2) iters,dU,Resid=    34  4.84540621E-05  1.27726711E-03
 SEAICE_LSR (ipass=   2) iters,dV,Resid=    34  9.76690108E-05  1.37152527E-03
 cg2d: Sum(rhs),rhsMax =   6.57396602548039E+01  3.02506097912612E-01
 cg2d: Sum(rhs),rhsMax =   6.55809824957198E+01  3.02083489438642E-01
 cg2d: Sum(rhs),rhsMax =   6.54136962562042E+01  3.01597058076512E-01
 cg2d: Sum(rhs),rhsMax =   6.52480074778299E+01  3.01053656550568E-01
 cg2d: Sum(rhs),rhsMax =   6.50877565177106E+01  3.00455610156761E-01
 cg2d: Sum(rhs),rhsMax =   6.49358039513001E+01  2.99810621066352E-01
 cg2d: Sum(rhs),rhsMax =   6.48046189688415E+01  2.99123358049899E-01
 cg2d: Sum(rhs),rhsMax =   6.46671432335910E+01  2.98402776589299E-01
(PID.TID 0000.0001)      cg2d_init_res =   2.69591100422713E-01
(PID.TID 0000.0001)      cg2d_iters(min,last) =      -1      31
(PID.TID 0000.0001)      cg2d_last_res =   2.76718179296679E-05
(PID.TID 0000.0001) // =======================================================
(PID.TID 0000.0001) // Begin MONITOR dynamic field statistics
(PID.TID 0000.0001) // =======================================================
(PID.TID 0000.0001) %MON time_tsnumber                =                    96
(PID.TID 0000.0001) %MON time_secondsf                =   8.6400000000000E+04
(PID.TID 0000.0001) %MON dynstat_eta_max              =   1.0846040426653E+00
(PID.TID 0000.0001) %MON dynstat_eta_min              =  -2.6599378557568E+00
(PID.TID 0000.0001) %MON dynstat_eta_mean             =  -2.0456282736302E-03
(PID.TID 0000.0001) %MON dynstat_eta_sd               =   6.8549374236059E-01
(PID.TID 0000.0001) %MON dynstat_eta_del2             =   7.5419300250251E-05
(PID.TID 0000.0001) %MON dynstat_uvel_max             =   9.0068072113042E-01
(PID.TID 0000.0001) %MON dynstat_uvel_min             =  -9.1783587790738E-01
(PID.TID 0000.0001) %MON dynstat_uvel_mean            =   8.6090364815030E-04
(PID.TID 0000.0001) %MON dynstat_uvel_sd              =   2.0956645963358E-02
(PID.TID 0000.0001) %MON dynstat_uvel_del2            =   1.2693969832505E-05
(PID.TID 0000.0001) %MON dynstat_vvel_max             =   8.4980303526171E-01
(PID.TID 0000.0001) %MON dynstat_vvel_min             =  -8.8961908203776E-01
(PID.TID 0000.0001) %MON dynstat_vvel_mean            =   1.5091166360727E-03
(PID.TID 0000.0001) %MON dynstat_vvel_sd              =   2.2237887047170E-02
(PID.TID 0000.0001) %MON dynstat_vvel_del2            =   1.2299665908382E-05
(PID.TID 0000.0001) %MON dynstat_wvel_max             =   3.8632912993896E-03
(PID.TID 0000.0001) %MON dynstat_wvel_min             =  -1.9112959237219E-03
(PID.TID 0000.0001) %MON dynstat_wvel_mean            =   3.6294218937510E-08
(PID.TID 0000.0001) %MON dynstat_wvel_sd              =   3.0781692421297E-05
(PID.TID 0000.0001) %MON dynstat_wvel_del2            =   4.8508628309792E-08
(PID.TID 0000.0001) %MON dynstat_theta_max            =   3.2571272208139E+01
(PID.TID 0000.0001) %MON dynstat_theta_min            =  -2.0422551773295E+00
(PID.TID 0000.0001) %MON dynstat_theta_mean           =   3.5905189123983E+00
(PID.TID 0000.0001) %MON dynstat_theta_sd             =   4.4362585900770E+00
(PID.TID 0000.0001) %MON dynstat_theta_del2           =   1.0380312328920E-04
(PID.TID 0000.0001) %MON dynstat_salt_max             =   4.0711531033302E+01
(PID.TID 0000.0001) %MON dynstat_salt_min             =   1.8876463879911E+01
(PID.TID 0000.0001) %MON dynstat_salt_mean            =   3.4725609369626E+01
(PID.TID 0000.0001) %MON dynstat_salt_sd              =   3.7706051527924E-01
(PID.TID 0000.0001) %MON dynstat_salt_del2            =   2.5142342038580E-05
(PID.TID 0000.0001) %MON dynstat_sst_max              =   3.2571252271316E+01
(PID.TID 0000.0001) %MON dynstat_sst_min              =  -1.8793533383582E+00
(PID.TID 0000.0001) %MON dynstat_sst_mean             =   1.8488948449469E+01
(PID.TID 0000.0001) %MON dynstat_sst_sd               =   1.0119954186961E+01
(PID.TID 0000.0001) %MON dynstat_sst_del2             =   8.4870815090778E-04
(PID.TID 0000.0001) %MON dynstat_sss_max              =   3.9333521307414E+01
(PID.TID 0000.0001) %MON dynstat_sss_min              =   1.8876463879911E+01
(PID.TID 0000.0001) %MON dynstat_sss_mean             =   3.4687148497379E+01
(PID.TID 0000.0001) %MON dynstat_sss_sd               =   1.1270061347332E+00
(PID.TID 0000.0001) %MON dynstat_sss_del2             =   3.6404265770051E-04
(PID.TID 0000.0001) %MON forcing_qnet_max             =   2.2776837853203E+03
(PID.TID 0000.0001) %MON forcing_qnet_min             =  -8.0536968994141E+02
(PID.TID 0000.0001) %MON forcing_qnet_mean            =  -2.3976561974643E+01
(PID.TID 0000.0001) %MON forcing_qnet_sd              =   2.0582304531535E+02
(PID.TID 0000.0001) %MON forcing_qnet_del2            =   3.6760359332635E-01
(PID.TID 0000.0001) %MON forcing_qsw_max              =   0.0000000000000E+00
(PID.TID 0000.0001) %MON forcing_qsw_min              =  -1.1119628861911E+02
(PID.TID 0000.0001) %MON forcing_qsw_mean             =  -2.2780124558383E+01
(PID.TID 0000.0001) %MON forcing_qsw_sd               =   3.1823095926618E+01
(PID.TID 0000.0001) %MON forcing_qsw_del2             =   1.9591849524959E-02
(PID.TID 0000.0001) %MON forcing_empmr_max            =   1.4067925512791E-03
(PID.TID 0000.0001) %MON forcing_empmr_min            =  -3.6985948681831E-03
(PID.TID 0000.0001) %MON forcing_empmr_mean           =  -4.9721240832952E-06
(PID.TID 0000.0001) %MON forcing_empmr_sd             =   1.2898568304900E-04
(PID.TID 0000.0001) %MON forcing_empmr_del2           =   5.6923466310647E-07
(PID.TID 0000.0001) %MON forcing_fu_max               =   1.2904965035791E+00
(PID.TID 0000.0001) %MON forcing_fu_min               =  -7.6789722682962E-01
(PID.TID 0000.0001) %MON forcing_fu_mean              =   8.5840181696717E-03
(PID.TID 0000.0001) %MON forcing_fu_sd                =   1.0121245440732E-01
(PID.TID 0000.0001) %MON forcing_fu_del2              =   1.5703541371220E-04
(PID.TID 0000.0001) %MON forcing_fv_max               =   1.0131820127813E+00
(PID.TID 0000.0001) %MON forcing_fv_min               =  -8.8961340705554E-01
(PID.TID 0000.0001) %MON forcing_fv_mean              =  -1.0203768456591E-02
(PID.TID 0000.0001) %MON forcing_fv_sd                =   1.0441597530879E-01
(PID.TID 0000.0001) %MON forcing_fv_del2              =   1.4542370007732E-04
(PID.TID 0000.0001) %MON trAdv_CFL_u_max              =   2.2753633525929E-02
(PID.TID 0000.0001) %MON trAdv_CFL_v_max              =   1.6412135831909E-02
(PID.TID 0000.0001) %MON trAdv_CFL_w_max              =   1.1740986378047E-01
(PID.TID 0000.0001) %MON advcfl_uvel_max              =   2.1217428713666E-02
(PID.TID 0000.0001) %MON advcfl_vvel_max              =   1.5084772242106E-02
(PID.TID 0000.0001) %MON advcfl_wvel_max              =   1.2225858563950E-01
(PID.TID 0000.0001) %MON advcfl_W_hf_max              =   1.2914111316889E-01
(PID.TID 0000.0001) %MON pe_b_mean                    =   6.1811512912779E-04
(PID.TID 0000.0001) %MON ke_max                       =   4.2256746803480E-01
(PID.TID 0000.0001) %MON ke_mean                      =   4.5168286886803E-04
(PID.TID 0000.0001) %MON ke_vol                       =   1.3349971430191E+18
(PID.TID 0000.0001) %MON vort_r_min                   =  -2.6944509756947E-05
(PID.TID 0000.0001) %MON vort_r_max                   =   3.6503099930590E-05
(PID.TID 0000.0001) %MON vort_a_mean                  =  -1.9727864647440E-05
(PID.TID 0000.0001) %MON vort_a_sd                    =   7.4543165418120E-05
(PID.TID 0000.0001) %MON vort_p_mean                  =  -2.1760540711719E-05
(PID.TID 0000.0001) %MON vort_p_sd                    =   9.7246018715105E-05
(PID.TID 0000.0001) %MON surfExpan_theta_mean         =  -1.5577646552255E-06
(PID.TID 0000.0001) %MON surfExpan_salt_mean          =  -1.2427207351317E-07
(PID.TID 0000.0001) // =======================================================
(PID.TID 0000.0001) // End MONITOR dynamic field statistics
(PID.TID 0000.0001) // =======================================================
(PID.TID 0000.0001) // =======================================================
(PID.TID 0000.0001) // Begin MONITOR SEAICE statistics
(PID.TID 0000.0001) // =======================================================
(PID.TID 0000.0001) %MON seaice_tsnumber              =                    96
(PID.TID 0000.0001) %MON seaice_time_sec              =   8.6400000000000E+04
(PID.TID 0000.0001) %MON seaice_uice_max              =   6.6272764014634E-01
(PID.TID 0000.0001) %MON seaice_uice_min              =  -6.8265313171159E-01
(PID.TID 0000.0001) %MON seaice_uice_mean             =  -2.9661256335878E-03
(PID.TID 0000.0001) %MON seaice_uice_sd               =   1.4085880137155E-01
(PID.TID 0000.0001) %MON seaice_uice_del2             =   2.6275995776615E-04
(PID.TID 0000.0001) %MON seaice_vice_max              =   7.7428394050618E-01
(PID.TID 0000.0001) %MON seaice_vice_min              =  -9.0955341304470E-01
(PID.TID 0000.0001) %MON seaice_vice_mean             =  -1.9972602145704E-02
(PID.TID 0000.0001) %MON seaice_vice_sd               =   1.5102992857343E-01
(PID.TID 0000.0001) %MON seaice_vice_del2             =   2.4077305754146E-04
(PID.TID 0000.0001) %MON seaice_area_max              =   1.0038262494391E+00
(PID.TID 0000.0001) %MON seaice_area_min              =   0.0000000000000E+00
(PID.TID 0000.0001) %MON seaice_area_mean             =   6.2472007825236E-02
(PID.TID 0000.0001) %MON seaice_area_sd               =   2.2273704963407E-01
(PID.TID 0000.0001) %MON seaice_area_del2             =   9.0769482142877E-04
(PID.TID 0000.0001) %MON seaice_heff_max              =   2.2868601131787E+01
(PID.TID 0000.0001) %MON seaice_heff_min              =   0.0000000000000E+00
(PID.TID 0000.0001) %MON seaice_heff_mean             =   1.9381389605354E-01
(PID.TID 0000.0001) %MON seaice_heff_sd               =   1.0041417807123E+00
(PID.TID 0000.0001) %MON seaice_heff_del2             =   4.8480454631941E-03
(PID.TID 0000.0001) %MON seaice_hsnow_max             =   7.5535466174685E+00
(PID.TID 0000.0001) %MON seaice_hsnow_min             =   0.0000000000000E+00
(PID.TID 0000.0001) %MON seaice_hsnow_mean            =   2.1474930836610E-02
(PID.TID 0000.0001) %MON seaice_hsnow_sd              =   1.3260357510336E-01
(PID.TID 0000.0001) %MON seaice_hsnow_del2            =   1.2372385914621E-03
(PID.TID 0000.0001) // =======================================================
(PID.TID 0000.0001) // End MONITOR SEAICE statistics
(PID.TID 0000.0001) // =======================================================
(PID.TID 0000.0001) %CHECKPOINT        96 0000000096
 SEAICE_LSR: Residual Initial ipass,Uice,Vice=    1  6.35196693E-03  5.72420938E-03
 SEAICE_LSR (ipass=   1) iters,dU,Resid=    30  7.09761574E-05  1.86070817E-03
 SEAICE_LSR (ipass=   1) iters,dV,Resid=    30  9.88462137E-05  1.36393779E-03
 SEAICE_LSR: Residual Initial ipass,Uice,Vice=    2  5.26388708E-03  4.66630654E-03
 SEAICE_LSR (ipass=   2) iters,dU,Resid=    22  7.18306135E-05  1.81884216E-03
 SEAICE_LSR (ipass=   2) iters,dV,Resid=    22  9.77167407E-05  1.34271379E-03
 cg2d: Sum(rhs),rhsMax =   6.45269812911968E+01  2.97658945319810E-01
(PID.TID 0000.0001) %CHECKPOINT        97 ckptA
