(PID.TID 0000.0001) 
(PID.TID 0000.0001) // ======================================================
(PID.TID 0000.0001) //                      MITgcm UV
(PID.TID 0000.0001) //                      =========
(PID.TID 0000.0001) // ======================================================
(PID.TID 0000.0001) // execution environment starting up...
(PID.TID 0000.0001) 
(PID.TID 0000.0001) // MITgcmUV version:  checkpoint66k
(PID.TID 0000.0001) // Build user:        dmenemen
(PID.TID 0000.0001) // Build host:        r623i3n2
(PID.TID 0000.0001) // Build date:        Sun Oct  8 11:07:17 PDT 2017
(PID.TID 0000.0001) 
(PID.TID 0000.0001) // =======================================================
(PID.TID 0000.0001) // Execution Environment parameter file "eedata"
(PID.TID 0000.0001) // =======================================================
(PID.TID 0000.0001) ># Example "eedata" file
(PID.TID 0000.0001) ># Lines beginning "#" are comments
(PID.TID 0000.0001) ># nTx - No. threads per process in X
(PID.TID 0000.0001) ># nTy - No. threads per process in Y
(PID.TID 0000.0001) > &EEPARMS
(PID.TID 0000.0001) > useCubedSphereExchange=.TRUE.,
(PID.TID 0000.0001) > nTx=1,
(PID.TID 0000.0001) > nTy=1,
(PID.TID 0000.0001) > &
(PID.TID 0000.0001) 
(PID.TID 0000.0001) // =======================================================
(PID.TID 0000.0001) // Computational Grid Specification ( see files "SIZE.h" )
(PID.TID 0000.0001) //                                  ( and "eedata"       )
(PID.TID 0000.0001) // =======================================================
(PID.TID 0000.0001)      nPx =   96 ; /* No. processes in X */
(PID.TID 0000.0001)      nPy =    1 ; /* No. processes in Y */
(PID.TID 0000.0001)      nSx =    1 ; /* No. tiles in X per process */
(PID.TID 0000.0001)      nSy =    1 ; /* No. tiles in Y per process */
(PID.TID 0000.0001)      sNx =   30 ; /* Tile size in X */
(PID.TID 0000.0001)      sNy =   30 ; /* Tile size in Y */
(PID.TID 0000.0001)      OLx =    8 ; /* Tile overlap distance in X */
(PID.TID 0000.0001)      OLy =    8 ; /* Tile overlap distance in Y */
(PID.TID 0000.0001)      nTx =    1 ; /* No. threads in X per process */
(PID.TID 0000.0001)      nTy =    1 ; /* No. threads in Y per process */
(PID.TID 0000.0001)       Nr =   50 ; /* No. levels in the vertical   */
(PID.TID 0000.0001)       Nx = 2880 ; /* Total domain size in X ( = nPx*nSx*sNx ) */
(PID.TID 0000.0001)       Ny =   30 ; /* Total domain size in Y ( = nPy*nSy*sNy ) */
(PID.TID 0000.0001)   nTiles =    1 ; /* Total no. tiles per process ( = nSx*nSy ) */
(PID.TID 0000.0001)   nProcs =   96 ; /* Total no. processes ( = nPx*nPy ) */
(PID.TID 0000.0001) nThreads =    1 ; /* Total no. threads per process ( = nTx*nTy ) */
(PID.TID 0000.0001) usingMPI =    T ; /* Flag used to control whether MPI is in use */
(PID.TID 0000.0001)                   /*  note: To execute a program with MPI calls */
(PID.TID 0000.0001)                   /*  it must be launched appropriately e.g     */
(PID.TID 0000.0001)                   /*  "mpirun -np 64 ......"                    */
(PID.TID 0000.0001) useCoupler=    F ;/* Flag used to control communications with   */
(PID.TID 0000.0001)                   /*  other model components, through a coupler */
(PID.TID 0000.0001) debugMode =    F ; /* print debug msg. (sequence of S/R calls)  */
(PID.TID 0000.0001) printMapIncludesZeros=    F ; /* print zeros in Std.Output maps */
(PID.TID 0000.0001) maxLengthPrt1D=   65 /* maxLength of 1D array printed to StdOut */
(PID.TID 0000.0001) 
(PID.TID 0000.0001) ======= Starting MPI parallel Run =========
(PID.TID 0000.0001)  My Processor Name (len:  8 ) = r465i3n3
(PID.TID 0000.0001)  Located at (  0,  0) on processor grid (0: 95,0:  0)
(PID.TID 0000.0001)  Origin at  (     1,     1) on global grid (1:  2880,1:    30)
(PID.TID 0000.0001)  North neighbor = processor 0000
(PID.TID 0000.0001)  South neighbor = processor 0000
(PID.TID 0000.0001)   East neighbor = processor 0001
(PID.TID 0000.0001)   West neighbor = processor 0095
(PID.TID 0000.0001) // ======================================================
(PID.TID 0000.0001) // Mapping of tiles to threads
(PID.TID 0000.0001) // ======================================================
(PID.TID 0000.0001) // -o- Thread   1, tiles (   1:   1,   1:   1)
(PID.TID 0000.0001) 
(PID.TID 0000.0001) W2_READPARMS: opening data.exch2
(PID.TID 0000.0001)  OPEN_COPY_DATA_FILE: opening file data.exch2
(PID.TID 0000.0001) // =======================================================
(PID.TID 0000.0001) // Parameter file "data.exch2"
(PID.TID 0000.0001) // =======================================================
(PID.TID 0000.0001) ># EXCH2 Package: Wrapper-2 User Choice
(PID.TID 0000.0001) >#--------------------
(PID.TID 0000.0001) >#  preDefTopol   :: pre-defined Topology selector:
(PID.TID 0000.0001) >#                :: = 0 : topology defined from processing "data.exch2";
(PID.TID 0000.0001) >#                :: = 1 : simple, single facet topology;
(PID.TID 0000.0001) >#                :: = 2 : customized topology (w2_set_myown_facets)
(PID.TID 0000.0001) >#                :: = 3 : 6-facet Cube (3 face-dims: nRed, nGreen, nBlue).
(PID.TID 0000.0001) >#  dimsFacets    :: facet pair of dimensions (n1x,n1y, n2x,n2y ...)
(PID.TID 0000.0001) >#  facetEdgeLink :: Face-Edge connectivity map:
(PID.TID 0000.0001) >#    facetEdgeLink(i,j)=XX.1 : face(j)-edge(i) (i=1,2,3,4 <==> N,S,E,W)
(PID.TID 0000.0001) >#    is connected to Northern edge of face "XX" ; similarly,
(PID.TID 0000.0001) >#    = XX.2 : to Southern.E, XX.3 = Eastern.E, XX.4 = Western.E of face "XX"
(PID.TID 0000.0001) >#  blankList     :: List of "blank" tiles
(PID.TID 0000.0001) >#  W2_mapIO      :: global map IO selector (-1 = old type ; 0 = 1 long line in X
(PID.TID 0000.0001) >#                :: 1 = compact, mostly in Y dir)
(PID.TID 0000.0001) >#  W2_printMsg   :: option for information messages printing
(PID.TID 0000.0001) >#                :: <0 : write to log file ; =0 : minimum print ;
(PID.TID 0000.0001) >#                :: =1 : no duplicated print ; =2 : all processes do print
(PID.TID 0000.0001) >#--------------------
(PID.TID 0000.0001) > &W2_EXCH2_PARM01
(PID.TID 0000.0001) >  W2_printMsg= 0,
(PID.TID 0000.0001) >  W2_mapIO   = 1,
(PID.TID 0000.0001) >#
(PID.TID 0000.0001) >  preDefTopol=0,
(PID.TID 0000.0001) >#-- 5 facets llc_120 topology (drop facet 6 and its connection):
(PID.TID 0000.0001) >  dimsFacets(1:10) = 90, 270, 90, 270, 90, 90, 270, 90, 270, 90,
(PID.TID 0000.0001) >  facetEdgeLink(1:4,1)= 3.4, 0. , 2.4, 5.1,
(PID.TID 0000.0001) >  facetEdgeLink(1:4,2)= 3.2, 0. , 4.2, 1.3,
(PID.TID 0000.0001) >  facetEdgeLink(1:4,3)= 5.4, 2.1, 4.4, 1.1,
(PID.TID 0000.0001) >  facetEdgeLink(1:4,4)= 5.2, 2.3, 0. , 3.3,
(PID.TID 0000.0001) >  facetEdgeLink(1:4,5)= 1.4, 4.1, 0. , 3.1,
(PID.TID 0000.0001) >#-- full 6 facets llc_120 topology (equivalent to default preDefTopol=3):
(PID.TID 0000.0001) ># dimsFacets(1:12) = 120, 360, 120, 360, 120, 120, 360, 120, 360, 120, 120, 120,
(PID.TID 0000.0001) ># facetEdgeLink(1:4,1)= 3.4, 6.1, 2.4, 5.1,
(PID.TID 0000.0001) ># facetEdgeLink(1:4,2)= 3.2, 6.3, 4.2, 1.3,
(PID.TID 0000.0001) ># facetEdgeLink(1:4,3)= 5.4, 2.1, 4.4, 1.1,
(PID.TID 0000.0001) ># facetEdgeLink(1:4,4)= 5.2, 2.3, 6.2, 3.3,
(PID.TID 0000.0001) ># facetEdgeLink(1:4,5)= 1.4, 4.1, 6.4, 3.1,
(PID.TID 0000.0001) ># facetEdgeLink(1:4,6)= 1.2, 4.3, 2.2, 5.3,
(PID.TID 0000.0001) >#
(PID.TID 0000.0001) >#90x30   nprocs = 36
(PID.TID 0000.0001) ># blankList(1:3)=1,10,11,
(PID.TID 0000.0001) >#30x90
(PID.TID 0000.0001) >#
(PID.TID 0000.0001) >#45x30   nprocs = 72
(PID.TID 0000.0001) ># blankList(1:6)=1,2,19,20,21,22
(PID.TID 0000.0001) >#30x45   nprocs = 68
(PID.TID 0000.0001) ># blankList(1:10)=2,3,19,20,21,35,51,60,69,78
(PID.TID 0000.0001) >#45x45   nprocs = 48
(PID.TID 0000.0001) ># blankList(1:4)=2,13,14,23
(PID.TID 0000.0001) >#30x30   nprocs = 96
(PID.TID 0000.0001) >  blankList(1:21)=1,2,3,5,6,28,29,30,31,32,33,49,50,52,53,72,81,90,99,108,117
(PID.TID 0000.0001) >#30x30   nprocs = 112
(PID.TID 0000.0001) ># blankList(1:5)=2,3,28,29,30
(PID.TID 0000.0001) >#15x30   nprocs = 192
(PID.TID 0000.0001) ># blankList(1:42)=1,2,3,4,5,6,9,10,11,12,55,56,57,58,59,60,61,62,63,64,65,66,
(PID.TID 0000.0001) >#            97,98,99,100,103,104,105,106,143,144,
(PID.TID 0000.0001) >#            161,162,179,180,197,198,215,216,233,234
(PID.TID 0000.0001) >#15x15   nprocs = 360
(PID.TID 0000.0001) ># blankList(1:108)=1,2,3,4,5,6,7,8,9,10,11,12,14,15,16,17,18,21,22,23,24,
(PID.TID 0000.0001) >#  65,71,75,76,90,95,96,101,102,109,110,111,112,113,114,115,116,117,118,119,
(PID.TID 0000.0001) >#  120,121,122,123,124,125,126,127,128,129,130,131,132,
(PID.TID 0000.0001) >#  188,189,190,193,194,195,196,199,
(PID.TID 0000.0001) >#  200,201,202,203,205,206,207,208,209,211,212,213,214,215,216,242,247,253,
(PID.TID 0000.0001) >#  267,268,269,270,287,288,305,306,323,324,341,342,359,360,362,376,377,378,
(PID.TID 0000.0001) >#  380,381,382,395,396,400,412,413,414,430,
(PID.TID 0000.0001) >#note: it seems that 8 of the followig 9 tiles could be added to 15x15 blank
(PID.TID 0000.0001) >#  list to reach 352=22*16 cores : 431 432 440 441 448 449 450 467 468
(PID.TID 0000.0001) > &
(PID.TID 0000.0001) 
(PID.TID 0000.0001) W2_READPARMS: finished reading data.exch2
(PID.TID 0000.0001) W2_useE2ioLayOut=    T ;/* T: use Exch2 glob IO map; F: use model default */
(PID.TID 0000.0001) W2_mapIO        =   1 ; /* select option for Exch2 global-IO map */
(PID.TID 0000.0001) W2_printMsg     =   0 ; /* select option for printing information */
(PID.TID 0000.0001) ===== Start setting W2 TOPOLOGY:
(PID.TID 0000.0001) W2_E2SETUP: number of Active Tiles =      96
(PID.TID 0000.0001) W2_E2SETUP: number of Blank Tiles  =      21
(PID.TID 0000.0001) W2_E2SETUP: Total number of Tiles  =     117
(PID.TID 0000.0001) W2_SET_GEN_FACETS: preDefTopol=  0 selected
(PID.TID 0000.0001) W2_SET_GEN_FACETS: Number of facets =  5 (inferred from "dimsFacets")
(PID.TID 0000.0001) W2_E2SETUP: Total number of Facets =       5
(PID.TID 0000.0001) W2_SET_F2F_INDEX: index matrix for connected Facet-Edges:
(PID.TID 0000.0001) ** WARNING ** S.Edge of facet #  1 disconnected (facet_link=  0.00)
(PID.TID 0000.0001) ** WARNING ** S.Edge of facet #  2 disconnected (facet_link=  0.00)
(PID.TID 0000.0001) ** WARNING ** E.Edge of facet #  4 disconnected (facet_link=  0.00)
(PID.TID 0000.0001) ** WARNING ** E.Edge of facet #  5 disconnected (facet_link=  0.00)
(PID.TID 0000.0001) W2_SET_MAP_TILES: tile mapping within facet and global Map:
(PID.TID 0000.0001)  W2_mapIO =   90 (=    3*sNx)
(PID.TID 0000.0001)  Global Map (IO): X-size=      90 , Y-size=    1170
(PID.TID 0000.0001) W2_SET_MAP_TILES: tile offset within facet and global Map:
- facet  1 : X-size=    90 , Y-size=   270 ;   27 tiles (Tx,Ty=   3,   9)
- facet  2 : X-size=    90 , Y-size=   270 ;   27 tiles (Tx,Ty=   3,   9)
- facet  3 : X-size=    90 , Y-size=    90 ;    9 tiles (Tx,Ty=   3,   3)
- facet  4 : X-size=   270 , Y-size=    90 ;   27 tiles (Tx,Ty=   9,   3)
- facet  5 : X-size=   270 , Y-size=    90 ;   27 tiles (Tx,Ty=   9,   3)
(PID.TID 0000.0001) W2_SET_MAP_CUMSUM: setting Facet Matrix for CUMUL-SUM
(PID.TID 0000.0001) W2_SET_MAP_CUMSUM: set    4 /   5 active facets (pass,type=   1, 1)
 Facet Matrix for CUMUL-SUM (nFacets=   5, nActive=   5 ):
- facet  1 :  0  0 ,  0  0 ,  0  0 ,  0  0 ,  0  0 ,
- facet  2 :  1  0 ,  0  0 ,  0  0 ,  0  0 ,  0  0 ,
- facet  3 :  1  0 ,  0  1 ,  0  0 ,  0  0 ,  0  0 ,
- facet  4 :  1  0 ,  0  1 ,  1  0 ,  0  0 ,  0  0 ,
- facet  5 :  1  0 ,  0  1 ,  1  0 ,  0  1 ,  0  0 ,
 missing-corner Tile for CUMUL-SUM (nTiles=   117 ): W2_tMC1=    25 , W2_tMC2=     0
(PID.TID 0000.0001) W2_SET_MAP_CUMSUM: done (skip Tile Matrix setting)
(PID.TID 0000.0001) W2_SET_TILE2TILES: tile neighbours and index connection:
(PID.TID 0000.0001) current Max.Nb.Neighbours (e.g., on tile    7 ) =  4
(PID.TID 0000.0001) ===== W2 TILE TOPOLOGY =====
(PID.TID 0000.0001)  TILE:     4 (bi,bj=   1   1 ), Nb of Neighbours =  2
(PID.TID 0000.0001)     NEIGHBOUR  1 = TILE    7 (n=  2) Comm = MSG (PROC=    2)
(PID.TID 0000.0001)     NEIGHBOUR  2 = TILE  116 (n=  1) Comm = MSG (PROC=   96)
(PID.TID 0000.0001) =====       setting W2 TOPOLOGY: Done
(PID.TID 0000.0001) 
(PID.TID 0000.0001)  INI_PARMS: opening model parameter file "data"
(PID.TID 0000.0001)  OPEN_COPY_DATA_FILE: opening file data
(PID.TID 0000.0001) // =======================================================
(PID.TID 0000.0001) // Parameter file "data"
(PID.TID 0000.0001) // =======================================================
(PID.TID 0000.0001) ># ====================
(PID.TID 0000.0001) ># | Model parameters |
(PID.TID 0000.0001) ># ====================
(PID.TID 0000.0001) >#
(PID.TID 0000.0001) ># Continuous equation parameters
(PID.TID 0000.0001) > &PARM01
(PID.TID 0000.0001) > tRef               = 3*23.,3*22.,21.,2*20.,19.,2*18.,17.,2*16.,15.,14.,13.,
(PID.TID 0000.0001) >                      12.,11.,2*9.,8.,7.,2*6.,2*5.,3*4.,3*3.,4*2.,12*1.,
(PID.TID 0000.0001) > sRef               = 50*34.5,
(PID.TID 0000.0001) > viscAr= 5.6614e-04,
(PID.TID 0000.0001) > no_slip_sides = .TRUE.,
(PID.TID 0000.0001) > no_slip_bottom = .TRUE.,
(PID.TID 0000.0001) > diffKrT=5.44e-7,
(PID.TID 0000.0001) > diffKrS=5.44e-7,
(PID.TID 0000.0001) > rhonil=1027.5,
(PID.TID 0000.0001) > rhoConstFresh=999.8,
(PID.TID 0000.0001) > eosType='JMD95Z',
(PID.TID 0000.0001) > hFacMin=0.3,
(PID.TID 0000.0001) > hFacInf=0.1,
(PID.TID 0000.0001) > hFacSup=5.,
(PID.TID 0000.0001) > implicitDiffusion=.TRUE.,
(PID.TID 0000.0001) > implicitViscosity=.TRUE.,
(PID.TID 0000.0001) > viscC4Leith=2.15,
(PID.TID 0000.0001) > viscC4Leithd=2.15,
(PID.TID 0000.0001) > viscA4GridMax=0.8,
(PID.TID 0000.0001) > useAreaViscLength=.TRUE.,
(PID.TID 0000.0001) > highOrderVorticity  = .TRUE.,
(PID.TID 0000.0001) > bottomDragQuadratic = 0.0021,
(PID.TID 0000.0001) > tempAdvScheme=7,
(PID.TID 0000.0001) > saltAdvScheme=7,
(PID.TID 0000.0001) > StaggerTimeStep=.TRUE.,
(PID.TID 0000.0001) > multiDimAdvection=.TRUE.,
(PID.TID 0000.0001) > vectorInvariantMomentum=.TRUE.,
(PID.TID 0000.0001) > implicitFreeSurface=.TRUE.,
(PID.TID 0000.0001) > exactConserv=.TRUE.,
(PID.TID 0000.0001) ># debuglevel=-1,
(PID.TID 0000.0001) > convertFW2Salt=-1.,
(PID.TID 0000.0001) > useRealFreshWaterFlux=.TRUE.,
(PID.TID 0000.0001) ># change useSingleCPUio to .FALSE. for asyncio
(PID.TID 0000.0001) > useSingleCPUio=.TRUE.,
(PID.TID 0000.0001) > useSingleCpuInput=.TRUE.,
(PID.TID 0000.0001) > globalFiles=.TRUE.,
(PID.TID 0000.0001) > readBinaryPrec=32,
(PID.TID 0000.0001) > writeBinaryPrec=32,
(PID.TID 0000.0001) > temp_EvPrRn=0.,
(PID.TID 0000.0001) > implicSurfPress = 0.6,
(PID.TID 0000.0001) > implicDiv2DFlow = 0.6,
(PID.TID 0000.0001) > /
(PID.TID 0000.0001) >
(PID.TID 0000.0001) ># Elliptic solver parameters
(PID.TID 0000.0001) > &PARM02
(PID.TID 0000.0001) > cg2dMaxIters = 100,
(PID.TID 0000.0001) > cg2dTargetResidual = 1.E-5,
(PID.TID 0000.0001) > &
(PID.TID 0000.0001) >
(PID.TID 0000.0001) ># Time stepping parameters
(PID.TID 0000.0001) > &PARM03
(PID.TID 0000.0001) > nIter0=1,
(PID.TID 0000.0001) >  nTimeSteps       = 96,
(PID.TID 0000.0001) > deltaT=900.,
(PID.TID 0000.0001) > abEps = 0.1,
(PID.TID 0000.0001) > forcing_In_AB=.FALSE.,
(PID.TID 0000.0001) > momDissip_In_AB=.FALSE.,
(PID.TID 0000.0001) >  chkptFreq        = 86400.0,
(PID.TID 0000.0001) > dumpfreq = 3600.,
(PID.TID 0000.0001) > dumpInitAndLast=.FALSE.,
(PID.TID 0000.0001) > monitorFreq = 7200.0,
(PID.TID 0000.0001) > &
(PID.TID 0000.0001) >
(PID.TID 0000.0001) ># Gridding parameters
(PID.TID 0000.0001) > &PARM04
(PID.TID 0000.0001) > usingCurvilinearGrid=.TRUE.,
(PID.TID 0000.0001) > delR =
(PID.TID 0000.0001) >     10.00, 10.00, 10.00, 10.00, 10.00, 10.00, 10.00, 10.01,
(PID.TID 0000.0001) >     10.03, 10.11, 10.32, 10.80, 11.76, 13.42, 16.04, 19.82, 24.85,
(PID.TID 0000.0001) >     31.10, 38.42, 46.50, 55.00, 63.50, 71.58, 78.90, 85.15, 90.18,
(PID.TID 0000.0001) >     93.96, 96.58, 98.25, 99.25,100.01,101.33,104.56,111.33,122.83,
(PID.TID 0000.0001) >     139.09,158.94,180.83,203.55,226.50,249.50,272.50,295.50,318.50,
(PID.TID 0000.0001) >     341.50,364.50,387.50,410.50,433.50,456.50,
(PID.TID 0000.0001) > &
(PID.TID 0000.0001) >
(PID.TID 0000.0001) ># Input datasets
(PID.TID 0000.0001) > &PARM05
(PID.TID 0000.0001) > bathyFile      ='bathy.bin',
(PID.TID 0000.0001) > &
(PID.TID 0000.0001) 
(PID.TID 0000.0001)  INI_PARMS ; starts to read PARM01
(PID.TID 0000.0001)  INI_PARMS ; read PARM01 : OK
(PID.TID 0000.0001)  INI_PARMS ; starts to read PARM02
(PID.TID 0000.0001)  INI_PARMS ; read PARM02 : OK
(PID.TID 0000.0001)  INI_PARMS ; starts to read PARM03
(PID.TID 0000.0001)  INI_PARMS ; read PARM03 : OK
(PID.TID 0000.0001)  INI_PARMS ; starts to read PARM04
(PID.TID 0000.0001)  INI_PARMS ; read PARM04 : OK
(PID.TID 0000.0001)  INI_PARMS ; starts to read PARM05
(PID.TID 0000.0001)  INI_PARMS ; read PARM05 : OK
(PID.TID 0000.0001)  INI_PARMS: finished reading file "data"
(PID.TID 0000.0001)  PACKAGES_BOOT: opening data.pkg
(PID.TID 0000.0001)  OPEN_COPY_DATA_FILE: opening file data.pkg
(PID.TID 0000.0001) // =======================================================
(PID.TID 0000.0001) // Parameter file "data.pkg"
(PID.TID 0000.0001) // =======================================================
(PID.TID 0000.0001) ># Packages
(PID.TID 0000.0001) > &PACKAGES
(PID.TID 0000.0001) > useKPP         = .TRUE.,
(PID.TID 0000.0001) > useFRAZIL      = .TRUE.,
(PID.TID 0000.0001) > /
(PID.TID 0000.0001) 
(PID.TID 0000.0001)  PACKAGES_BOOT: finished reading data.pkg
(PID.TID 0000.0001)  PACKAGES_BOOT: On/Off package Summary
 --------  pkgs with a standard "usePKG" On/Off switch in "data.pkg":  --------
 pkg/kpp                  compiled   and   used ( useKPP                   = T )
 pkg/frazil               compiled   and   used ( useFRAZIL                = T )
 -------- pkgs without standard "usePKG" On/Off switch in "data.pkg":  --------
 pkg/generic_advdiff      compiled   and   used ( useGAD                   = T )
 pkg/mom_common           compiled   and   used ( momStepping              = T )
 pkg/mom_vecinv           compiled   and   used ( +vectorInvariantMomentum = T )
 pkg/mom_fluxform         compiled but not used ( & not vectorInvariantMom = F )
 pkg/monitor              compiled   and   used ( monitorFreq > 0.         = T )
 pkg/debug                compiled but not used ( debugMode                = F )
 pkg/exch2                compiled   and   used
 pkg/rw                   compiled   and   used
 pkg/mdsio                compiled   and   used
(PID.TID 0000.0001)  PACKAGES_BOOT: End of package Summary
(PID.TID 0000.0001) 
(PID.TID 0000.0001)  KPP_INIT: opening data.kpp
(PID.TID 0000.0001)  OPEN_COPY_DATA_FILE: opening file data.kpp
(PID.TID 0000.0001) // =======================================================
(PID.TID 0000.0001) // Parameter file "data.kpp"
(PID.TID 0000.0001) // =======================================================
(PID.TID 0000.0001) ># KPP parameters
(PID.TID 0000.0001) > &KPP_PARM01
(PID.TID 0000.0001) > KPPmixingMaps   = .FALSE.,
(PID.TID 0000.0001) > KPPwriteState   = .FALSE.,
(PID.TID 0000.0001) > kpp_dumpFreq    = 0.,
(PID.TID 0000.0001) > kpp_tavefreq    = 0.,
(PID.TID 0000.0001) > Ricr            = 0.3559,
(PID.TID 0000.0001) > Riinfty         = 0.6998,
(PID.TID 0000.0001) > &
(PID.TID 0000.0001) 
(PID.TID 0000.0001)  KPP_INIT: finished reading data.kpp
(PID.TID 0000.0001) SET_PARMS: done
(PID.TID 0000.0001) Enter INI_VERTICAL_GRID: setInterFDr=    T ; setCenterDr=    F
(PID.TID 0000.0001) tile:   4 ; Read from file tile001.mitgrid
(PID.TID 0000.0001)   => xC yC dxF dyF rA xG yG dxV dyU rAz dxC dyC rAw rAs dxG dyG
(PID.TID 0000.0001) %MON XC_max                       =   1.7997758946678E+02
(PID.TID 0000.0001) %MON XC_min                       =  -1.7998895680928E+02
(PID.TID 0000.0001) %MON XC_mean                      =  -6.8997670631350E+00
(PID.TID 0000.0001) %MON XC_sd                        =   1.0548127462941E+02
(PID.TID 0000.0001) %MON XG_max                       =   1.8000000000000E+02
(PID.TID 0000.0001) %MON XG_min                       =  -1.7999919444240E+02
(PID.TID 0000.0001) %MON XG_mean                      =  -6.3521159278861E+00
(PID.TID 0000.0001) %MON XG_sd                        =   1.0549598176576E+02
(PID.TID 0000.0001) %MON DXC_max                      =   1.1117680031365E+05
(PID.TID 0000.0001) %MON DXC_min                      =   1.3362789164732E+04
(PID.TID 0000.0001) %MON DXC_mean                     =   7.1345115143606E+04
(PID.TID 0000.0001) %MON DXC_sd                       =   2.6107013089865E+04
(PID.TID 0000.0001) %MON DXF_max                      =   1.1117680031365E+05
(PID.TID 0000.0001) %MON DXF_min                      =   1.3491575949394E+04
(PID.TID 0000.0001) %MON DXF_mean                     =   7.1334806791260E+04
(PID.TID 0000.0001) %MON DXF_sd                       =   2.6121349328995E+04
(PID.TID 0000.0001) %MON DXG_max                      =   1.1117747335204E+05
(PID.TID 0000.0001) %MON DXG_min                      =   1.0930409249570E+04
(PID.TID 0000.0001) %MON DXG_mean                     =   7.1313583950284E+04
(PID.TID 0000.0001) %MON DXG_sd                       =   2.6131714747840E+04
(PID.TID 0000.0001) %MON DXV_max                      =   1.1117747335204E+05
(PID.TID 0000.0001) %MON DXV_min                      =   9.4742518926426E+03
(PID.TID 0000.0001) %MON DXV_mean                     =   7.1323777998314E+04
(PID.TID 0000.0001) %MON DXV_sd                       =   2.6117603792432E+04
(PID.TID 0000.0001) %MON YC_max                       =   8.9739397429324E+01
(PID.TID 0000.0001) %MON YC_min                       =  -8.1637173529390E+01
(PID.TID 0000.0001) %MON YC_mean                      =  -5.9338515025079E-01
(PID.TID 0000.0001) %MON YC_sd                        =   5.1058908630085E+01
(PID.TID 0000.0001) %MON YG_max                       =   9.0000000000000E+01
(PID.TID 0000.0001) %MON YG_min                       =  -8.1805478609906E+01
(PID.TID 0000.0001) %MON YG_mean                      =  -5.7357831765458E-01
(PID.TID 0000.0001) %MON YG_sd                        =   5.1060174609345E+01
(PID.TID 0000.0001) %MON DYC_max                      =   1.1117680031365E+05
(PID.TID 0000.0001) %MON DYC_min                      =   1.3362789164732E+04
(PID.TID 0000.0001) %MON DYC_mean                     =   7.0982792089666E+04
(PID.TID 0000.0001) %MON DYC_sd                       =   2.6607387075348E+04
(PID.TID 0000.0001) %MON DYF_max                      =   1.1117680031365E+05
(PID.TID 0000.0001) %MON DYF_min                      =   1.3491575949394E+04
(PID.TID 0000.0001) %MON DYF_mean                     =   7.1000127494934E+04
(PID.TID 0000.0001) %MON DYF_sd                       =   2.6603606017547E+04
(PID.TID 0000.0001) %MON DYG_max                      =   1.1117747335204E+05
(PID.TID 0000.0001) %MON DYG_min                      =   1.0930409249570E+04
(PID.TID 0000.0001) %MON DYG_mean                     =   7.1022116512585E+04
(PID.TID 0000.0001) %MON DYG_sd                       =   2.6571715830406E+04
(PID.TID 0000.0001) %MON DYU_max                      =   1.1117747335204E+05
(PID.TID 0000.0001) %MON DYU_min                      =   9.4742518926426E+03
(PID.TID 0000.0001) %MON DYU_mean                     =   7.1004694583927E+04
(PID.TID 0000.0001) %MON DYU_sd                       =   2.6575655787476E+04
(PID.TID 0000.0001) %MON RA_max                       =   1.1896090857160E+10
(PID.TID 0000.0001) %MON RA_min                       =   2.1263387742345E+08
(PID.TID 0000.0001) %MON RA_mean                      =   5.6344293572480E+09
(PID.TID 0000.0001) %MON RA_sd                        =   3.5929461176606E+09
(PID.TID 0000.0001) %MON RAW_max                      =   1.1896090856781E+10
(PID.TID 0000.0001) %MON RAW_min                      =   1.7369571508711E+08
(PID.TID 0000.0001) %MON RAW_mean                     =   5.6355850434318E+09
(PID.TID 0000.0001) %MON RAW_sd                       =   3.5915487677190E+09
(PID.TID 0000.0001) %MON RAS_max                      =   1.1896090856781E+10
(PID.TID 0000.0001) %MON RAS_min                      =   1.7369571508711E+08
(PID.TID 0000.0001) %MON RAS_mean                     =   5.6320332286162E+09
(PID.TID 0000.0001) %MON RAS_sd                       =   3.5937184228135E+09
(PID.TID 0000.0001) %MON RAZ_max                      =   1.1891903479271E+10
(PID.TID 0000.0001) %MON RAZ_min                      =   1.0413402423292E+08
(PID.TID 0000.0001) %MON RAZ_mean                     =   5.6331824674695E+09
(PID.TID 0000.0001) %MON RAZ_sd                       =   3.5923307220197E+09
(PID.TID 0000.0001) %MON AngleCS_max                  =   1.0000000000000E+00
(PID.TID 0000.0001) %MON AngleCS_min                  =  -9.9996641938864E-01
(PID.TID 0000.0001) %MON AngleCS_mean                 =   4.0572930529500E-01
(PID.TID 0000.0001) %MON AngleCS_sd                   =   5.3874397836718E-01
(PID.TID 0000.0001) %MON AngleSN_max                  =   9.9996641938864E-01
(PID.TID 0000.0001) %MON AngleSN_min                  =  -1.0000000000000E+00
(PID.TID 0000.0001) %MON AngleSN_mean                 =  -4.9986154624599E-01
(PID.TID 0000.0001) %MON AngleSN_sd                   =   5.4339404779819E-01
(PID.TID 0000.0001)  MDS_READ_FIELD: opening global file: bathy.bin
(PID.TID 0000.0001) // =======================================================
(PID.TID 0000.0001) // Field Model R_low (ini_masks_etc)
(PID.TID 0000.0001) // CMIN =         -4.957150000000000E+03
(PID.TID 0000.0001) // CMAX =         -1.998999977111816E+01
(PID.TID 0000.0001) // CINT =          1.828577777862549E+02
(PID.TID 0000.0001) // SYMBOLS (CMIN->CMAX): -abcdefghijklmnopqrstuvwxyz+
(PID.TID 0000.0001) //                  0.0: .
(PID.TID 0000.0001) // RANGE I (Lo:Hi:Step):(    -7:    38:     1)
(PID.TID 0000.0001) // RANGE J (Lo:Hi:Step):(    38:    -7:    -1)
(PID.TID 0000.0001) // RANGE K (Lo:Hi:Step):(   1:   1:   1)
(PID.TID 0000.0001) // =======================================================
(PID.TID 0000.0001) K =   1
(PID.TID 0000.0001) //                I=2       I=12      I=22      I=32
(PID.TID 0000.0001) // |--J--|765432101|345678901|345678901|345678901|345678
(PID.TID 0000.0001) //     38 eeedddcccbbbbbbbbaaaaaaaa--aaaaa---aaaaaabbcbb
(PID.TID 0000.0001) //     37 feeddddcccbbbbbbbbaaaaaaaaaaaaaaa-aaaaaaabcccb
(PID.TID 0000.0001) //     36 gfeeddddcccccbbbbbaaaaaaaaaaaaaaaaaabccbcdddcc
(PID.TID 0000.0001) //     35 gfeeedddccccccbbbbaaaaaaaaaaaaaaaaabdeffeefedd
(PID.TID 0000.0001) //     34 ffeeeedddcccccbbbbbaaaaaaaaaaaaaaabcefhkkhgggg
(PID.TID 0000.0001) //     33 gffeeeddddcccccbbbbbaaaaaaaaaaaaabcdfgilmliijk
(PID.TID 0000.0001) //     32 gffffeeddddcccccbbbbbbbbbbbbbaaaabdgijklnmlklp
(PID.TID 0000.0001) //     31 ggggffeeddddcccccbbbbbbbbbbbbbaabehlnn........
(PID.TID 0000.0001) //     30 hggggfeeedddddcccccccccccbbbbbbcgknpr.........
(PID.TID 0000.0001) //     29 ihhggffeeeeeddddcccccccccccccdfimpr...........
(PID.TID 0000.0001) //     28 jjihggfffffeeeddddddddddcccdfilnqu............
(PID.TID 0000.0001) //     27 llkjihggggggffeeeeeeeedddddfjnqyy.............
(PID.TID 0000.0001) //     26 onlljihhgggggggffefffeeeeeginsyy..............
(PID.TID 0000.0001) //     25 rqonlkjiihhhghhgfffggfffghjouz................
(PID.TID 0000.0001) //     24 utrpomlkjiihhhhhggghhghijl+...................
(PID.TID 0000.0001) //     23 wvusqpnmlkkjjjjiiiiiijlnqz....................
(PID.TID 0000.0001) //     22 xxwvtsrponmllmmlllkkknsxz.....................
(PID.TID 0000.0001) //     21 yxxxwwvusqpqrsrqonmmny+z......................
(PID.TID 0000.0001) //     20 yyyyyyyxxwvwwwwvusrwx.........................
(PID.TID 0000.0001) //     19 yyyyyyyyyyyxxxxxxxyyx.........................
(PID.TID 0000.0001) //     18 yyyyyyyyyyxxxxxxyyyyy.........................
(PID.TID 0000.0001) //     17 yyyyyyyyyxxxwwxxyyy...........................
(PID.TID 0000.0001) //     16 yyyyyyyyxxwwwwxyyyz...........................
(PID.TID 0000.0001) //     15 yyyyyyyxwwwvwxyyz.............................
(PID.TID 0000.0001) //     14 yyyyyxxwwvvvxyz...............................
(PID.TID 0000.0001) //     13 zyyyyxwwvvvwy.................................
(PID.TID 0000.0001) //     12 zzyyxxwvuuvx..................................
(PID.TID 0000.0001) //     11 ++zyyxwvuvw...................................
(PID.TID 0000.0001) //     10 ..............................................
(PID.TID 0000.0001) //      9 ..............................................
(PID.TID 0000.0001) //      8 ..............................................
(PID.TID 0000.0001) //      7 ..............................................
(PID.TID 0000.0001) //      6 ..............................................
(PID.TID 0000.0001) //      5 ..............................................
(PID.TID 0000.0001) //      4 ..............................................
(PID.TID 0000.0001) //      3 ..............................................
(PID.TID 0000.0001) //      2 ..............................................
(PID.TID 0000.0001) //      1 ..............................................
(PID.TID 0000.0001) //      0 ..............................................
(PID.TID 0000.0001) //     -1 ..............................................
(PID.TID 0000.0001) //     -2 ..............................................
(PID.TID 0000.0001) //     -3 ..............................................
(PID.TID 0000.0001) //     -4 ..............................................
(PID.TID 0000.0001) //     -5 ..............................................
(PID.TID 0000.0001) //     -6 ..............................................
(PID.TID 0000.0001) //     -7 ..............................................
(PID.TID 0000.0001) // =======================================================
(PID.TID 0000.0001) // END OF FIELD                                          =
(PID.TID 0000.0001) // =======================================================
(PID.TID 0000.0001) 
(PID.TID 0000.0001) // =======================================================
(PID.TID 0000.0001) // Field Model Ro_surf (ini_masks_etc)
(PID.TID 0000.0001) // CMIN =          1.000000000000000E+32
(PID.TID 0000.0001) // CMAX =         -1.000000000000000E+32
(PID.TID 0000.0001) // CINT =          0.000000000000000E+00
(PID.TID 0000.0001) // SYMBOLS (CMIN->CMAX): -abcdefghijklmnopqrstuvwxyz+
(PID.TID 0000.0001) //                  0.0: .
(PID.TID 0000.0001) // RANGE I (Lo:Hi:Step):(    -7:    38:     1)
(PID.TID 0000.0001) // RANGE J (Lo:Hi:Step):(    38:    -7:    -1)
(PID.TID 0000.0001) // RANGE K (Lo:Hi:Step):(   1:   1:   1)
(PID.TID 0000.0001) // =======================================================
(PID.TID 0000.0001) // =======================================================
(PID.TID 0000.0001) // END OF FIELD                                          =
(PID.TID 0000.0001) // =======================================================
(PID.TID 0000.0001) 
(PID.TID 0000.0001) // =======================================================
(PID.TID 0000.0001) // Field hFacC at iteration          0
(PID.TID 0000.0001) // CMIN =          1.000000000000000E+00
(PID.TID 0000.0001) // CMAX =          1.000000000000000E+00
(PID.TID 0000.0001) // CINT =          0.000000000000000E+00
(PID.TID 0000.0001) // SYMBOLS (CMIN->CMAX): -abcdefghijklmnopqrstuvwxyz+
(PID.TID 0000.0001) //                  0.0: .
(PID.TID 0000.0001) // RANGE I (Lo:Hi:Step):(    -7:    38:     1)
(PID.TID 0000.0001) // RANGE J (Lo:Hi:Step):(    38:    -7:    -1)
(PID.TID 0000.0001) // RANGE K (Lo:Hi:Step):(   1:   1:   1)
(PID.TID 0000.0001) // =======================================================
(PID.TID 0000.0001) // =======================================================
(PID.TID 0000.0001) // END OF FIELD                                          =
(PID.TID 0000.0001) // =======================================================
(PID.TID 0000.0001) 
(PID.TID 0000.0001) // =======================================================
(PID.TID 0000.0001) // Field hFacW at iteration          0
(PID.TID 0000.0001) // CMIN =          1.000000000000000E+00
(PID.TID 0000.0001) // CMAX =          1.000000000000000E+00
(PID.TID 0000.0001) // CINT =          0.000000000000000E+00
(PID.TID 0000.0001) // SYMBOLS (CMIN->CMAX): -abcdefghijklmnopqrstuvwxyz+
(PID.TID 0000.0001) //                  0.0: .
(PID.TID 0000.0001) // RANGE I (Lo:Hi:Step):(    -7:    38:     1)
(PID.TID 0000.0001) // RANGE J (Lo:Hi:Step):(    38:    -7:    -1)
(PID.TID 0000.0001) // RANGE K (Lo:Hi:Step):(   1:   1:   1)
(PID.TID 0000.0001) // =======================================================
(PID.TID 0000.0001) // =======================================================
(PID.TID 0000.0001) // END OF FIELD                                          =
(PID.TID 0000.0001) // =======================================================
(PID.TID 0000.0001) 
(PID.TID 0000.0001) // =======================================================
(PID.TID 0000.0001) // Field hFacS at iteration          0
(PID.TID 0000.0001) // CMIN =          1.000000000000000E+00
(PID.TID 0000.0001) // CMAX =          1.000000000000000E+00
(PID.TID 0000.0001) // CINT =          0.000000000000000E+00
(PID.TID 0000.0001) // SYMBOLS (CMIN->CMAX): -abcdefghijklmnopqrstuvwxyz+
(PID.TID 0000.0001) //                  0.0: .
(PID.TID 0000.0001) // RANGE I (Lo:Hi:Step):(    -7:    38:     1)
(PID.TID 0000.0001) // RANGE J (Lo:Hi:Step):(    38:    -7:    -1)
(PID.TID 0000.0001) // RANGE K (Lo:Hi:Step):(   1:   1:   1)
(PID.TID 0000.0001) // =======================================================
(PID.TID 0000.0001) // =======================================================
(PID.TID 0000.0001) // END OF FIELD                                          =
(PID.TID 0000.0001) // =======================================================
(PID.TID 0000.0001) 
(PID.TID 0000.0001) GAD_INIT_FIXED: GAD_OlMinSize=  4  0  2
(PID.TID 0000.0001) 
(PID.TID 0000.0001) // ===================================
(PID.TID 0000.0001) // GAD parameters :
(PID.TID 0000.0001) // ===================================
(PID.TID 0000.0001) tempAdvScheme =   /* Temp. Horiz.Advection scheme selector */
(PID.TID 0000.0001)                       7
(PID.TID 0000.0001)     ;
(PID.TID 0000.0001) tempVertAdvScheme =   /* Temp. Vert. Advection scheme selector */
(PID.TID 0000.0001)                       7
(PID.TID 0000.0001)     ;
(PID.TID 0000.0001) tempMultiDimAdvec =   /* use Muti-Dim Advec method for Temp */
(PID.TID 0000.0001)                   T
(PID.TID 0000.0001)     ;
(PID.TID 0000.0001) tempSOM_Advection = /* use 2nd Order Moment Advection for Temp */
(PID.TID 0000.0001)                   F
(PID.TID 0000.0001)     ;
(PID.TID 0000.0001) AdamsBashforthGt = /* apply Adams-Bashforth extrapolation on Gt */
(PID.TID 0000.0001)                   F
(PID.TID 0000.0001)     ;
(PID.TID 0000.0001) AdamsBashforth_T = /* apply Adams-Bashforth extrapolation on Temp */
(PID.TID 0000.0001)                   F
(PID.TID 0000.0001)     ;
(PID.TID 0000.0001) saltAdvScheme =   /* Salt. Horiz.advection scheme selector */
(PID.TID 0000.0001)                       7
(PID.TID 0000.0001)     ;
(PID.TID 0000.0001) saltVertAdvScheme =   /* Salt. Vert. Advection scheme selector */
(PID.TID 0000.0001)                       7
(PID.TID 0000.0001)     ;
(PID.TID 0000.0001) saltMultiDimAdvec =   /* use Muti-Dim Advec method for Salt */
(PID.TID 0000.0001)                   T
(PID.TID 0000.0001)     ;
(PID.TID 0000.0001) saltSOM_Advection = /* use 2nd Order Moment Advection for Salt */
(PID.TID 0000.0001)                   F
(PID.TID 0000.0001)     ;
(PID.TID 0000.0001) AdamsBashforthGs = /* apply Adams-Bashforth extrapolation on Gs */
(PID.TID 0000.0001)                   F
(PID.TID 0000.0001)     ;
(PID.TID 0000.0001) AdamsBashforth_S = /* apply Adams-Bashforth extrapolation on Salt */
(PID.TID 0000.0001)                   F
(PID.TID 0000.0001)     ;
(PID.TID 0000.0001) // ===================================
(PID.TID 0000.0001) INI_GLOBAL_DOMAIN: Found   0 CS-corner Pts in the domain
(PID.TID 0000.0001) %MON fCori_max                    =   1.4584096177006E-04
(PID.TID 0000.0001) %MON fCori_min                    =  -1.4429171327635E-04
(PID.TID 0000.0001) %MON fCori_mean                   =  -1.9531894197173E-06
(PID.TID 0000.0001) %MON fCori_sd                     =   1.0434730642309E-04
(PID.TID 0000.0001) %MON fCoriG_max                   =   1.4584247033981E-04
(PID.TID 0000.0001) %MON fCoriG_min                   =  -1.4435339896041E-04
(PID.TID 0000.0001) %MON fCoriG_mean                  =  -1.9303770726087E-06
(PID.TID 0000.0001) %MON fCoriG_sd                    =   1.0435958182593E-04
(PID.TID 0000.0001) %MON fCoriCos_max                 =   1.4584158744890E-04
(PID.TID 0000.0001) %MON fCoriCos_min                 =   6.6334365221135E-07
(PID.TID 0000.0001) %MON fCoriCos_mean                =   9.3876998486639E-05
(PID.TID 0000.0001) %MON fCoriCos_sd                  =   3.9559575367967E-05
(PID.TID 0000.0001) INI_CG2D: CG2D normalisation factor =  1.9867335911142027E-04
(PID.TID 0000.0001) 
(PID.TID 0000.0001) // =======================================================
(PID.TID 0000.0001) // Model configuration
(PID.TID 0000.0001) // =======================================================
(PID.TID 0000.0001) //
(PID.TID 0000.0001) // "Physical" paramters ( PARM01 in namelist )
(PID.TID 0000.0001) //
(PID.TID 0000.0001) buoyancyRelation = /* Type of relation to get Buoyancy */
(PID.TID 0000.0001)               'OCEANIC'
(PID.TID 0000.0001)     ;
(PID.TID 0000.0001) fluidIsAir   =  /* fluid major constituent is Air */
(PID.TID 0000.0001)                   F
(PID.TID 0000.0001)     ;
(PID.TID 0000.0001) fluidIsWater =  /* fluid major constituent is Water */
(PID.TID 0000.0001)                   T
(PID.TID 0000.0001)     ;
(PID.TID 0000.0001) usingPCoords =  /* use p (or p*) vertical coordinate */
(PID.TID 0000.0001)                   F
(PID.TID 0000.0001)     ;
(PID.TID 0000.0001) usingZCoords =  /* use z (or z*) vertical coordinate */
(PID.TID 0000.0001)                   T
(PID.TID 0000.0001)     ;
(PID.TID 0000.0001) tRef =   /* Reference temperature profile ( oC or K ) */
(PID.TID 0000.0001)     3 @  2.300000000000000E+01,             /* K =  1:  3 */
(PID.TID 0000.0001)     3 @  2.200000000000000E+01,             /* K =  4:  6 */
(PID.TID 0000.0001)                 2.100000000000000E+01,      /* K =  7 */
(PID.TID 0000.0001)     2 @  2.000000000000000E+01,             /* K =  8:  9 */
(PID.TID 0000.0001)                 1.900000000000000E+01,      /* K = 10 */
(PID.TID 0000.0001)     2 @  1.800000000000000E+01,             /* K = 11: 12 */
(PID.TID 0000.0001)                 1.700000000000000E+01,      /* K = 13 */
(PID.TID 0000.0001)     2 @  1.600000000000000E+01,             /* K = 14: 15 */
(PID.TID 0000.0001)                 1.500000000000000E+01,      /* K = 16 */
(PID.TID 0000.0001)                 1.400000000000000E+01,      /* K = 17 */
(PID.TID 0000.0001)                 1.300000000000000E+01,      /* K = 18 */
(PID.TID 0000.0001)                 1.200000000000000E+01,      /* K = 19 */
(PID.TID 0000.0001)                 1.100000000000000E+01,      /* K = 20 */
(PID.TID 0000.0001)     2 @  9.000000000000000E+00,             /* K = 21: 22 */
(PID.TID 0000.0001)                 8.000000000000000E+00,      /* K = 23 */
(PID.TID 0000.0001)                 7.000000000000000E+00,      /* K = 24 */
(PID.TID 0000.0001)     2 @  6.000000000000000E+00,             /* K = 25: 26 */
(PID.TID 0000.0001)     2 @  5.000000000000000E+00,             /* K = 27: 28 */
(PID.TID 0000.0001)     3 @  4.000000000000000E+00,             /* K = 29: 31 */
(PID.TID 0000.0001)     3 @  3.000000000000000E+00,             /* K = 32: 34 */
(PID.TID 0000.0001)     4 @  2.000000000000000E+00,             /* K = 35: 38 */
(PID.TID 0000.0001)    12 @  1.000000000000000E+00              /* K = 39: 50 */
(PID.TID 0000.0001)     ;
(PID.TID 0000.0001) sRef =   /* Reference salinity profile ( psu ) */
(PID.TID 0000.0001)    50 @  3.450000000000000E+01              /* K =  1: 50 */
(PID.TID 0000.0001)     ;
(PID.TID 0000.0001) useStrainTensionVisc= /* Use StrainTension Form of Viscous Operator */
(PID.TID 0000.0001)                   F
(PID.TID 0000.0001)     ;
(PID.TID 0000.0001) useVariableVisc = /* Use variable horizontal viscosity */
(PID.TID 0000.0001)                   T
(PID.TID 0000.0001)     ;
(PID.TID 0000.0001) useHarmonicVisc = /* Use harmonic horizontal viscosity */
(PID.TID 0000.0001)                   F
(PID.TID 0000.0001)     ;
(PID.TID 0000.0001) useBiharmonicVisc= /* Use biharmonic horiz.  viscosity */
(PID.TID 0000.0001)                   T
(PID.TID 0000.0001)     ;
(PID.TID 0000.0001) useSmag3D = /* Use isotropic 3-D Smagorinsky viscosity */
(PID.TID 0000.0001)                   F
(PID.TID 0000.0001)     ;
(PID.TID 0000.0001) viscAh  =   /* Lateral harmonic viscosity ( m^2/s ) */
(PID.TID 0000.0001)                 0.000000000000000E+00
(PID.TID 0000.0001)     ;
(PID.TID 0000.0001) viscAhMax = /* Maximum lateral harmonic viscosity ( m^2/s ) */
(PID.TID 0000.0001)                 1.000000000000000E+21
(PID.TID 0000.0001)     ;
(PID.TID 0000.0001) viscAhGrid = /* Grid dependent lateral harmonic viscosity ( non-dim. ) */
(PID.TID 0000.0001)                 0.000000000000000E+00
(PID.TID 0000.0001)     ;
(PID.TID 0000.0001) useFullLeith = /* Use Full Form of Leith Viscosity on/off flag*/
(PID.TID 0000.0001)                   F
(PID.TID 0000.0001)     ;
(PID.TID 0000.0001) useAreaViscLength = /* Use area for visc length instead of geom. mean*/
(PID.TID 0000.0001)                   T
(PID.TID 0000.0001)     ;
(PID.TID 0000.0001) viscC2leith = /* Leith harmonic visc. factor (on grad(vort),non-dim.) */
(PID.TID 0000.0001)                 0.000000000000000E+00
(PID.TID 0000.0001)     ;
(PID.TID 0000.0001) viscC2leithD = /* Leith harmonic viscosity factor (on grad(div),non-dim.)*/
(PID.TID 0000.0001)                 0.000000000000000E+00
(PID.TID 0000.0001)     ;
(PID.TID 0000.0001) viscC2smag = /* Smagorinsky harmonic viscosity factor (non-dim.) */
(PID.TID 0000.0001)                 0.000000000000000E+00
(PID.TID 0000.0001)     ;
(PID.TID 0000.0001) viscA4  =   /* Lateral biharmonic viscosity ( m^4/s ) */
(PID.TID 0000.0001)                 0.000000000000000E+00
(PID.TID 0000.0001)     ;
(PID.TID 0000.0001) viscA4Max = /* Maximum biharmonic viscosity ( m^2/s ) */
(PID.TID 0000.0001)                 1.000000000000000E+21
(PID.TID 0000.0001)     ;
(PID.TID 0000.0001) viscA4Grid = /* Grid dependent biharmonic viscosity ( non-dim. ) */
(PID.TID 0000.0001)                 0.000000000000000E+00
(PID.TID 0000.0001)     ;
(PID.TID 0000.0001) viscC4leith = /* Leith biharm viscosity factor (on grad(vort), non-dim.)*/
(PID.TID 0000.0001)                 2.150000000000000E+00
(PID.TID 0000.0001)     ;
(PID.TID 0000.0001) viscC4leithD = /* Leith biharm viscosity factor (on grad(div), non-dim.) */
(PID.TID 0000.0001)                 2.150000000000000E+00
(PID.TID 0000.0001)     ;
(PID.TID 0000.0001) viscC4Smag = /* Smagorinsky biharm viscosity factor (non-dim) */
(PID.TID 0000.0001)                 0.000000000000000E+00
(PID.TID 0000.0001)     ;
(PID.TID 0000.0001) no_slip_sides =  /* Viscous BCs: No-slip sides */
(PID.TID 0000.0001)                   T
(PID.TID 0000.0001)     ;
(PID.TID 0000.0001) sideDragFactor = /* side-drag scaling factor (non-dim) */
(PID.TID 0000.0001)                 2.000000000000000E+00
(PID.TID 0000.0001)     ;
(PID.TID 0000.0001) viscArNr = /* vertical profile of vertical viscosity ( m^2/s )*/
(PID.TID 0000.0001)    50 @  5.661400000000000E-04              /* K =  1: 50 */
(PID.TID 0000.0001)     ;
(PID.TID 0000.0001) no_slip_bottom =  /* Viscous BCs: No-slip bottom */
(PID.TID 0000.0001)                   T
(PID.TID 0000.0001)     ;
(PID.TID 0000.0001) bottomVisc_pCell = /* Partial-cell in bottom Visc. BC */
(PID.TID 0000.0001)                   F
(PID.TID 0000.0001)     ;
(PID.TID 0000.0001) bottomDragLinear = /* linear bottom-drag coefficient ( m/s ) */
(PID.TID 0000.0001)                 0.000000000000000E+00
(PID.TID 0000.0001)     ;
(PID.TID 0000.0001) bottomDragQuadratic = /* quadratic bottom-drag coefficient (-) */
(PID.TID 0000.0001)                 2.100000000000000E-03
(PID.TID 0000.0001)     ;
(PID.TID 0000.0001) selectBotDragQuadr = /* select quadratic bottom drag options */
(PID.TID 0000.0001)                       0
(PID.TID 0000.0001)     ;
(PID.TID 0000.0001) diffKhT =   /* Laplacian diffusion of heat laterally ( m^2/s ) */
(PID.TID 0000.0001)                 0.000000000000000E+00
(PID.TID 0000.0001)     ;
(PID.TID 0000.0001) diffK4T =   /* Biharmonic diffusion of heat laterally ( m^4/s ) */
(PID.TID 0000.0001)                 0.000000000000000E+00
(PID.TID 0000.0001)     ;
(PID.TID 0000.0001) diffKhS =   /* Laplacian diffusion of salt laterally ( m^2/s ) */
(PID.TID 0000.0001)                 0.000000000000000E+00
(PID.TID 0000.0001)     ;
(PID.TID 0000.0001) diffK4S =   /* Biharmonic diffusion of salt laterally ( m^4/s ) */
(PID.TID 0000.0001)                 0.000000000000000E+00
(PID.TID 0000.0001)     ;
(PID.TID 0000.0001) diffKrNrT = /* vertical profile of vertical diffusion of Temp ( m^2/s )*/
(PID.TID 0000.0001)    50 @  5.440000000000000E-07              /* K =  1: 50 */
(PID.TID 0000.0001)     ;
(PID.TID 0000.0001) diffKrNrS = /* vertical profile of vertical diffusion of Salt ( m^2/s )*/
(PID.TID 0000.0001)    50 @  5.440000000000000E-07              /* K =  1: 50 */
(PID.TID 0000.0001)     ;
(PID.TID 0000.0001) diffKrBL79surf = /* Surface diffusion for Bryan and Lewis 79 ( m^2/s ) */
(PID.TID 0000.0001)                 0.000000000000000E+00
(PID.TID 0000.0001)     ;
(PID.TID 0000.0001) diffKrBL79deep = /* Deep diffusion for Bryan and Lewis 1979 ( m^2/s ) */
(PID.TID 0000.0001)                 0.000000000000000E+00
(PID.TID 0000.0001)     ;
(PID.TID 0000.0001) diffKrBL79scl = /* Depth scale for Bryan and Lewis 1979 ( m ) */
(PID.TID 0000.0001)                 2.000000000000000E+02
(PID.TID 0000.0001)     ;
(PID.TID 0000.0001) diffKrBL79Ho = /* Turning depth for Bryan and Lewis 1979 ( m ) */
(PID.TID 0000.0001)                -2.000000000000000E+03
(PID.TID 0000.0001)     ;
(PID.TID 0000.0001) ivdc_kappa = /* Implicit Vertical Diffusivity for Convection ( m^2/s) */
(PID.TID 0000.0001)                 0.000000000000000E+00
(PID.TID 0000.0001)     ;
(PID.TID 0000.0001) hMixCriteria=  /* Criteria for mixed-layer diagnostic */
(PID.TID 0000.0001)                -8.000000000000000E-01
(PID.TID 0000.0001)     ;
(PID.TID 0000.0001) dRhoSmall =  /* Parameter for mixed-layer diagnostic */
(PID.TID 0000.0001)                 1.000000000000000E-06
(PID.TID 0000.0001)     ;
(PID.TID 0000.0001) hMixSmooth=  /* Smoothing parameter for mixed-layer diagnostic */
(PID.TID 0000.0001)                 0.000000000000000E+00
(PID.TID 0000.0001)     ;
(PID.TID 0000.0001) eosType =  /* Type of Equation of State */
(PID.TID 0000.0001)               'JMD95Z'
(PID.TID 0000.0001)     ;
(PID.TID 0000.0001) selectP_inEOS_Zc = /* select pressure to use in EOS (0,1,2,3) */
(PID.TID 0000.0001)                       0
(PID.TID 0000.0001)     0= -g*rhoConst*z ; 1= pRef (from tRef,sRef); 2= Hyd P ; 3= Hyd+NH P
(PID.TID 0000.0001)     ;
(PID.TID 0000.0001) HeatCapacity_Cp =  /* Specific heat capacity ( J/kg/K ) */
(PID.TID 0000.0001)                 3.994000000000000E+03
(PID.TID 0000.0001)     ;
(PID.TID 0000.0001) celsius2K = /* 0 degree Celsius converted to Kelvin ( K ) */
(PID.TID 0000.0001)                 2.731500000000000E+02
(PID.TID 0000.0001)     ;
(PID.TID 0000.0001) rhoConst  = /* Reference density (Boussinesq)  ( kg/m^3 ) */
(PID.TID 0000.0001)                 1.027500000000000E+03
(PID.TID 0000.0001)     ;
(PID.TID 0000.0001) rhoFacC = /* normalized Reference density @ cell-Center (-) */
(PID.TID 0000.0001)    50 @  1.000000000000000E+00              /* K =  1: 50 */
(PID.TID 0000.0001)     ;
(PID.TID 0000.0001) rhoFacF = /* normalized Reference density @ W-Interface (-) */
(PID.TID 0000.0001)    51 @  1.000000000000000E+00              /* K =  1: 51 */
(PID.TID 0000.0001)     ;
(PID.TID 0000.0001) rhoConstFresh = /* Fresh-water reference density ( kg/m^3 ) */
(PID.TID 0000.0001)                 9.998000000000000E+02
(PID.TID 0000.0001)     ;
(PID.TID 0000.0001) gravity =   /* Gravitational acceleration ( m/s^2 ) */
(PID.TID 0000.0001)                 9.810000000000000E+00
(PID.TID 0000.0001)     ;
(PID.TID 0000.0001) gBaro =   /* Barotropic gravity ( m/s^2 ) */
(PID.TID 0000.0001)                 9.810000000000000E+00
(PID.TID 0000.0001)     ;
(PID.TID 0000.0001) gravFacC = /* gravity factor (vs surf.) @ cell-Center (-) */
(PID.TID 0000.0001)    50 @  1.000000000000000E+00              /* K =  1: 50 */
(PID.TID 0000.0001)     ;
(PID.TID 0000.0001) gravFacF = /* gravity factor (vs surf.) @ W-Interface (-) */
(PID.TID 0000.0001)    51 @  1.000000000000000E+00              /* K =  1: 51 */
(PID.TID 0000.0001)     ;
(PID.TID 0000.0001) rotationPeriod =   /* Rotation Period ( s ) */
(PID.TID 0000.0001)                 8.616400000000000E+04
(PID.TID 0000.0001)     ;
(PID.TID 0000.0001) omega =   /* Angular velocity ( rad/s ) */
(PID.TID 0000.0001)                 7.292123516990375E-05
(PID.TID 0000.0001)     ;
(PID.TID 0000.0001) f0 =   /* Reference coriolis parameter ( 1/s ) */
(PID.TID 0000.0001)                 1.000000000000000E-04
(PID.TID 0000.0001)     ;
(PID.TID 0000.0001) beta =   /* Beta ( 1/(m.s) ) */
(PID.TID 0000.0001)                 9.999999999999999E-12
(PID.TID 0000.0001)     ;
(PID.TID 0000.0001) fPrime =   /* Second coriolis parameter ( 1/s ) */
(PID.TID 0000.0001)                 0.000000000000000E+00
(PID.TID 0000.0001)     ;
(PID.TID 0000.0001) rigidLid =   /* Rigid lid on/off flag */
(PID.TID 0000.0001)                   F
(PID.TID 0000.0001)     ;
(PID.TID 0000.0001) implicitFreeSurface =   /* Implicit free surface on/off flag */
(PID.TID 0000.0001)                   T
(PID.TID 0000.0001)     ;
(PID.TID 0000.0001) freeSurfFac =   /* Implicit free surface factor */
(PID.TID 0000.0001)                 1.000000000000000E+00
(PID.TID 0000.0001)     ;
(PID.TID 0000.0001) implicSurfPress =  /* Surface Pressure implicit factor (0-1)*/
(PID.TID 0000.0001)                 6.000000000000000E-01
(PID.TID 0000.0001)     ;
(PID.TID 0000.0001) implicDiv2DFlow =  /* Barot. Flow Div. implicit factor (0-1)*/
(PID.TID 0000.0001)                 6.000000000000000E-01
(PID.TID 0000.0001)     ;
(PID.TID 0000.0001) uniformLin_PhiSurf = /* use uniform Bo_surf on/off flag*/
(PID.TID 0000.0001)                   T
(PID.TID 0000.0001)     ;
(PID.TID 0000.0001) uniformFreeSurfLev = /* free-surface level-index is uniform */
(PID.TID 0000.0001)                   T
(PID.TID 0000.0001)     ;
(PID.TID 0000.0001) hFacMin =   /* minimum partial cell factor (hFac) */
(PID.TID 0000.0001)                 3.000000000000000E-01
(PID.TID 0000.0001)     ;
(PID.TID 0000.0001) hFacMinDr = /* minimum partial cell thickness ( m) */
(PID.TID 0000.0001)                 0.000000000000000E+00
(PID.TID 0000.0001)     ;
(PID.TID 0000.0001) exactConserv =  /* Exact Volume Conservation on/off flag*/
(PID.TID 0000.0001)                   T
(PID.TID 0000.0001)     ;
(PID.TID 0000.0001) linFSConserveTr = /* Tracer correction for Lin Free Surface on/off flag*/
(PID.TID 0000.0001)                   F
(PID.TID 0000.0001)     ;
(PID.TID 0000.0001) nonlinFreeSurf = /* Non-linear Free Surf. options (-1,0,1,2,3)*/
(PID.TID 0000.0001)                       0
(PID.TID 0000.0001)      -1,0= Off ; 1,2,3= On, 2=+rescale gU,gV, 3=+update cg2d solv.
(PID.TID 0000.0001)     ;
(PID.TID 0000.0001) hFacInf =   /* lower threshold for hFac (nonlinFreeSurf only)*/
(PID.TID 0000.0001)                 1.000000000000000E-01
(PID.TID 0000.0001)     ;
(PID.TID 0000.0001) hFacSup =   /* upper threshold for hFac (nonlinFreeSurf only)*/
(PID.TID 0000.0001)                 5.000000000000000E+00
(PID.TID 0000.0001)     ;
(PID.TID 0000.0001) select_rStar = /* r* Vertical coord. options (=0 r coord.; >0 uses r*)*/
(PID.TID 0000.0001)                       0
(PID.TID 0000.0001)     ;
(PID.TID 0000.0001) useRealFreshWaterFlux = /* Real Fresh Water Flux on/off flag*/
(PID.TID 0000.0001)                   T
(PID.TID 0000.0001)     ;
(PID.TID 0000.0001) temp_EvPrRn = /* Temp. of Evap/Prec/R (UNSET=use local T)(oC)*/
(PID.TID 0000.0001)                 0.000000000000000E+00
(PID.TID 0000.0001)     ;
(PID.TID 0000.0001) salt_EvPrRn = /* Salin. of Evap/Prec/R (UNSET=use local S)(psu)*/
(PID.TID 0000.0001)                 0.000000000000000E+00
(PID.TID 0000.0001)     ;
(PID.TID 0000.0001) selectAddFluid = /* option for mass source/sink of fluid (=0: off) */
(PID.TID 0000.0001)                       0
(PID.TID 0000.0001)     ;
(PID.TID 0000.0001) temp_addMass = /* Temp. of addMass array (UNSET=use local T)(oC)*/
(PID.TID 0000.0001)                 0.000000000000000E+00
(PID.TID 0000.0001)     ;
(PID.TID 0000.0001) salt_addMass = /* Salin. of addMass array (UNSET=use local S)(psu)*/
(PID.TID 0000.0001)                 0.000000000000000E+00
(PID.TID 0000.0001)     ;
(PID.TID 0000.0001) convertFW2Salt = /* convert F.W. Flux to Salt Flux (-1=use local S)(psu)*/
(PID.TID 0000.0001)                -1.000000000000000E+00
(PID.TID 0000.0001)     ;
(PID.TID 0000.0001) use3Dsolver = /* use 3-D pressure solver on/off flag */
(PID.TID 0000.0001)                   F
(PID.TID 0000.0001)     ;
(PID.TID 0000.0001) nonHydrostatic =  /* Non-Hydrostatic on/off flag */
(PID.TID 0000.0001)                   F
(PID.TID 0000.0001)     ;
(PID.TID 0000.0001) nh_Am2 = /* Non-Hydrostatic terms scaling factor */
(PID.TID 0000.0001)                 1.000000000000000E+00
(PID.TID 0000.0001)     ;
(PID.TID 0000.0001) implicitNHPress = /* Non-Hyd Pressure implicit factor (0-1)*/
(PID.TID 0000.0001)                 6.000000000000000E-01
(PID.TID 0000.0001)     ;
(PID.TID 0000.0001) selectNHfreeSurf = /* Non-Hyd (free-)Surface option */
(PID.TID 0000.0001)                       0
(PID.TID 0000.0001)     ;
(PID.TID 0000.0001) quasiHydrostatic = /* Quasi-Hydrostatic on/off flag */
(PID.TID 0000.0001)                   F
(PID.TID 0000.0001)     ;
(PID.TID 0000.0001) calc_wVelocity = /* vertical velocity calculation on/off flag */
(PID.TID 0000.0001)                   T
(PID.TID 0000.0001)     ;
(PID.TID 0000.0001) momStepping =  /* Momentum equation on/off flag */
(PID.TID 0000.0001)                   T
(PID.TID 0000.0001)     ;
(PID.TID 0000.0001) vectorInvariantMomentum= /* Vector-Invariant Momentum on/off */
(PID.TID 0000.0001)                   T
(PID.TID 0000.0001)     ;
(PID.TID 0000.0001) momAdvection =  /* Momentum advection on/off flag */
(PID.TID 0000.0001)                   T
(PID.TID 0000.0001)     ;
(PID.TID 0000.0001) momViscosity =  /* Momentum viscosity on/off flag */
(PID.TID 0000.0001)                   T
(PID.TID 0000.0001)     ;
(PID.TID 0000.0001) momImplVertAdv= /* Momentum implicit vert. advection on/off*/
(PID.TID 0000.0001)                   F
(PID.TID 0000.0001)     ;
(PID.TID 0000.0001) implicitViscosity = /* Implicit viscosity on/off flag */
(PID.TID 0000.0001)                   T
(PID.TID 0000.0001)     ;
(PID.TID 0000.0001) selectImplicitDrag= /* Implicit bot Drag options (0,1,2)*/
(PID.TID 0000.0001)                       0
(PID.TID 0000.0001)     0= Expl. ; 1= Impl. on provis. Vel ; 2= Fully Impl (with surf.P)
(PID.TID 0000.0001)     ;
(PID.TID 0000.0001) metricTerms =  /* metric-Terms on/off flag */
(PID.TID 0000.0001)                   F
(PID.TID 0000.0001)     ;
(PID.TID 0000.0001) useNHMTerms = /* Non-Hydrostatic Metric-Terms on/off */
(PID.TID 0000.0001)                   F
(PID.TID 0000.0001)     ;
(PID.TID 0000.0001) selectCoriMap = /* Coriolis Map options (0,1,2,3)*/
(PID.TID 0000.0001)                       2
(PID.TID 0000.0001)     0= f-Plane ; 1= Beta-Plane ; 2= Spherical ; 3= read from file
(PID.TID 0000.0001)     ;
(PID.TID 0000.0001) use3dCoriolis = /* 3-D Coriolis on/off flag */
(PID.TID 0000.0001)                   F
(PID.TID 0000.0001)     ;
(PID.TID 0000.0001) useCoriolis =  /* Coriolis on/off flag */
(PID.TID 0000.0001)                   T
(PID.TID 0000.0001)     ;
(PID.TID 0000.0001) useCDscheme =  /* CD scheme on/off flag */
(PID.TID 0000.0001)                   F
(PID.TID 0000.0001)     ;
(PID.TID 0000.0001) useEnergyConservingCoriolis= /* Flx-Form Coriolis scheme flag */
(PID.TID 0000.0001)                   F
(PID.TID 0000.0001)     ;
(PID.TID 0000.0001) useJamartWetPoints= /* Coriolis WetPoints method flag */
(PID.TID 0000.0001)                   F
(PID.TID 0000.0001)     ;
(PID.TID 0000.0001) useJamartMomAdv= /* V.I Non-linear terms Jamart flag */
(PID.TID 0000.0001)                   F
(PID.TID 0000.0001)     ;
(PID.TID 0000.0001) useAbsVorticity= /* V.I Works with f+zeta in Coriolis */
(PID.TID 0000.0001)                   F
(PID.TID 0000.0001)     ;
(PID.TID 0000.0001) selectVortScheme= /* V.I Scheme selector for Vorticity-Term */
(PID.TID 0000.0001)                       0
(PID.TID 0000.0001)    = 0 : enstrophy (Shallow-Water Eq.) conserving scheme by Sadourny, JAS 75
(PID.TID 0000.0001)    = 1 : same as 0 with modified hFac
(PID.TID 0000.0001)    = 2 : energy conserving scheme (used by Sadourny in JAS 75 paper)
(PID.TID 0000.0001)    = 3 : energy (general) and enstrophy (2D, nonDiv.) conserving scheme
(PID.TID 0000.0001)          from Sadourny (Burridge & Haseler, ECMWF Rep.4, 1977)
(PID.TID 0000.0001)     ;
(PID.TID 0000.0001) upwindVorticity= /* V.I Upwind bias vorticity flag */
(PID.TID 0000.0001)                   F
(PID.TID 0000.0001)     ;
(PID.TID 0000.0001) highOrderVorticity= /* V.I High order vort. advect. flag */
(PID.TID 0000.0001)                   T
(PID.TID 0000.0001)     ;
(PID.TID 0000.0001) upwindShear= /* V.I Upwind vertical Shear advection flag */
(PID.TID 0000.0001)                   F
(PID.TID 0000.0001)     ;
(PID.TID 0000.0001) selectKEscheme= /* V.I Kinetic Energy scheme selector */
(PID.TID 0000.0001)                       0
(PID.TID 0000.0001)     ;
(PID.TID 0000.0001) momForcing =  /* Momentum forcing on/off flag */
(PID.TID 0000.0001)                   T
(PID.TID 0000.0001)     ;
(PID.TID 0000.0001) momTidalForcing = /* Momentum Tidal forcing on/off flag */
(PID.TID 0000.0001)                   T
(PID.TID 0000.0001)     ;
(PID.TID 0000.0001) momPressureForcing =  /* Momentum pressure term on/off flag */
(PID.TID 0000.0001)                   T
(PID.TID 0000.0001)     ;
(PID.TID 0000.0001) implicitIntGravWave= /* Implicit Internal Gravity Wave flag */
(PID.TID 0000.0001)                   F
(PID.TID 0000.0001)     ;
(PID.TID 0000.0001) staggerTimeStep =    /* Stagger time stepping on/off flag */
(PID.TID 0000.0001)                   T
(PID.TID 0000.0001)     ;
(PID.TID 0000.0001) doResetHFactors = /* reset thickness factors @ each time-step */
(PID.TID 0000.0001)                   F
(PID.TID 0000.0001)     ;
(PID.TID 0000.0001) multiDimAdvection =  /* enable/disable Multi-Dim Advection */
(PID.TID 0000.0001)                   T
(PID.TID 0000.0001)     ;
(PID.TID 0000.0001) useMultiDimAdvec =   /* Multi-Dim Advection is/is-not used */
(PID.TID 0000.0001)                   T
(PID.TID 0000.0001)     ;
(PID.TID 0000.0001) implicitDiffusion = /* Implicit Diffusion on/off flag */
(PID.TID 0000.0001)                   T
(PID.TID 0000.0001)     ;
(PID.TID 0000.0001) tempStepping =  /* Temperature equation on/off flag */
(PID.TID 0000.0001)                   T
(PID.TID 0000.0001)     ;
(PID.TID 0000.0001) tempAdvection = /* Temperature advection on/off flag */
(PID.TID 0000.0001)                   T
(PID.TID 0000.0001)     ;
(PID.TID 0000.0001) tempImplVertAdv = /* Temp. implicit vert. advection on/off */
(PID.TID 0000.0001)                   F
(PID.TID 0000.0001)     ;
(PID.TID 0000.0001) tempForcing  =  /* Temperature forcing on/off flag */
(PID.TID 0000.0001)                   T
(PID.TID 0000.0001)     ;
(PID.TID 0000.0001) doThetaClimRelax = /* apply SST relaxation on/off flag */
(PID.TID 0000.0001)                   F
(PID.TID 0000.0001)     ;
(PID.TID 0000.0001) tempIsActiveTr = /* Temp. is a dynamically Active Tracer */
(PID.TID 0000.0001)                   T
(PID.TID 0000.0001)     ;
(PID.TID 0000.0001) saltStepping =  /* Salinity equation on/off flag */
(PID.TID 0000.0001)                   T
(PID.TID 0000.0001)     ;
(PID.TID 0000.0001) saltAdvection = /* Salinity advection on/off flag */
(PID.TID 0000.0001)                   T
(PID.TID 0000.0001)     ;
(PID.TID 0000.0001) saltImplVertAdv = /* Sali. implicit vert. advection on/off */
(PID.TID 0000.0001)                   F
(PID.TID 0000.0001)     ;
(PID.TID 0000.0001) saltForcing  =  /* Salinity forcing on/off flag */
(PID.TID 0000.0001)                   T
(PID.TID 0000.0001)     ;
(PID.TID 0000.0001) doSaltClimRelax = /* apply SSS relaxation on/off flag */
(PID.TID 0000.0001)                   F
(PID.TID 0000.0001)     ;
(PID.TID 0000.0001) saltIsActiveTr = /* Salt  is a dynamically Active Tracer */
(PID.TID 0000.0001)                   T
(PID.TID 0000.0001)     ;
(PID.TID 0000.0001)  readBinaryPrec = /* Precision used for reading binary files */
(PID.TID 0000.0001)                      32
(PID.TID 0000.0001)     ;
(PID.TID 0000.0001) writeBinaryPrec = /* Precision used for writing binary files */
(PID.TID 0000.0001)                      32
(PID.TID 0000.0001)     ;
(PID.TID 0000.0001)  rwSuffixType =   /* select format of mds file suffix */
(PID.TID 0000.0001)                       0
(PID.TID 0000.0001)    = 0 : myIter (I10.10) ;   = 1 : 100*myTime (100th sec) ;
(PID.TID 0000.0001)    = 2 : myTime (seconds);   = 3 : myTime/360 (10th of hr);
(PID.TID 0000.0001)    = 4 : myTime/3600 (hours)
(PID.TID 0000.0001)     ;
(PID.TID 0000.0001)  globalFiles = /* write "global" (=not per tile) files */
(PID.TID 0000.0001)                   T
(PID.TID 0000.0001)     ;
(PID.TID 0000.0001)  useSingleCpuIO = /* only master MPI process does I/O */
(PID.TID 0000.0001)                   T
(PID.TID 0000.0001)     ;
(PID.TID 0000.0001)  useSingleCpuInput = /* only master process reads input */
(PID.TID 0000.0001)                   T
(PID.TID 0000.0001)     ;
(PID.TID 0000.0001) /* debLev[*]  : level of debug & auxiliary message printing */
(PID.TID 0000.0001) debLevZero =  0 ; /* level of disabled aux. msg printing */
(PID.TID 0000.0001)    debLevA =  1 ; /* level of minimum  aux. msg printing */
(PID.TID 0000.0001)    debLevB =  2 ; /* level of low aux. print (report read-file opening)*/
(PID.TID 0000.0001)    debLevC =  3 ; /* level of moderate debug prt (most pkgs debug msg) */
(PID.TID 0000.0001)    debLevD =  4 ; /* level of enhanced debug prt (add DEBUG_STATS prt) */
(PID.TID 0000.0001)    debLevE =  5 ; /* level of extensive debug printing */
(PID.TID 0000.0001) debugLevel =  /* select debug printing level */
(PID.TID 0000.0001)                       2
(PID.TID 0000.0001)     ;
(PID.TID 0000.0001)  plotLevel =  /* select PLOT_FIELD printing level */
(PID.TID 0000.0001)                       2
(PID.TID 0000.0001)     ;
(PID.TID 0000.0001) //
(PID.TID 0000.0001) // Elliptic solver(s) paramters ( PARM02 in namelist )
(PID.TID 0000.0001) //
(PID.TID 0000.0001) cg2dMaxIters =   /* Upper limit on 2d con. grad iterations  */
(PID.TID 0000.0001)                     100
(PID.TID 0000.0001)     ;
(PID.TID 0000.0001) cg2dChkResFreq =   /* 2d con. grad convergence test frequency */
(PID.TID 0000.0001)                       1
(PID.TID 0000.0001)     ;
(PID.TID 0000.0001) cg2dUseMinResSol= /* use cg2d last-iter(=0) / min-resid.(=1) solution */
(PID.TID 0000.0001)                       0
(PID.TID 0000.0001)     ;
(PID.TID 0000.0001) cg2dTargetResidual =   /* 2d con. grad target residual  */
(PID.TID 0000.0001)                 1.000000000000000E-05
(PID.TID 0000.0001)     ;
(PID.TID 0000.0001) cg2dTargetResWunit =   /* CG2d target residual [W units] */
(PID.TID 0000.0001)                -1.000000000000000E+00
(PID.TID 0000.0001)     ;
(PID.TID 0000.0001) cg2dPreCondFreq =   /* Freq. for updating cg2d preconditioner */
(PID.TID 0000.0001)                       1
(PID.TID 0000.0001)     ;
(PID.TID 0000.0001) useSRCGSolver =  /* use single reduction CG solver(s) */
(PID.TID 0000.0001)                   F
(PID.TID 0000.0001)     ;
(PID.TID 0000.0001) printResidualFreq = /* Freq. for printing CG residual */
(PID.TID 0000.0001)                       0
(PID.TID 0000.0001)     ;
(PID.TID 0000.0001) //
(PID.TID 0000.0001) // Time stepping paramters ( PARM03 in namelist )
(PID.TID 0000.0001) //
(PID.TID 0000.0001) deltaTMom =   /* Momentum equation timestep ( s ) */
(PID.TID 0000.0001)                 9.000000000000000E+02
(PID.TID 0000.0001)     ;
(PID.TID 0000.0001) deltaTFreeSurf = /* FreeSurface equation timestep ( s ) */
(PID.TID 0000.0001)                 9.000000000000000E+02
(PID.TID 0000.0001)     ;
(PID.TID 0000.0001) dTtracerLev =  /* Tracer equation timestep ( s ) */
(PID.TID 0000.0001)    50 @  9.000000000000000E+02              /* K =  1: 50 */
(PID.TID 0000.0001)     ;
(PID.TID 0000.0001) deltaTClock  =   /* Model clock timestep ( s ) */
(PID.TID 0000.0001)                 9.000000000000000E+02
(PID.TID 0000.0001)     ;
(PID.TID 0000.0001) cAdjFreq =   /* Convective adjustment interval ( s ) */
(PID.TID 0000.0001)                 0.000000000000000E+00
(PID.TID 0000.0001)     ;
(PID.TID 0000.0001) momForcingOutAB = /* =1: take Momentum Forcing out of Adams-Bash. stepping */
(PID.TID 0000.0001)                       1
(PID.TID 0000.0001)     ;
(PID.TID 0000.0001) tracForcingOutAB = /* =1: take T,S,pTr Forcing out of Adams-Bash. stepping */
(PID.TID 0000.0001)                       1
(PID.TID 0000.0001)     ;
(PID.TID 0000.0001) momDissip_In_AB = /* put Dissipation Tendency in Adams-Bash. stepping */
(PID.TID 0000.0001)                   F
(PID.TID 0000.0001)     ;
(PID.TID 0000.0001) doAB_onGtGs = /* apply AB on Tendencies (rather than on T,S)*/
(PID.TID 0000.0001)                   T
(PID.TID 0000.0001)     ;
(PID.TID 0000.0001) abEps =   /* Adams-Bashforth-2 stabilizing weight */
(PID.TID 0000.0001)                 1.000000000000000E-01
(PID.TID 0000.0001)     ;
(PID.TID 0000.0001) applyExchUV_early = /* Apply EXCH to U,V earlier in time-step */
(PID.TID 0000.0001)                   F
(PID.TID 0000.0001)     ;
(PID.TID 0000.0001) pickupStrictlyMatch= /* stop if pickup do not strictly match */
(PID.TID 0000.0001)                   T
(PID.TID 0000.0001)     ;
(PID.TID 0000.0001) nIter0   =   /* Run starting timestep number */
(PID.TID 0000.0001)                       1
(PID.TID 0000.0001)     ;
(PID.TID 0000.0001) nTimeSteps = /* Number of timesteps */
(PID.TID 0000.0001)                      96
(PID.TID 0000.0001)     ;
(PID.TID 0000.0001) nEndIter =   /* Run ending timestep number */
(PID.TID 0000.0001)                      97
(PID.TID 0000.0001)     ;
(PID.TID 0000.0001) baseTime =   /* Model base time ( s ) */
(PID.TID 0000.0001)                 0.000000000000000E+00
(PID.TID 0000.0001)     ;
(PID.TID 0000.0001) startTime =  /* Run start time ( s ) */
(PID.TID 0000.0001)                 9.000000000000000E+02
(PID.TID 0000.0001)     ;
(PID.TID 0000.0001) endTime  =   /* Integration ending time ( s ) */
(PID.TID 0000.0001)                 8.730000000000000E+04
(PID.TID 0000.0001)     ;
(PID.TID 0000.0001) pChkPtFreq = /* Permanent restart/pickup file interval ( s ) */
(PID.TID 0000.0001)                 0.000000000000000E+00
(PID.TID 0000.0001)     ;
(PID.TID 0000.0001) chkPtFreq  = /* Rolling restart/pickup file interval ( s ) */
(PID.TID 0000.0001)                 8.640000000000000E+04
(PID.TID 0000.0001)     ;
(PID.TID 0000.0001) pickup_write_mdsio =   /* Model IO flag. */
(PID.TID 0000.0001)                   T
(PID.TID 0000.0001)     ;
(PID.TID 0000.0001) pickup_read_mdsio =   /* Model IO flag. */
(PID.TID 0000.0001)                   T
(PID.TID 0000.0001)     ;
(PID.TID 0000.0001) writePickupAtEnd =   /* Model IO flag. */
(PID.TID 0000.0001)                   T
(PID.TID 0000.0001)     ;
(PID.TID 0000.0001) dumpFreq =   /* Model state write out interval ( s ). */
(PID.TID 0000.0001)                 3.600000000000000E+03
(PID.TID 0000.0001)     ;
(PID.TID 0000.0001) dumpInitAndLast= /* write out Initial & Last iter. model state */
(PID.TID 0000.0001)                   F
(PID.TID 0000.0001)     ;
(PID.TID 0000.0001) snapshot_mdsio =   /* Model IO flag. */
(PID.TID 0000.0001)                   T
(PID.TID 0000.0001)     ;
(PID.TID 0000.0001) monitorFreq =   /* Monitor output interval ( s ). */
(PID.TID 0000.0001)                 7.200000000000000E+03
(PID.TID 0000.0001)     ;
(PID.TID 0000.0001) monitorSelect = /* select group of variables to monitor */
(PID.TID 0000.0001)                       3
(PID.TID 0000.0001)     ;
(PID.TID 0000.0001) monitor_stdio =   /* Model IO flag. */
(PID.TID 0000.0001)                   T
(PID.TID 0000.0001)     ;
(PID.TID 0000.0001) externForcingPeriod =   /* forcing period (s) */
(PID.TID 0000.0001)                 0.000000000000000E+00
(PID.TID 0000.0001)     ;
(PID.TID 0000.0001) externForcingCycle =   /* period of the cyle (s). */
(PID.TID 0000.0001)                 0.000000000000000E+00
(PID.TID 0000.0001)     ;
(PID.TID 0000.0001) tauThetaClimRelax =   /* relaxation time scale (s) */
(PID.TID 0000.0001)                 0.000000000000000E+00
(PID.TID 0000.0001)     ;
(PID.TID 0000.0001) tauSaltClimRelax =   /* relaxation time scale (s) */
(PID.TID 0000.0001)                 0.000000000000000E+00
(PID.TID 0000.0001)     ;
(PID.TID 0000.0001) latBandClimRelax =   /* max. Lat. where relaxation */
(PID.TID 0000.0001)                 1.800000000000000E+02
(PID.TID 0000.0001)     ;
(PID.TID 0000.0001) //
(PID.TID 0000.0001) // Gridding paramters ( PARM04 in namelist )
(PID.TID 0000.0001) //
(PID.TID 0000.0001) usingCartesianGrid = /* Cartesian coordinates flag ( True/False ) */
(PID.TID 0000.0001)                   F
(PID.TID 0000.0001)     ;
(PID.TID 0000.0001) usingCylindricalGrid = /* Cylindrical coordinates flag ( True/False ) */
(PID.TID 0000.0001)                   F
(PID.TID 0000.0001)     ;
(PID.TID 0000.0001) usingSphericalPolarGrid = /* Spherical coordinates flag ( True/False ) */
(PID.TID 0000.0001)                   F
(PID.TID 0000.0001)     ;
(PID.TID 0000.0001) usingCurvilinearGrid = /* Curvilinear coordinates flag ( True/False ) */
(PID.TID 0000.0001)                   T
(PID.TID 0000.0001)     ;
(PID.TID 0000.0001) useMin4hFacEdges = /* set hFacW,S as minimum of adjacent hFacC factor */
(PID.TID 0000.0001)                   F
(PID.TID 0000.0001)     ;
(PID.TID 0000.0001) selectSigmaCoord = /* Hybrid-Sigma Vert. Coordinate option */
(PID.TID 0000.0001)                       0
(PID.TID 0000.0001)     ;
(PID.TID 0000.0001) rSigmaBnd = /* r/sigma transition ( units of r ==  m ) */
(PID.TID 0000.0001)                 1.234567000000000E+05
(PID.TID 0000.0001)     ;
(PID.TID 0000.0001) rkSign =   /* index orientation relative to vertical coordinate */
(PID.TID 0000.0001)                -1.000000000000000E+00
(PID.TID 0000.0001)     ;
(PID.TID 0000.0001) gravitySign = /* gravity orientation relative to vertical coordinate */
(PID.TID 0000.0001)                -1.000000000000000E+00
(PID.TID 0000.0001)     ;
(PID.TID 0000.0001) seaLev_Z =  /* reference height of sea-level [m] */
(PID.TID 0000.0001)                 0.000000000000000E+00
(PID.TID 0000.0001)     ;
(PID.TID 0000.0001) top_Pres =  /* reference pressure at the top [Pa] */
(PID.TID 0000.0001)                 0.000000000000000E+00
(PID.TID 0000.0001)     ;
(PID.TID 0000.0001) mass2rUnit = /* convert mass per unit area [kg/m2] to r-units [m] */
(PID.TID 0000.0001)                 9.732360097323601E-04
(PID.TID 0000.0001)     ;
(PID.TID 0000.0001) rUnit2mass = /* convert r-units [m] to mass per unit area [kg/m2] */
(PID.TID 0000.0001)                 1.027500000000000E+03
(PID.TID 0000.0001)     ;
(PID.TID 0000.0001) drC =   /* C spacing ( units of r ) */
(PID.TID 0000.0001)                 5.000000000000000E+00,      /* K =  1 */
(PID.TID 0000.0001)     6 @  1.000000000000000E+01,             /* K =  2:  7 */
(PID.TID 0000.0001)                 1.000500000000000E+01,      /* K =  8 */
(PID.TID 0000.0001)                 1.002000000000000E+01,      /* K =  9 */
(PID.TID 0000.0001)                 1.007000000000000E+01,      /* K = 10 */
(PID.TID 0000.0001)                 1.021500000000000E+01,      /* K = 11 */
(PID.TID 0000.0001)                 1.056000000000000E+01,      /* K = 12 */
(PID.TID 0000.0001)                 1.128000000000000E+01,      /* K = 13 */
(PID.TID 0000.0001)                 1.259000000000000E+01,      /* K = 14 */
(PID.TID 0000.0001)                 1.473000000000000E+01,      /* K = 15 */
(PID.TID 0000.0001)                 1.793000000000000E+01,      /* K = 16 */
(PID.TID 0000.0001)                 2.233500000000000E+01,      /* K = 17 */
(PID.TID 0000.0001)                 2.797500000000000E+01,      /* K = 18 */
(PID.TID 0000.0001)                 3.476000000000001E+01,      /* K = 19 */
(PID.TID 0000.0001)                 4.246000000000000E+01,      /* K = 20 */
(PID.TID 0000.0001)                 5.075000000000000E+01,      /* K = 21 */
(PID.TID 0000.0001)                 5.925000000000000E+01,      /* K = 22 */
(PID.TID 0000.0001)                 6.753999999999999E+01,      /* K = 23 */
(PID.TID 0000.0001)                 7.524000000000001E+01,      /* K = 24 */
(PID.TID 0000.0001)                 8.202500000000001E+01,      /* K = 25 */
(PID.TID 0000.0001)                 8.766500000000001E+01,      /* K = 26 */
(PID.TID 0000.0001)                 9.206999999999999E+01,      /* K = 27 */
(PID.TID 0000.0001)                 9.527000000000000E+01,      /* K = 28 */
(PID.TID 0000.0001)                 9.741499999999999E+01,      /* K = 29 */
(PID.TID 0000.0001)                 9.875000000000000E+01,      /* K = 30 */
(PID.TID 0000.0001)                 9.963000000000000E+01,      /* K = 31 */
(PID.TID 0000.0001)                 1.006700000000000E+02,      /* K = 32 */
(PID.TID 0000.0001)                 1.029450000000000E+02,      /* K = 33 */
(PID.TID 0000.0001)                 1.079450000000000E+02,      /* K = 34 */
(PID.TID 0000.0001)                 1.170800000000000E+02,      /* K = 35 */
(PID.TID 0000.0001)                 1.309600000000000E+02,      /* K = 36 */
(PID.TID 0000.0001)                 1.490150000000000E+02,      /* K = 37 */
(PID.TID 0000.0001)                 1.698850000000000E+02,      /* K = 38 */
(PID.TID 0000.0001)                 1.921900000000000E+02,      /* K = 39 */
(PID.TID 0000.0001)                 2.150250000000000E+02,      /* K = 40 */
(PID.TID 0000.0001)                 2.380000000000000E+02,      /* K = 41 */
(PID.TID 0000.0001)                 2.610000000000000E+02,      /* K = 42 */
(PID.TID 0000.0001)                 2.840000000000000E+02,      /* K = 43 */
(PID.TID 0000.0001)                 3.070000000000000E+02,      /* K = 44 */
(PID.TID 0000.0001)                 3.300000000000000E+02,      /* K = 45 */
(PID.TID 0000.0001)                 3.530000000000000E+02,      /* K = 46 */
(PID.TID 0000.0001)                 3.760000000000000E+02,      /* K = 47 */
(PID.TID 0000.0001)                 3.990000000000000E+02,      /* K = 48 */
(PID.TID 0000.0001)                 4.220000000000000E+02,      /* K = 49 */
(PID.TID 0000.0001)                 4.450000000000000E+02,      /* K = 50 */
(PID.TID 0000.0001)                 2.282500000000000E+02       /* K = 51 */
(PID.TID 0000.0001)     ;
(PID.TID 0000.0001) drF =   /* W spacing ( units of r ) */
(PID.TID 0000.0001)     7 @  1.000000000000000E+01,             /* K =  1:  7 */
(PID.TID 0000.0001)                 1.001000000000000E+01,      /* K =  8 */
(PID.TID 0000.0001)                 1.003000000000000E+01,      /* K =  9 */
(PID.TID 0000.0001)                 1.011000000000000E+01,      /* K = 10 */
(PID.TID 0000.0001)                 1.032000000000000E+01,      /* K = 11 */
(PID.TID 0000.0001)                 1.080000000000000E+01,      /* K = 12 */
(PID.TID 0000.0001)                 1.176000000000000E+01,      /* K = 13 */
(PID.TID 0000.0001)                 1.342000000000000E+01,      /* K = 14 */
(PID.TID 0000.0001)                 1.604000000000000E+01,      /* K = 15 */
(PID.TID 0000.0001)                 1.982000000000000E+01,      /* K = 16 */
(PID.TID 0000.0001)                 2.485000000000000E+01,      /* K = 17 */
(PID.TID 0000.0001)                 3.110000000000000E+01,      /* K = 18 */
(PID.TID 0000.0001)                 3.842000000000000E+01,      /* K = 19 */
(PID.TID 0000.0001)                 4.650000000000000E+01,      /* K = 20 */
(PID.TID 0000.0001)                 5.500000000000000E+01,      /* K = 21 */
(PID.TID 0000.0001)                 6.350000000000000E+01,      /* K = 22 */
(PID.TID 0000.0001)                 7.158000000000000E+01,      /* K = 23 */
(PID.TID 0000.0001)                 7.890000000000001E+01,      /* K = 24 */
(PID.TID 0000.0001)                 8.515000000000001E+01,      /* K = 25 */
(PID.TID 0000.0001)                 9.018000000000001E+01,      /* K = 26 */
(PID.TID 0000.0001)                 9.395999999999999E+01,      /* K = 27 */
(PID.TID 0000.0001)                 9.658000000000000E+01,      /* K = 28 */
(PID.TID 0000.0001)                 9.825000000000000E+01,      /* K = 29 */
(PID.TID 0000.0001)                 9.925000000000000E+01,      /* K = 30 */
(PID.TID 0000.0001)                 1.000100000000000E+02,      /* K = 31 */
(PID.TID 0000.0001)                 1.013300000000000E+02,      /* K = 32 */
(PID.TID 0000.0001)                 1.045600000000000E+02,      /* K = 33 */
(PID.TID 0000.0001)                 1.113300000000000E+02,      /* K = 34 */
(PID.TID 0000.0001)                 1.228300000000000E+02,      /* K = 35 */
(PID.TID 0000.0001)                 1.390900000000000E+02,      /* K = 36 */
(PID.TID 0000.0001)                 1.589400000000000E+02,      /* K = 37 */
(PID.TID 0000.0001)                 1.808300000000000E+02,      /* K = 38 */
(PID.TID 0000.0001)                 2.035500000000000E+02,      /* K = 39 */
(PID.TID 0000.0001)                 2.265000000000000E+02,      /* K = 40 */
(PID.TID 0000.0001)                 2.495000000000000E+02,      /* K = 41 */
(PID.TID 0000.0001)                 2.725000000000000E+02,      /* K = 42 */
(PID.TID 0000.0001)                 2.955000000000000E+02,      /* K = 43 */
(PID.TID 0000.0001)                 3.185000000000000E+02,      /* K = 44 */
(PID.TID 0000.0001)                 3.415000000000000E+02,      /* K = 45 */
(PID.TID 0000.0001)                 3.645000000000000E+02,      /* K = 46 */
(PID.TID 0000.0001)                 3.875000000000000E+02,      /* K = 47 */
(PID.TID 0000.0001)                 4.105000000000000E+02,      /* K = 48 */
(PID.TID 0000.0001)                 4.335000000000000E+02,      /* K = 49 */
(PID.TID 0000.0001)                 4.565000000000000E+02       /* K = 50 */
(PID.TID 0000.0001)     ;
(PID.TID 0000.0001) radius_fromHorizGrid = /* sphere Radius of input horiz. grid */
(PID.TID 0000.0001)                 6.370000000000000E+06
(PID.TID 0000.0001)     ;
(PID.TID 0000.0001) rSphere =  /* Radius ( ignored - cartesian, m - spherical ) */
(PID.TID 0000.0001)                 6.370000000000000E+06
(PID.TID 0000.0001)     ;
(PID.TID 0000.0001) deepAtmosphere = /* Deep/Shallow Atmosphere flag (True/False) */
(PID.TID 0000.0001)                   F
(PID.TID 0000.0001)     ;
(PID.TID 0000.0001) xC =  /* xC(:,1,:,1) : P-point X coord ( deg. or m if cartesian) */
(PID.TID 0000.0001)                -4.081468768806280E+01,      /* I =  1 */
(PID.TID 0000.0001)                -3.957104986057077E+01,      /* I =  2 */
(PID.TID 0000.0001)                -3.832217028656162E+01,      /* I =  3 */
(PID.TID 0000.0001)                -3.706844413107324E+01,      /* I =  4 */
(PID.TID 0000.0001)                -3.581028225779612E+01,      /* I =  5 */
(PID.TID 0000.0001)                -3.454811012006861E+01,      /* I =  6 */
(PID.TID 0000.0001)                -3.328236654497336E+01,      /* I =  7 */
(PID.TID 0000.0001)                -3.201350241727823E+01,      /* I =  8 */
(PID.TID 0000.0001)                -3.074197927113779E+01,      /* I =  9 */
(PID.TID 0000.0001)                -2.946826779826338E+01,      /* I = 10 */
(PID.TID 0000.0001)                -2.819284628214859E+01,      /* I = 11 */
(PID.TID 0000.0001)                -2.691619896217756E+01,      /* I = 12 */
(PID.TID 0000.0001)                -2.563881425705264E+01,      /* I = 13 */
(PID.TID 0000.0001)                -2.436118574294736E+01,      /* I = 14 */
(PID.TID 0000.0001)                -2.308380103782244E+01,      /* I = 15 */
(PID.TID 0000.0001)                -2.180715371785141E+01,      /* I = 16 */
(PID.TID 0000.0001)                -2.053173220173662E+01,      /* I = 17 */
(PID.TID 0000.0001)                -1.925802072886221E+01,      /* I = 18 */
(PID.TID 0000.0001)                -1.798649758272177E+01,      /* I = 19 */
(PID.TID 0000.0001)                -1.671763345502664E+01,      /* I = 20 */
(PID.TID 0000.0001)                -1.545188987993139E+01,      /* I = 21 */
(PID.TID 0000.0001)                -1.418971774220388E+01,      /* I = 22 */
(PID.TID 0000.0001)                -1.293155586892676E+01,      /* I = 23 */
(PID.TID 0000.0001)                -1.167782971343838E+01,      /* I = 24 */
(PID.TID 0000.0001)                -1.042895013942923E+01,      /* I = 25 */
(PID.TID 0000.0001)                -9.185312311937196E+00,      /* I = 26 */
(PID.TID 0000.0001)                -7.947294700425999E+00,      /* I = 27 */
(PID.TID 0000.0001)                -6.715258197621779E+00,      /* I = 28 */
(PID.TID 0000.0001)                -5.489545357070952E+00,      /* I = 29 */
(PID.TID 0000.0001)                -4.270479749729759E+00       /* I = 30 */
(PID.TID 0000.0001)     ;
(PID.TID 0000.0001) yC =  /* yC(1,:,1,:) : P-point Y coord ( deg. or m if cartesian) */
(PID.TID 0000.0001)                -8.146222940368236E+01,      /* J =  1 */
(PID.TID 0000.0001)                -8.113083815286421E+01,      /* J =  2 */
(PID.TID 0000.0001)                -8.079504828233755E+01,      /* J =  3 */
(PID.TID 0000.0001)                -8.045491317322768E+01,      /* J =  4 */
(PID.TID 0000.0001)                -8.011048280590389E+01,      /* J =  5 */
(PID.TID 0000.0001)                -7.976180430515704E+01,      /* J =  6 */
(PID.TID 0000.0001)                -7.940892240526760E+01,      /* J =  7 */
(PID.TID 0000.0001)                -7.905187984845006E+01,      /* J =  8 */
(PID.TID 0000.0001)                -7.869071772754813E+01,      /* J =  9 */
(PID.TID 0000.0001)                -7.832547578199167E+01,      /* J = 10 */
(PID.TID 0000.0001)                -7.795619265432416E+01,      /* J = 11 */
(PID.TID 0000.0001)                -7.758290611340497E+01,      /* J = 12 */
(PID.TID 0000.0001)                -7.720565324926896E+01,      /* J = 13 */
(PID.TID 0000.0001)                -7.682447064385434E+01,      /* J = 14 */
(PID.TID 0000.0001)                -7.643939452107085E+01,      /* J = 15 */
(PID.TID 0000.0001)                -7.605046087901695E+01,      /* J = 16 */
(PID.TID 0000.0001)                -7.565770560699295E+01,      /* J = 17 */
(PID.TID 0000.0001)                -7.526116458910658E+01,      /* J = 18 */
(PID.TID 0000.0001)                -7.486087379640449E+01,      /* J = 19 */
(PID.TID 0000.0001)                -7.445686936886233E+01,      /* J = 20 */
(PID.TID 0000.0001)                -7.404918768854837E+01,      /* J = 21 */
(PID.TID 0000.0001)                -7.363786544493549E+01,      /* J = 22 */
(PID.TID 0000.0001)                -7.322293969328220E+01,      /* J = 23 */
(PID.TID 0000.0001)                -7.280444790682334E+01,      /* J = 24 */
(PID.TID 0000.0001)                -7.238242802328044E+01,      /* J = 25 */
(PID.TID 0000.0001)                -7.195691848614972E+01,      /* J = 26 */
(PID.TID 0000.0001)                -7.152795828082729E+01,      /* J = 27 */
(PID.TID 0000.0001)                -7.109558696482472E+01,      /* J = 28 */
(PID.TID 0000.0001)                -7.065984468855757E+01,      /* J = 29 */
(PID.TID 0000.0001)                -7.022077218177122E+01       /* J = 30 */
(PID.TID 0000.0001)     ;
(PID.TID 0000.0001) rcoord = /* P-point R coordinate (  units of r ) */
(PID.TID 0000.0001)                -5.000000000000000E+00,      /* K =  1 */
(PID.TID 0000.0001)                -1.500000000000000E+01,      /* K =  2 */
(PID.TID 0000.0001)                -2.500000000000000E+01,      /* K =  3 */
(PID.TID 0000.0001)                -3.500000000000000E+01,      /* K =  4 */
(PID.TID 0000.0001)                -4.500000000000000E+01,      /* K =  5 */
(PID.TID 0000.0001)                -5.500000000000000E+01,      /* K =  6 */
(PID.TID 0000.0001)                -6.500000000000000E+01,      /* K =  7 */
(PID.TID 0000.0001)                -7.500500000000000E+01,      /* K =  8 */
(PID.TID 0000.0001)                -8.502499999999999E+01,      /* K =  9 */
(PID.TID 0000.0001)                -9.509500000000000E+01,      /* K = 10 */
(PID.TID 0000.0001)                -1.053100000000000E+02,      /* K = 11 */
(PID.TID 0000.0001)                -1.158700000000000E+02,      /* K = 12 */
(PID.TID 0000.0001)                -1.271500000000000E+02,      /* K = 13 */
(PID.TID 0000.0001)                -1.397400000000000E+02,      /* K = 14 */
(PID.TID 0000.0001)                -1.544700000000000E+02,      /* K = 15 */
(PID.TID 0000.0001)                -1.724000000000000E+02,      /* K = 16 */
(PID.TID 0000.0001)                -1.947350000000000E+02,      /* K = 17 */
(PID.TID 0000.0001)                -2.227100000000000E+02,      /* K = 18 */
(PID.TID 0000.0001)                -2.574700000000000E+02,      /* K = 19 */
(PID.TID 0000.0001)                -2.999300000000000E+02,      /* K = 20 */
(PID.TID 0000.0001)                -3.506800000000000E+02,      /* K = 21 */
(PID.TID 0000.0001)                -4.099300000000000E+02,      /* K = 22 */
(PID.TID 0000.0001)                -4.774700000000000E+02,      /* K = 23 */
(PID.TID 0000.0001)                -5.527100000000000E+02,      /* K = 24 */
(PID.TID 0000.0001)                -6.347350000000000E+02,      /* K = 25 */
(PID.TID 0000.0001)                -7.224000000000000E+02,      /* K = 26 */
(PID.TID 0000.0001)                -8.144700000000000E+02,      /* K = 27 */
(PID.TID 0000.0001)                -9.097400000000000E+02,      /* K = 28 */
(PID.TID 0000.0001)                -1.007155000000000E+03,      /* K = 29 */
(PID.TID 0000.0001)                -1.105905000000000E+03,      /* K = 30 */
(PID.TID 0000.0001)                -1.205535000000000E+03,      /* K = 31 */
(PID.TID 0000.0001)                -1.306205000000000E+03,      /* K = 32 */
(PID.TID 0000.0001)                -1.409150000000000E+03,      /* K = 33 */
(PID.TID 0000.0001)                -1.517095000000000E+03,      /* K = 34 */
(PID.TID 0000.0001)                -1.634175000000000E+03,      /* K = 35 */
(PID.TID 0000.0001)                -1.765135000000000E+03,      /* K = 36 */
(PID.TID 0000.0001)                -1.914150000000000E+03,      /* K = 37 */
(PID.TID 0000.0001)                -2.084035000000000E+03,      /* K = 38 */
(PID.TID 0000.0001)                -2.276225000000000E+03,      /* K = 39 */
(PID.TID 0000.0001)                -2.491250000000000E+03,      /* K = 40 */
(PID.TID 0000.0001)                -2.729250000000000E+03,      /* K = 41 */
(PID.TID 0000.0001)                -2.990250000000000E+03,      /* K = 42 */
(PID.TID 0000.0001)                -3.274250000000000E+03,      /* K = 43 */
(PID.TID 0000.0001)                -3.581250000000000E+03,      /* K = 44 */
(PID.TID 0000.0001)                -3.911250000000000E+03,      /* K = 45 */
(PID.TID 0000.0001)                -4.264250000000000E+03,      /* K = 46 */
(PID.TID 0000.0001)                -4.640250000000000E+03,      /* K = 47 */
(PID.TID 0000.0001)                -5.039250000000000E+03,      /* K = 48 */
(PID.TID 0000.0001)                -5.461250000000000E+03,      /* K = 49 */
(PID.TID 0000.0001)                -5.906250000000000E+03       /* K = 50 */
(PID.TID 0000.0001)     ;
(PID.TID 0000.0001) rF =   /* W-Interf. R coordinate (  units of r ) */
(PID.TID 0000.0001)                 0.000000000000000E+00,      /* K =  1 */
(PID.TID 0000.0001)                -1.000000000000000E+01,      /* K =  2 */
(PID.TID 0000.0001)                -2.000000000000000E+01,      /* K =  3 */
(PID.TID 0000.0001)                -3.000000000000000E+01,      /* K =  4 */
(PID.TID 0000.0001)                -4.000000000000000E+01,      /* K =  5 */
(PID.TID 0000.0001)                -5.000000000000000E+01,      /* K =  6 */
(PID.TID 0000.0001)                -6.000000000000000E+01,      /* K =  7 */
(PID.TID 0000.0001)                -7.000000000000000E+01,      /* K =  8 */
(PID.TID 0000.0001)                -8.001000000000001E+01,      /* K =  9 */
(PID.TID 0000.0001)                -9.004000000000001E+01,      /* K = 10 */
(PID.TID 0000.0001)                -1.001500000000000E+02,      /* K = 11 */
(PID.TID 0000.0001)                -1.104700000000000E+02,      /* K = 12 */
(PID.TID 0000.0001)                -1.212700000000000E+02,      /* K = 13 */
(PID.TID 0000.0001)                -1.330300000000000E+02,      /* K = 14 */
(PID.TID 0000.0001)                -1.464500000000000E+02,      /* K = 15 */
(PID.TID 0000.0001)                -1.624900000000000E+02,      /* K = 16 */
(PID.TID 0000.0001)                -1.823100000000000E+02,      /* K = 17 */
(PID.TID 0000.0001)                -2.071600000000000E+02,      /* K = 18 */
(PID.TID 0000.0001)                -2.382600000000000E+02,      /* K = 19 */
(PID.TID 0000.0001)                -2.766799999999999E+02,      /* K = 20 */
(PID.TID 0000.0001)                -3.231799999999999E+02,      /* K = 21 */
(PID.TID 0000.0001)                -3.781799999999999E+02,      /* K = 22 */
(PID.TID 0000.0001)                -4.416799999999999E+02,      /* K = 23 */
(PID.TID 0000.0001)                -5.132600000000000E+02,      /* K = 24 */
(PID.TID 0000.0001)                -5.921600000000000E+02,      /* K = 25 */
(PID.TID 0000.0001)                -6.773099999999999E+02,      /* K = 26 */
(PID.TID 0000.0001)                -7.674900000000000E+02,      /* K = 27 */
(PID.TID 0000.0001)                -8.614500000000000E+02,      /* K = 28 */
(PID.TID 0000.0001)                -9.580300000000001E+02,      /* K = 29 */
(PID.TID 0000.0001)                -1.056280000000000E+03,      /* K = 30 */
(PID.TID 0000.0001)                -1.155530000000000E+03,      /* K = 31 */
(PID.TID 0000.0001)                -1.255540000000000E+03,      /* K = 32 */
(PID.TID 0000.0001)                -1.356870000000000E+03,      /* K = 33 */
(PID.TID 0000.0001)                -1.461430000000000E+03,      /* K = 34 */
(PID.TID 0000.0001)                -1.572760000000000E+03,      /* K = 35 */
(PID.TID 0000.0001)                -1.695590000000000E+03,      /* K = 36 */
(PID.TID 0000.0001)                -1.834680000000000E+03,      /* K = 37 */
(PID.TID 0000.0001)                -1.993620000000000E+03,      /* K = 38 */
(PID.TID 0000.0001)                -2.174450000000000E+03,      /* K = 39 */
(PID.TID 0000.0001)                -2.378000000000000E+03,      /* K = 40 */
(PID.TID 0000.0001)                -2.604500000000000E+03,      /* K = 41 */
(PID.TID 0000.0001)                -2.854000000000000E+03,      /* K = 42 */
(PID.TID 0000.0001)                -3.126500000000000E+03,      /* K = 43 */
(PID.TID 0000.0001)                -3.422000000000000E+03,      /* K = 44 */
(PID.TID 0000.0001)                -3.740500000000000E+03,      /* K = 45 */
(PID.TID 0000.0001)                -4.082000000000000E+03,      /* K = 46 */
(PID.TID 0000.0001)                -4.446500000000000E+03,      /* K = 47 */
(PID.TID 0000.0001)                -4.834000000000000E+03,      /* K = 48 */
(PID.TID 0000.0001)                -5.244500000000000E+03,      /* K = 49 */
(PID.TID 0000.0001)                -5.678000000000000E+03,      /* K = 50 */
(PID.TID 0000.0001)                -6.134500000000000E+03       /* K = 51 */
(PID.TID 0000.0001)     ;
(PID.TID 0000.0001) deepFacC = /* deep-model grid factor @ cell-Center (-) */
(PID.TID 0000.0001)    50 @  1.000000000000000E+00              /* K =  1: 50 */
(PID.TID 0000.0001)     ;
(PID.TID 0000.0001) deepFacF = /* deep-model grid factor @ W-Interface (-) */
(PID.TID 0000.0001)    51 @  1.000000000000000E+00              /* K =  1: 51 */
(PID.TID 0000.0001)     ;
(PID.TID 0000.0001) rVel2wUnit = /* convert units: rVel -> wSpeed (=1 if z-coord)*/
(PID.TID 0000.0001)    51 @  1.000000000000000E+00              /* K =  1: 51 */
(PID.TID 0000.0001)     ;
(PID.TID 0000.0001) wUnit2rVel = /* convert units: wSpeed -> rVel (=1 if z-coord)*/
(PID.TID 0000.0001)    51 @  1.000000000000000E+00              /* K =  1: 51 */
(PID.TID 0000.0001)     ;
(PID.TID 0000.0001) dBdrRef = /* Vertical grad. of reference buoyancy [(m/s/r)^2] */
(PID.TID 0000.0001)     3 @  0.000000000000000E+00,             /* K =  1:  3 */
(PID.TID 0000.0001)                 2.710009878211941E-04,      /* K =  4 */
(PID.TID 0000.0001)     2 @  0.000000000000000E+00,             /* K =  5:  6 */
(PID.TID 0000.0001)                 2.636625418269014E-04,      /* K =  7 */
(PID.TID 0000.0001)                 2.558031727841269E-04,      /* K =  8 */
(PID.TID 0000.0001)                 0.000000000000000E+00,      /* K =  9 */
(PID.TID 0000.0001)                 2.465097609409217E-04,      /* K = 10 */
(PID.TID 0000.0001)                 2.352100435611475E-04,      /* K = 11 */
(PID.TID 0000.0001)                 0.000000000000000E+00,      /* K = 12 */
(PID.TID 0000.0001)                 2.059824810681317E-04,      /* K = 13 */
(PID.TID 0000.0001)                 1.780333657351851E-04,      /* K = 14 */
(PID.TID 0000.0001)                 0.000000000000000E+00,      /* K = 15 */
(PID.TID 0000.0001)                 1.205267729858628E-04,      /* K = 16 */
(PID.TID 0000.0001)                 9.301885331159507E-05,      /* K = 17 */
(PID.TID 0000.0001)                 7.126049663232381E-05,      /* K = 18 */
(PID.TID 0000.0001)                 5.492180008088694E-05,      /* K = 19 */
(PID.TID 0000.0001)                 4.297011162312342E-05,      /* K = 20 */
(PID.TID 0000.0001)                 6.668082313416848E-05,      /* K = 21 */
(PID.TID 0000.0001)                 0.000000000000000E+00,      /* K = 22 */
(PID.TID 0000.0001)                 2.326903218052740E-05,      /* K = 23 */
(PID.TID 0000.0001)                 1.977341620137575E-05,      /* K = 24 */
(PID.TID 0000.0001)                 1.711721017074719E-05,      /* K = 25 */
(PID.TID 0000.0001)                 0.000000000000000E+00,      /* K = 26 */
(PID.TID 0000.0001)                 1.457272127111402E-05,      /* K = 27 */
(PID.TID 0000.0001)                 0.000000000000000E+00,      /* K = 28 */
(PID.TID 0000.0001)                 1.316856539126343E-05,      /* K = 29 */
(PID.TID 0000.0001)     2 @  0.000000000000000E+00,             /* K = 30: 31 */
(PID.TID 0000.0001)                 1.242324286947067E-05,      /* K = 32 */
(PID.TID 0000.0001)     2 @  0.000000000000000E+00,             /* K = 33: 34 */
(PID.TID 0000.0001)                 1.046164470422772E-05,      /* K = 35 */
(PID.TID 0000.0001)     3 @  0.000000000000000E+00,             /* K = 36: 38 */
(PID.TID 0000.0001)                 6.634176617958632E-06,      /* K = 39 */
(PID.TID 0000.0001)    11 @  0.000000000000000E+00              /* K = 40: 50 */
(PID.TID 0000.0001)     ;
(PID.TID 0000.0001) rotateGrid = /* use rotated grid ( True/False ) */
(PID.TID 0000.0001)                   F
(PID.TID 0000.0001)     ;
(PID.TID 0000.0001) phiEuler = /* Euler angle, rotation about original z-coordinate [rad] */
(PID.TID 0000.0001)                 0.000000000000000E+00
(PID.TID 0000.0001)     ;
(PID.TID 0000.0001) thetaEuler = /* Euler angle, rotation about new x-coordinate [rad] */
(PID.TID 0000.0001)                 0.000000000000000E+00
(PID.TID 0000.0001)     ;
(PID.TID 0000.0001) psiEuler = /* Euler angle, rotation about new z-coordinate [rad] */
(PID.TID 0000.0001)                 0.000000000000000E+00
(PID.TID 0000.0001)     ;
(PID.TID 0000.0001) dxF =  /* dxF(:,1,:,1) ( units: m ) */
(PID.TID 0000.0001)                 2.071152825743187E+04,      /* I =  1 */
(PID.TID 0000.0001)                 2.070365142756831E+04,      /* I =  2 */
(PID.TID 0000.0001)                 2.069635296570141E+04,      /* I =  3 */
(PID.TID 0000.0001)                 2.068965358413176E+04,      /* I =  4 */
(PID.TID 0000.0001)                 2.068357195583360E+04,      /* I =  5 */
(PID.TID 0000.0001)                 2.067812475356784E+04,      /* I =  6 */
(PID.TID 0000.0001)                 2.067332670125947E+04,      /* I =  7 */
(PID.TID 0000.0001)                 2.066919060389092E+04,      /* I =  8 */
(PID.TID 0000.0001)                 2.066572738985245E+04,      /* I =  9 */
(PID.TID 0000.0001)                 2.066294615597989E+04,      /* I = 10 */
(PID.TID 0000.0001)                 2.066085425372315E+04,      /* I = 11 */
(PID.TID 0000.0001)                 2.065945771525925E+04,      /* I = 12 */
(PID.TID 0000.0001)                 2.065874381268158E+04,      /* I = 13 */
(PID.TID 0000.0001)                 2.065874381268158E+04,      /* I = 14 */
(PID.TID 0000.0001)                 2.065945771525925E+04,      /* I = 15 */
(PID.TID 0000.0001)                 2.066085425372316E+04,      /* I = 16 */
(PID.TID 0000.0001)                 2.066294615597989E+04,      /* I = 17 */
(PID.TID 0000.0001)                 2.066572738985245E+04,      /* I = 18 */
(PID.TID 0000.0001)                 2.066919060389088E+04,      /* I = 19 */
(PID.TID 0000.0001)                 2.067332670125956E+04,      /* I = 20 */
(PID.TID 0000.0001)                 2.067812475356780E+04,      /* I = 21 */
(PID.TID 0000.0001)                 2.068357195583360E+04,      /* I = 22 */
(PID.TID 0000.0001)                 2.068965358413182E+04,      /* I = 23 */
(PID.TID 0000.0001)                 2.069635296570133E+04,      /* I = 24 */
(PID.TID 0000.0001)                 2.070365142756836E+04,      /* I = 25 */
(PID.TID 0000.0001)                 2.071152825743182E+04,      /* I = 26 */
(PID.TID 0000.0001)                 2.071996065138743E+04,      /* I = 27 */
(PID.TID 0000.0001)                 2.072892365863983E+04,      /* I = 28 */
(PID.TID 0000.0001)                 2.073839012765668E+04,      /* I = 29 */
(PID.TID 0000.0001)                 2.074833063718403E+04       /* I = 30 */
(PID.TID 0000.0001)     ;
(PID.TID 0000.0001) dxF =  /* dxF(1,:,1,:) ( units: m ) */
(PID.TID 0000.0001)                 2.071152825743187E+04,      /* J =  1 */
(PID.TID 0000.0001)                 2.109117491456033E+04,      /* J =  2 */
(PID.TID 0000.0001)                 2.148525648961724E+04,      /* J =  3 */
(PID.TID 0000.0001)                 2.189377348588603E+04,      /* J =  4 */
(PID.TID 0000.0001)                 2.231672440915243E+04,      /* J =  5 */
(PID.TID 0000.0001)                 2.275410689480659E+04,      /* J =  6 */
(PID.TID 0000.0001)                 2.320591873318126E+04,      /* J =  7 */
(PID.TID 0000.0001)                 2.367215879054831E+04,      /* J =  8 */
(PID.TID 0000.0001)                 2.415282782538908E+04,      /* J =  9 */
(PID.TID 0000.0001)                 2.464792920101809E+04,      /* J = 10 */
(PID.TID 0000.0001)                 2.515746949702995E+04,      /* J = 11 */
(PID.TID 0000.0001)                 2.568145902315334E+04,      /* J = 12 */
(PID.TID 0000.0001)                 2.621991223981432E+04,      /* J = 13 */
(PID.TID 0000.0001)                 2.677284809033052E+04,      /* J = 14 */
(PID.TID 0000.0001)                 2.734029025013979E+04,      /* J = 15 */
(PID.TID 0000.0001)                 2.792226729855568E+04,      /* J = 16 */
(PID.TID 0000.0001)                 2.851881281852892E+04,      /* J = 17 */
(PID.TID 0000.0001)                 2.912996543046302E+04,      /* J = 18 */
(PID.TID 0000.0001)                 2.975576876502299E+04,      /* J = 19 */
(PID.TID 0000.0001)                 3.039627138062681E+04,      /* J = 20 */
(PID.TID 0000.0001)                 3.105152663065675E+04,      /* J = 21 */
(PID.TID 0000.0001)                 3.172159248542454E+04,      /* J = 22 */
(PID.TID 0000.0001)                 3.240653131349731E+04,      /* J = 23 */
(PID.TID 0000.0001)                 3.310640962675057E+04,      /* J = 24 */
(PID.TID 0000.0001)                 3.382129779388320E+04,      /* J = 25 */
(PID.TID 0000.0001)                 3.455126972555294E+04,      /* J = 26 */
(PID.TID 0000.0001)                 3.529640253603521E+04,      /* J = 27 */
(PID.TID 0000.0001)                 3.605677618612848E+04,      /* J = 28 */
(PID.TID 0000.0001)                 3.683247311866502E+04,      /* J = 29 */
(PID.TID 0000.0001)                 3.762357793548112E+04       /* J = 30 */
(PID.TID 0000.0001)     ;
(PID.TID 0000.0001) dyF =  /* dyF(:,1,:,1) ( units: m ) */
(PID.TID 0000.0001)                 3.700742300337598E+04,      /* I =  1 */
(PID.TID 0000.0001)                 3.707905556394973E+04,      /* I =  2 */
(PID.TID 0000.0001)                 3.714471828319018E+04,      /* I =  3 */
(PID.TID 0000.0001)                 3.720441078960103E+04,      /* I =  4 */
(PID.TID 0000.0001)                 3.725813297080282E+04,      /* I =  5 */
(PID.TID 0000.0001)                 3.730588490725751E+04,      /* I =  6 */
(PID.TID 0000.0001)                 3.734766681359038E+04,      /* I =  7 */
(PID.TID 0000.0001)                 3.738347898712025E+04,      /* I =  8 */
(PID.TID 0000.0001)                 3.741332176340629E+04,      /* I =  9 */
(PID.TID 0000.0001)                 3.743719547859261E+04,      /* I = 10 */
(PID.TID 0000.0001)                 3.745510043824806E+04,      /* I = 11 */
(PID.TID 0000.0001)                 3.746703689267323E+04,      /* I = 12 */
(PID.TID 0000.0001)     2 @  3.747300501832417E+04,             /* I = 13: 14 */
(PID.TID 0000.0001)                 3.746703689267323E+04,      /* I = 15 */
(PID.TID 0000.0001)                 3.745510043824806E+04,      /* I = 16 */
(PID.TID 0000.0001)                 3.743719547859261E+04,      /* I = 17 */
(PID.TID 0000.0001)                 3.741332176340628E+04,      /* I = 18 */
(PID.TID 0000.0001)                 3.738347898712024E+04,      /* I = 19 */
(PID.TID 0000.0001)                 3.734766681359040E+04,      /* I = 20 */
(PID.TID 0000.0001)                 3.730588490725750E+04,      /* I = 21 */
(PID.TID 0000.0001)                 3.725813297080281E+04,      /* I = 22 */
(PID.TID 0000.0001)                 3.720441078960103E+04,      /* I = 23 */
(PID.TID 0000.0001)                 3.714471828319017E+04,      /* I = 24 */
(PID.TID 0000.0001)                 3.707905556394973E+04,      /* I = 25 */
(PID.TID 0000.0001)                 3.700742300337599E+04,      /* I = 26 */
(PID.TID 0000.0001)                 3.692982130617692E+04,      /* I = 27 */
(PID.TID 0000.0001)                 3.684625159269555E+04,      /* I = 28 */
(PID.TID 0000.0001)                 3.675671548992459E+04,      /* I = 29 */
(PID.TID 0000.0001)                 3.666121523181524E+04       /* I = 30 */
(PID.TID 0000.0001)     ;
(PID.TID 0000.0001) dyF =  /* dyF(1,:,1,:) ( units: m ) */
(PID.TID 0000.0001)                 3.700742300337598E+04,      /* J =  1 */
(PID.TID 0000.0001)                 3.745555642044499E+04,      /* J =  2 */
(PID.TID 0000.0001)                 3.790206217653974E+04,      /* J =  3 */
(PID.TID 0000.0001)                 3.834684105117956E+04,      /* J =  4 */
(PID.TID 0000.0001)                 3.878979459357282E+04,      /* J =  5 */
(PID.TID 0000.0001)                 3.923082521328924E+04,      /* J =  6 */
(PID.TID 0000.0001)                 3.966983623246408E+04,      /* J =  7 */
(PID.TID 0000.0001)                 4.010673190475840E+04,      /* J =  8 */
(PID.TID 0000.0001)                 4.054141740950450E+04,      /* J =  9 */
(PID.TID 0000.0001)                 4.097379882434454E+04,      /* J = 10 */
(PID.TID 0000.0001)                 4.140378308084428E+04,      /* J = 11 */
(PID.TID 0000.0001)                 4.183127790875583E+04,      /* J = 12 */
(PID.TID 0000.0001)                 4.225619177206317E+04,      /* J = 13 */
(PID.TID 0000.0001)                 4.267843379867976E+04,      /* J = 14 */
(PID.TID 0000.0001)                 4.309791371221616E+04,      /* J = 15 */
(PID.TID 0000.0001)                 4.351454176087940E+04,      /* J = 16 */
(PID.TID 0000.0001)                 4.392822864881465E+04,      /* J = 17 */
(PID.TID 0000.0001)                 4.433888547805120E+04,      /* J = 18 */
(PID.TID 0000.0001)                 4.474642369096899E+04,      /* J = 19 */
(PID.TID 0000.0001)                 4.515075502217317E+04,      /* J = 20 */
(PID.TID 0000.0001)                 4.555179145554101E+04,      /* J = 21 */
(PID.TID 0000.0001)                 4.594944520275577E+04,      /* J = 22 */
(PID.TID 0000.0001)                 4.634362867401398E+04,      /* J = 23 */
(PID.TID 0000.0001)                 4.673425447947427E+04,      /* J = 24 */
(PID.TID 0000.0001)                 4.712123544873745E+04,      /* J = 25 */
(PID.TID 0000.0001)                 4.750448467975499E+04,      /* J = 26 */
(PID.TID 0000.0001)                 4.788391567392174E+04,      /* J = 27 */
(PID.TID 0000.0001)                 4.825944271092693E+04,      /* J = 28 */
(PID.TID 0000.0001)                 4.863098220111143E+04,      /* J = 29 */
(PID.TID 0000.0001)                 4.899845499569884E+04       /* J = 30 */
(PID.TID 0000.0001)     ;
(PID.TID 0000.0001) dxG =  /* dxG(:,1,:,1) ( units: m ) */
(PID.TID 0000.0001)                 2.052711702021451E+04,      /* I =  1 */
(PID.TID 0000.0001)                 2.051953983526162E+04,      /* I =  2 */
(PID.TID 0000.0001)                 2.051251425926268E+04,      /* I =  3 */
(PID.TID 0000.0001)                 2.050606148013825E+04,      /* I =  4 */
(PID.TID 0000.0001)                 2.050020059906299E+04,      /* I =  5 */
(PID.TID 0000.0001)                 2.049494867086169E+04,      /* I =  6 */
(PID.TID 0000.0001)                 2.049032075633103E+04,      /* I =  7 */
(PID.TID 0000.0001)                 2.048632995314923E+04,      /* I =  8 */
(PID.TID 0000.0001)                 2.048298743895549E+04,      /* I =  9 */
(PID.TID 0000.0001)                 2.048030251694177E+04,      /* I = 10 */
(PID.TID 0000.0001)                 2.047828270203973E+04,      /* I = 11 */
(PID.TID 0000.0001)                 2.047693414389448E+04,      /* I = 12 */
(PID.TID 0000.0001)     2 @  2.047624433858785E+04,             /* I = 13: 14 */
(PID.TID 0000.0001)                 2.047693414389443E+04,      /* I = 15 */
(PID.TID 0000.0001)                 2.047828270203978E+04,      /* I = 16 */
(PID.TID 0000.0001)                 2.048030251694177E+04,      /* I = 17 */
(PID.TID 0000.0001)                 2.048298743895548E+04,      /* I = 18 */
(PID.TID 0000.0001)                 2.048632995314927E+04,      /* I = 19 */
(PID.TID 0000.0001)                 2.049032075633093E+04,      /* I = 20 */
(PID.TID 0000.0001)                 2.049494867086174E+04,      /* I = 21 */
(PID.TID 0000.0001)                 2.050020059906297E+04,      /* I = 22 */
(PID.TID 0000.0001)                 2.050606148013830E+04,      /* I = 23 */
(PID.TID 0000.0001)                 2.051251425926268E+04,      /* I = 24 */
(PID.TID 0000.0001)                 2.051953983526163E+04,      /* I = 25 */
(PID.TID 0000.0001)                 2.052711702021443E+04,      /* I = 26 */
(PID.TID 0000.0001)                 2.053522248594683E+04,      /* I = 27 */
(PID.TID 0000.0001)                 2.054383070727552E+04,      /* I = 28 */
(PID.TID 0000.0001)                 2.055291390664790E+04,      /* I = 29 */
(PID.TID 0000.0001)                 2.056244198352907E+04       /* I = 30 */
(PID.TID 0000.0001)     ;
(PID.TID 0000.0001) dxG =  /* dxG(1,:,1,:) ( units: m ) */
(PID.TID 0000.0001)                 2.052711702021451E+04,      /* J =  1 */
(PID.TID 0000.0001)                 2.089954736357391E+04,      /* J =  2 */
(PID.TID 0000.0001)                 2.128641124518697E+04,      /* J =  3 */
(PID.TID 0000.0001)                 2.168771062037700E+04,      /* J =  4 */
(PID.TID 0000.0001)                 2.210344484655194E+04,      /* J =  5 */
(PID.TID 0000.0001)                 2.253361185972884E+04,      /* J =  6 */
(PID.TID 0000.0001)                 2.297820925105574E+04,      /* J =  7 */
(PID.TID 0000.0001)                 2.343723524028478E+04,      /* J =  8 */
(PID.TID 0000.0001)                 2.391068954427550E+04,      /* J =  9 */
(PID.TID 0000.0001)                 2.439857414125275E+04,      /* J = 10 */
(PID.TID 0000.0001)                 2.490089393241153E+04,      /* J = 11 */
(PID.TID 0000.0001)                 2.541765730414359E+04,      /* J = 12 */
(PID.TID 0000.0001)                 2.594887659459613E+04,      /* J = 13 */
(PID.TID 0000.0001)                 2.649456846940333E+04,      /* J = 14 */
(PID.TID 0000.0001)                 2.705475421181358E+04,      /* J = 15 */
(PID.TID 0000.0001)                 2.762945993231310E+04,      /* J = 16 */
(PID.TID 0000.0001)                 2.821871670385097E+04,      /* J = 17 */
(PID.TID 0000.0001)                 2.882256062780631E+04,      /* J = 18 */
(PID.TID 0000.0001)                 2.944103283669238E+04,      /* J = 19 */
(PID.TID 0000.0001)                 3.007417943861200E+04,      /* J = 20 */
(PID.TID 0000.0001)                 3.072205140902393E+04,      /* J = 21 */
(PID.TID 0000.0001)                 3.138470443467240E+04,      /* J = 22 */
(PID.TID 0000.0001)                 3.206219871470027E+04,      /* J = 23 */
(PID.TID 0000.0001)                 3.275459872326910E+04,      /* J = 24 */
(PID.TID 0000.0001)                 3.346197293831744E+04,      /* J = 25 */
(PID.TID 0000.0001)                 3.418439354048331E+04,      /* J = 26 */
(PID.TID 0000.0001)                 3.492193608585089E+04,      /* J = 27 */
(PID.TID 0000.0001)                 3.567467915738818E+04,      /* J = 28 */
(PID.TID 0000.0001)                 3.644270400216877E+04,      /* J = 29 */
(PID.TID 0000.0001)                 3.722609417427087E+04       /* J = 30 */
(PID.TID 0000.0001)     ;
(PID.TID 0000.0001) dyG =  /* dyG(:,1,:,1) ( units: m ) */
(PID.TID 0000.0001)                 3.696936823759973E+04,      /* I =  1 */
(PID.TID 0000.0001)                 3.704398547852144E+04,      /* I =  2 */
(PID.TID 0000.0001)                 3.711263318385338E+04,      /* I =  3 */
(PID.TID 0000.0001)                 3.717531082528212E+04,      /* I =  4 */
(PID.TID 0000.0001)                 3.723201816961422E+04,      /* I =  5 */
(PID.TID 0000.0001)                 3.728275520872145E+04,      /* I =  6 */
(PID.TID 0000.0001)                 3.732752209699158E+04,      /* I =  7 */
(PID.TID 0000.0001)                 3.736631909640826E+04,      /* I =  8 */
(PID.TID 0000.0001)                 3.739914652852553E+04,      /* I =  9 */
(PID.TID 0000.0001)                 3.742600473350589E+04,      /* I = 10 */
(PID.TID 0000.0001)                 3.744689403567852E+04,      /* I = 11 */
(PID.TID 0000.0001)                 3.746181471567877E+04,      /* I = 12 */
(PID.TID 0000.0001)                 3.747076698884368E+04,      /* I = 13 */
(PID.TID 0000.0001)                 3.747376174977726E+04,      /* I = 14 */
(PID.TID 0000.0001)                 3.747076698884368E+04,      /* I = 15 */
(PID.TID 0000.0001)                 3.746181471567877E+04,      /* I = 16 */
(PID.TID 0000.0001)                 3.744689403567852E+04,      /* I = 17 */
(PID.TID 0000.0001)                 3.742600473350589E+04,      /* I = 18 */
(PID.TID 0000.0001)                 3.739914652852552E+04,      /* I = 19 */
(PID.TID 0000.0001)                 3.736631909640826E+04,      /* I = 20 */
(PID.TID 0000.0001)                 3.732752209699157E+04,      /* I = 21 */
(PID.TID 0000.0001)                 3.728275520872146E+04,      /* I = 22 */
(PID.TID 0000.0001)                 3.723201816961422E+04,      /* I = 23 */
(PID.TID 0000.0001)                 3.717531082528211E+04,      /* I = 24 */
(PID.TID 0000.0001)                 3.711263318385338E+04,      /* I = 25 */
(PID.TID 0000.0001)                 3.704398547852145E+04,      /* I = 26 */
(PID.TID 0000.0001)                 3.696936823759972E+04,      /* I = 27 */
(PID.TID 0000.0001)                 3.688878236278851E+04,      /* I = 28 */
(PID.TID 0000.0001)                 3.680222921581766E+04,      /* I = 29 */
(PID.TID 0000.0001)                 3.670971071402137E+04       /* I = 30 */
(PID.TID 0000.0001)     ;
(PID.TID 0000.0001) dyG =  /* dyG(1,:,1,:) ( units: m ) */
(PID.TID 0000.0001)                 3.696936823759973E+04,      /* J =  1 */
(PID.TID 0000.0001)                 3.741746190559281E+04,      /* J =  2 */
(PID.TID 0000.0001)                 3.786390067184393E+04,      /* J =  3 */
(PID.TID 0000.0001)                 3.830858172733455E+04,      /* J =  4 */
(PID.TID 0000.0001)                 3.875140319955796E+04,      /* J =  5 */
(PID.TID 0000.0001)                 3.919226424948571E+04,      /* J =  6 */
(PID.TID 0000.0001)                 3.963106512715793E+04,      /* J =  7 */
(PID.TID 0000.0001)                 4.006770719102380E+04,      /* J =  8 */
(PID.TID 0000.0001)                 4.050209290047463E+04,      /* J =  9 */
(PID.TID 0000.0001)                 4.093412578484027E+04,      /* J = 10 */
(PID.TID 0000.0001)                 4.136371039407872E+04,      /* J = 11 */
(PID.TID 0000.0001)                 4.179075223673176E+04,      /* J = 12 */
(PID.TID 0000.0001)                 4.221515770920290E+04,      /* J = 13 */
(PID.TID 0000.0001)                 4.263683401805614E+04,      /* J = 14 */
(PID.TID 0000.0001)                 4.305568910412182E+04,      /* J = 15 */
(PID.TID 0000.0001)                 4.347163156363047E+04,      /* J = 16 */
(PID.TID 0000.0001)                 4.388457057225752E+04,      /* J = 17 */
(PID.TID 0000.0001)                 4.429441581934092E+04,      /* J = 18 */
(PID.TID 0000.0001)                 4.470107744374240E+04,      /* J = 19 */
(PID.TID 0000.0001)                 4.510446597891348E+04,      /* J = 20 */
(PID.TID 0000.0001)                 4.550449230395439E+04,      /* J = 21 */
(PID.TID 0000.0001)                 4.590106761654920E+04,      /* J = 22 */
(PID.TID 0000.0001)                 4.629410339849156E+04,      /* J = 23 */
(PID.TID 0000.0001)                 4.668351141269982E+04,      /* J = 24 */
(PID.TID 0000.0001)                 4.706920371856177E+04,      /* J = 25 */
(PID.TID 0000.0001)                 4.745109271730031E+04,      /* J = 26 */
(PID.TID 0000.0001)                 4.782909128417812E+04,      /* J = 27 */
(PID.TID 0000.0001)                 4.820311314005602E+04,      /* J = 28 */
(PID.TID 0000.0001)                 4.857307420014453E+04,      /* J = 29 */
(PID.TID 0000.0001)                 4.893889490827491E+04       /* J = 30 */
(PID.TID 0000.0001)     ;
(PID.TID 0000.0001) dxC =  /* dxC(:,1,:,1) ( units: m ) */
(PID.TID 0000.0001)                 2.071567651695695E+04,      /* I =  1 */
(PID.TID 0000.0001)                 2.070751892245589E+04,      /* I =  2 */
(PID.TID 0000.0001)                 2.069992855779408E+04,      /* I =  3 */
(PID.TID 0000.0001)                 2.069292717562287E+04,      /* I =  4 */
(PID.TID 0000.0001)                 2.068653446229046E+04,      /* I =  5 */
(PID.TID 0000.0001)                 2.068076808552306E+04,      /* I =  6 */
(PID.TID 0000.0001)                 2.067564373903614E+04,      /* I =  7 */
(PID.TID 0000.0001)                 2.067117518190149E+04,      /* I =  8 */
(PID.TID 0000.0001)                 2.066737427558298E+04,      /* I =  9 */
(PID.TID 0000.0001)                 2.066425102685107E+04,      /* I = 10 */
(PID.TID 0000.0001)                 2.066181364132844E+04,      /* I = 11 */
(PID.TID 0000.0001)                 2.066006869803818E+04,      /* I = 12 */
(PID.TID 0000.0001)                 2.065902266229015E+04,      /* I = 13 */
(PID.TID 0000.0001)                 2.065863826775786E+04,      /* I = 14 */
(PID.TID 0000.0001)                 2.065902266229016E+04,      /* I = 15 */
(PID.TID 0000.0001)                 2.066006869803813E+04,      /* I = 16 */
(PID.TID 0000.0001)                 2.066181364132850E+04,      /* I = 17 */
(PID.TID 0000.0001)                 2.066425102685108E+04,      /* I = 18 */
(PID.TID 0000.0001)                 2.066737427558298E+04,      /* I = 19 */
(PID.TID 0000.0001)                 2.067117518190149E+04,      /* I = 20 */
(PID.TID 0000.0001)                 2.067564373903615E+04,      /* I = 21 */
(PID.TID 0000.0001)                 2.068076808552304E+04,      /* I = 22 */
(PID.TID 0000.0001)                 2.068653446229045E+04,      /* I = 23 */
(PID.TID 0000.0001)                 2.069292717562287E+04,      /* I = 24 */
(PID.TID 0000.0001)                 2.069992855779413E+04,      /* I = 25 */
(PID.TID 0000.0001)                 2.070751892245584E+04,      /* I = 26 */
(PID.TID 0000.0001)                 2.071567651695691E+04,      /* I = 27 */
(PID.TID 0000.0001)                 2.072437747324421E+04,      /* I = 28 */
(PID.TID 0000.0001)                 2.073359574551806E+04,      /* I = 29 */
(PID.TID 0000.0001)                 2.074330305575613E+04       /* I = 30 */
(PID.TID 0000.0001)     ;
(PID.TID 0000.0001) dxC =  /* dxC(1,:,1,:) ( units: m ) */
(PID.TID 0000.0001)                 2.071567651695695E+04,      /* J =  1 */
(PID.TID 0000.0001)                 2.109563672137949E+04,      /* J =  2 */
(PID.TID 0000.0001)                 2.149002149497106E+04,      /* J =  3 */
(PID.TID 0000.0001)                 2.189882927482529E+04,      /* J =  4 */
(PID.TID 0000.0001)                 2.232205646389843E+04,      /* J =  5 */
(PID.TID 0000.0001)                 2.275969855854128E+04,      /* J =  6 */
(PID.TID 0000.0001)                 2.321175117362029E+04,      /* J =  7 */
(PID.TID 0000.0001)                 2.367821096276529E+04,      /* J =  8 */
(PID.TID 0000.0001)                 2.415907643347346E+04,      /* J =  9 */
(PID.TID 0000.0001)                 2.465434865814045E+04,      /* J = 10 */
(PID.TID 0000.0001)                 2.516403188365780E+04,      /* J = 11 */
(PID.TID 0000.0001)                 2.568813404310613E+04,      /* J = 12 */
(PID.TID 0000.0001)                 2.622666717399572E+04,      /* J = 13 */
(PID.TID 0000.0001)                 2.677964774799169E+04,      /* J = 14 */
(PID.TID 0000.0001)                 2.734709691757753E+04,      /* J = 15 */
(PID.TID 0000.0001)                 2.792904068517491E+04,      /* J = 16 */
(PID.TID 0000.0001)                 2.852551000032625E+04,      /* J = 17 */
(PID.TID 0000.0001)                 2.913654079081990E+04,      /* J = 18 */
(PID.TID 0000.0001)                 2.976217393306023E+04,      /* J = 19 */
(PID.TID 0000.0001)                 3.040245516699173E+04,      /* J = 20 */
(PID.TID 0000.0001)                 3.105743496108396E+04,      /* J = 21 */
(PID.TID 0000.0001)                 3.172716833208323E+04,      /* J = 22 */
(PID.TID 0000.0001)                 3.241171462422546E+04,      /* J = 23 */
(PID.TID 0000.0001)                 3.311113725244482E+04,      /* J = 24 */
(PID.TID 0000.0001)                 3.382550341391024E+04,      /* J = 25 */
(PID.TID 0000.0001)                 3.455488377140061E+04,      /* J = 26 */
(PID.TID 0000.0001)                 3.529935211332738E+04,      /* J = 27 */
(PID.TID 0000.0001)                 3.605898499520765E+04,      /* J = 28 */
(PID.TID 0000.0001)                 3.683386137397906E+04,      /* J = 29 */
(PID.TID 0000.0001)                 3.762406228407349E+04       /* J = 30 */
(PID.TID 0000.0001)     ;
(PID.TID 0000.0001) dyC =  /* dyC(:,1,:,1) ( units: m ) */
(PID.TID 0000.0001)                 3.678277710845771E+04,      /* I =  1 */
(PID.TID 0000.0001)                 3.685438685866048E+04,      /* I =  2 */
(PID.TID 0000.0001)                 3.692002588020908E+04,      /* I =  3 */
(PID.TID 0000.0001)                 3.697969453541307E+04,      /* I =  4 */
(PID.TID 0000.0001)                 3.703339337607873E+04,      /* I =  5 */
(PID.TID 0000.0001)                 3.708112307814123E+04,      /* I =  6 */
(PID.TID 0000.0001)                 3.712288438364359E+04,      /* I =  7 */
(PID.TID 0000.0001)                 3.715867804995441E+04,      /* I =  8 */
(PID.TID 0000.0001)                 3.718850480589901E+04,      /* I =  9 */
(PID.TID 0000.0001)                 3.721236531452968E+04,      /* I = 10 */
(PID.TID 0000.0001)                 3.723026014246432E+04,      /* I = 11 */
(PID.TID 0000.0001)                 3.724218973548726E+04,      /* I = 12 */
(PID.TID 0000.0001)     2 @  3.724815440020872E+04,             /* I = 13: 14 */
(PID.TID 0000.0001)                 3.724218973548726E+04,      /* I = 15 */
(PID.TID 0000.0001)                 3.723026014246432E+04,      /* I = 16 */
(PID.TID 0000.0001)                 3.721236531452968E+04,      /* I = 17 */
(PID.TID 0000.0001)                 3.718850480589901E+04,      /* I = 18 */
(PID.TID 0000.0001)                 3.715867804995440E+04,      /* I = 19 */
(PID.TID 0000.0001)                 3.712288438364359E+04,      /* I = 20 */
(PID.TID 0000.0001)                 3.708112307814122E+04,      /* I = 21 */
(PID.TID 0000.0001)                 3.703339337607873E+04,      /* I = 22 */
(PID.TID 0000.0001)                 3.697969453541307E+04,      /* I = 23 */
(PID.TID 0000.0001)                 3.692002588020908E+04,      /* I = 24 */
(PID.TID 0000.0001)                 3.685438685866047E+04,      /* I = 25 */
(PID.TID 0000.0001)                 3.678277710845772E+04,      /* I = 26 */
(PID.TID 0000.0001)                 3.670519653011381E+04,      /* I = 27 */
(PID.TID 0000.0001)                 3.662164536844059E+04,      /* I = 28 */
(PID.TID 0000.0001)                 3.653212430257830E+04,      /* I = 29 */
(PID.TID 0000.0001)                 3.643663454523116E+04       /* I = 30 */
(PID.TID 0000.0001)     ;
(PID.TID 0000.0001) dyC =  /* dyC(1,:,1,:) ( units: m ) */
(PID.TID 0000.0001)                 3.678277710845771E+04,      /* J =  1 */
(PID.TID 0000.0001)                 3.723168694115569E+04,      /* J =  2 */
(PID.TID 0000.0001)                 3.767901897410101E+04,      /* J =  3 */
(PID.TID 0000.0001)                 3.812467364657602E+04,      /* J =  4 */
(PID.TID 0000.0001)                 3.856855210935249E+04,      /* J =  5 */
(PID.TID 0000.0001)                 3.901055633269680E+04,      /* J =  6 */
(PID.TID 0000.0001)                 3.945058917911859E+04,      /* J =  7 */
(PID.TID 0000.0001)                 3.988855443472220E+04,      /* J =  8 */
(PID.TID 0000.0001)                 4.032435681898361E+04,      /* J =  9 */
(PID.TID 0000.0001)                 4.075790196435841E+04,      /* J = 10 */
(PID.TID 0000.0001)                 4.118909638222960E+04,      /* J = 11 */
(PID.TID 0000.0001)                 4.161784741043697E+04,      /* J = 12 */
(PID.TID 0000.0001)                 4.204406315499045E+04,      /* J = 13 */
(PID.TID 0000.0001)                 4.246765242091182E+04,      /* J = 14 */
(PID.TID 0000.0001)                 4.288852464034393E+04,      /* J = 15 */
(PID.TID 0000.0001)                 4.330658981118225E+04,      /* J = 16 */
(PID.TID 0000.0001)                 4.372175841431943E+04,      /* J = 17 */
(PID.TID 0000.0001)                 4.413394136293020E+04,      /* J = 18 */
(PID.TID 0000.0001)                 4.454304993440304E+04,      /* J = 19 */
(PID.TID 0000.0001)                 4.494899572325061E+04,      /* J = 20 */
(PID.TID 0000.0001)                 4.535169059286820E+04,      /* J = 21 */
(PID.TID 0000.0001)                 4.575104664412256E+04,      /* J = 22 */
(PID.TID 0000.0001)                 4.614697618947234E+04,      /* J = 23 */
(PID.TID 0000.0001)                 4.653939173844085E+04,      /* J = 24 */
(PID.TID 0000.0001)                 4.692820600744408E+04,      /* J = 25 */
(PID.TID 0000.0001)                 4.731333194957835E+04,      /* J = 26 */
(PID.TID 0000.0001)                 4.769468283927006E+04,      /* J = 27 */
(PID.TID 0000.0001)                 4.807217249390641E+04,      /* J = 28 */
(PID.TID 0000.0001)                 4.844571593362943E+04,      /* J = 29 */
(PID.TID 0000.0001)                 4.881523285497380E+04       /* J = 30 */
(PID.TID 0000.0001)     ;
(PID.TID 0000.0001) dxV =  /* dxV(:,1,:,1) ( units: m ) */
(PID.TID 0000.0001)                 2.053110526075532E+04,      /* I =  1 */
(PID.TID 0000.0001)                 2.052326088418283E+04,      /* I =  2 */
(PID.TID 0000.0001)                 2.051595672244828E+04,      /* I =  3 */
(PID.TID 0000.0001)                 2.050921502797681E+04,      /* I =  4 */
(PID.TID 0000.0001)                 2.050305593886370E+04,      /* I =  5 */
(PID.TID 0000.0001)                 2.049749752783181E+04,      /* I =  6 */
(PID.TID 0000.0001)                 2.049255584793284E+04,      /* I =  7 */
(PID.TID 0000.0001)                 2.048824497292525E+04,      /* I =  8 */
(PID.TID 0000.0001)                 2.048457703515834E+04,      /* I =  9 */
(PID.TID 0000.0001)                 2.048156226915133E+04,      /* I = 10 */
(PID.TID 0000.0001)                 2.047920906551970E+04,      /* I = 11 */
(PID.TID 0000.0001)                 2.047752414469434E+04,      /* I = 12 */
(PID.TID 0000.0001)                 2.047651405696554E+04,      /* I = 13 */
(PID.TID 0000.0001)                 2.047614194664622E+04,      /* I = 14 */
(PID.TID 0000.0001)                 2.047651405696559E+04,      /* I = 15 */
(PID.TID 0000.0001)                 2.047752414469430E+04,      /* I = 16 */
(PID.TID 0000.0001)                 2.047920906551971E+04,      /* I = 17 */
(PID.TID 0000.0001)                 2.048156226915138E+04,      /* I = 18 */
(PID.TID 0000.0001)                 2.048457703515829E+04,      /* I = 19 */
(PID.TID 0000.0001)                 2.048824497292535E+04,      /* I = 20 */
(PID.TID 0000.0001)                 2.049255584793274E+04,      /* I = 21 */
(PID.TID 0000.0001)                 2.049749752783187E+04,      /* I = 22 */
(PID.TID 0000.0001)                 2.050305593886373E+04,      /* I = 23 */
(PID.TID 0000.0001)                 2.050921502797675E+04,      /* I = 24 */
(PID.TID 0000.0001)                 2.051595672244826E+04,      /* I = 25 */
(PID.TID 0000.0001)                 2.052326088418290E+04,      /* I = 26 */
(PID.TID 0000.0001)                 2.053110526075532E+04,      /* I = 27 */
(PID.TID 0000.0001)                 2.053946543494557E+04,      /* I = 28 */
(PID.TID 0000.0001)                 2.054831476098181E+04,      /* I = 29 */
(PID.TID 0000.0001)                 2.055762430839241E+04       /* I = 30 */
(PID.TID 0000.0001)     ;
(PID.TID 0000.0001) dxV =  /* dxV(1,:,1,:) ( units: m ) */
(PID.TID 0000.0001)                 2.053110526075532E+04,      /* J =  1 */
(PID.TID 0000.0001)                 2.090385356266093E+04,      /* J =  2 */
(PID.TID 0000.0001)                 2.129102607314009E+04,      /* J =  3 */
(PID.TID 0000.0001)                 2.169262269996662E+04,      /* J =  4 */
(PID.TID 0000.0001)                 2.210864071595607E+04,      /* J =  5 */
(PID.TID 0000.0001)                 2.253907593617405E+04,      /* J =  6 */
(PID.TID 0000.0001)                 2.298392379458377E+04,      /* J =  7 */
(PID.TID 0000.0001)                 2.344318031700113E+04,      /* J =  8 */
(PID.TID 0000.0001)                 2.391684298864163E+04,      /* J =  9 */
(PID.TID 0000.0001)                 2.440491151699962E+04,      /* J = 10 */
(PID.TID 0000.0001)                 2.490738849171163E+04,      /* J = 11 */
(PID.TID 0000.0001)                 2.542427994477456E+04,      /* J = 12 */
(PID.TID 0000.0001)                 2.595559581485789E+04,      /* J = 13 */
(PID.TID 0000.0001)                 2.650135032062733E+04,      /* J = 14 */
(PID.TID 0000.0001)                 2.706156224833991E+04,      /* J = 15 */
(PID.TID 0000.0001)                 2.763625515890197E+04,      /* J = 16 */
(PID.TID 0000.0001)                 2.822545752042790E+04,      /* J = 17 */
(PID.TID 0000.0001)                 2.882920277162976E+04,      /* J = 18 */
(PID.TID 0000.0001)                 2.944752932187136E+04,      /* J = 19 */
(PID.TID 0000.0001)                 3.008048049319959E+04,      /* J = 20 */
(PID.TID 0000.0001)                 3.072810440966728E+04,      /* J = 21 */
(PID.TID 0000.0001)                 3.139045383903842E+04,      /* J = 22 */
(PID.TID 0000.0001)                 3.206758599174654E+04,      /* J = 23 */
(PID.TID 0000.0001)                 3.275956228156967E+04,      /* J = 24 */
(PID.TID 0000.0001)                 3.346644805244220E+04,      /* J = 25 */
(PID.TID 0000.0001)                 3.418831227550044E+04,      /* J = 26 */
(PID.TID 0000.0001)                 3.492522722017510E+04,      /* J = 27 */
(PID.TID 0000.0001)                 3.567726810399632E+04,      /* J = 28 */
(PID.TID 0000.0001)                 3.644451272859776E+04,      /* J = 29 */
(PID.TID 0000.0001)                 3.722704112152557E+04       /* J = 30 */
(PID.TID 0000.0001)     ;
(PID.TID 0000.0001) dyU =  /* dyU(:,1,:,1) ( units: m ) */
(PID.TID 0000.0001)                 3.674473316658630E+04,      /* I =  1 */
(PID.TID 0000.0001)                 3.681932833792822E+04,      /* I =  2 */
(PID.TID 0000.0001)                 3.688795269313092E+04,      /* I =  3 */
(PID.TID 0000.0001)                 3.695060647275718E+04,      /* I =  4 */
(PID.TID 0000.0001)                 3.700729014250917E+04,      /* I =  5 */
(PID.TID 0000.0001)                 3.705800432398131E+04,      /* I =  6 */
(PID.TID 0000.0001)                 3.710274973294064E+04,      /* I =  7 */
(PID.TID 0000.0001)                 3.714152712500728E+04,      /* I =  8 */
(PID.TID 0000.0001)                 3.717433724834998E+04,      /* I =  9 */
(PID.TID 0000.0001)                 3.720118080314009E+04,      /* I = 10 */
(PID.TID 0000.0001)                 3.722205840764935E+04,      /* I = 11 */
(PID.TID 0000.0001)                 3.723697057073888E+04,      /* I = 12 */
(PID.TID 0000.0001)                 3.724591767054543E+04,      /* I = 13 */
(PID.TID 0000.0001)                 3.724891083990022E+04,      /* I = 14 */
(PID.TID 0000.0001)                 3.724591767054542E+04,      /* I = 15 */
(PID.TID 0000.0001)                 3.723697057073889E+04,      /* I = 16 */
(PID.TID 0000.0001)                 3.722205840764935E+04,      /* I = 17 */
(PID.TID 0000.0001)                 3.720118080314008E+04,      /* I = 18 */
(PID.TID 0000.0001)                 3.717433724834998E+04,      /* I = 19 */
(PID.TID 0000.0001)                 3.714152712500728E+04,      /* I = 20 */
(PID.TID 0000.0001)                 3.710274973294063E+04,      /* I = 21 */
(PID.TID 0000.0001)                 3.705800432398131E+04,      /* I = 22 */
(PID.TID 0000.0001)                 3.700729014250917E+04,      /* I = 23 */
(PID.TID 0000.0001)                 3.695060647275716E+04,      /* I = 24 */
(PID.TID 0000.0001)                 3.688795269313094E+04,      /* I = 25 */
(PID.TID 0000.0001)                 3.681932833792821E+04,      /* I = 26 */
(PID.TID 0000.0001)                 3.674473316658630E+04,      /* I = 27 */
(PID.TID 0000.0001)                 3.666416724104654E+04,      /* I = 28 */
(PID.TID 0000.0001)                 3.657763101146962E+04,      /* I = 29 */
(PID.TID 0000.0001)                 3.648512541079492E+04       /* I = 30 */
(PID.TID 0000.0001)     ;
(PID.TID 0000.0001) dyU =  /* dyU(1,:,1,:) ( units: m ) */
(PID.TID 0000.0001)                 3.674473316658630E+04,      /* J =  1 */
(PID.TID 0000.0001)                 3.719361547538896E+04,      /* J =  2 */
(PID.TID 0000.0001)                 3.764089459751266E+04,      /* J =  3 */
(PID.TID 0000.0001)                 3.808646730382765E+04,      /* J =  4 */
(PID.TID 0000.0001)                 3.853023123895088E+04,      /* J =  5 */
(PID.TID 0000.0001)                 3.897208503739593E+04,      /* J =  6 */
(PID.TID 0000.0001)                 3.941192840112046E+04,      /* J =  7 */
(PID.TID 0000.0001)                 3.984966213263487E+04,      /* J =  8 */
(PID.TID 0000.0001)                 4.028518814419441E+04,      /* J =  9 */
(PID.TID 0000.0001)                 4.071840943468107E+04,      /* J = 10 */
(PID.TID 0000.0001)                 4.114923005120406E+04,      /* J = 11 */
(PID.TID 0000.0001)                 4.157755503103340E+04,      /* J = 12 */
(PID.TID 0000.0001)                 4.200329033666767E+04,      /* J = 13 */
(PID.TID 0000.0001)                 4.242634277960793E+04,      /* J = 14 */
(PID.TID 0000.0001)                 4.284661994092684E+04,      /* J = 15 */
(PID.TID 0000.0001)                 4.326403010205203E+04,      /* J = 16 */
(PID.TID 0000.0001)                 4.367848215462093E+04,      /* J = 17 */
(PID.TID 0000.0001)                 4.408988554208750E+04,      /* J = 18 */
(PID.TID 0000.0001)                 4.449815018464295E+04,      /* J = 19 */
(PID.TID 0000.0001)                 4.490318642518511E+04,      /* J = 20 */
(PID.TID 0000.0001)                 4.530490497491705E+04,      /* J = 21 */
(PID.TID 0000.0001)                 4.570321687598708E+04,      /* J = 22 */
(PID.TID 0000.0001)                 4.609803347024994E+04,      /* J = 23 */
(PID.TID 0000.0001)                 4.648926637992392E+04,      /* J = 24 */
(PID.TID 0000.0001)                 4.687682751321772E+04,      /* J = 25 */
(PID.TID 0000.0001)                 4.726062909013533E+04,      /* J = 26 */
(PID.TID 0000.0001)                 4.764058372401170E+04,      /* J = 27 */
(PID.TID 0000.0001)                 4.801660464021451E+04,      /* J = 28 */
(PID.TID 0000.0001)                 4.838860633247659E+04,      /* J = 29 */
(PID.TID 0000.0001)                 4.875650803021456E+04       /* J = 30 */
(PID.TID 0000.0001)     ;
(PID.TID 0000.0001) rA  =  /* rA (:,1,:,1) ( units: m^2 ) */
(PID.TID 0000.0001)                 7.665113621396177E+08,      /* I =  1 */
(PID.TID 0000.0001)                 7.677029697239892E+08,      /* I =  2 */
(PID.TID 0000.0001)                 7.687913877455838E+08,      /* I =  3 */
(PID.TID 0000.0001)                 7.697775979751738E+08,      /* I =  4 */
(PID.TID 0000.0001)                 7.706625466485583E+08,      /* I =  5 */
(PID.TID 0000.0001)                 7.714470546020026E+08,      /* I =  6 */
(PID.TID 0000.0001)                 7.721318586456149E+08,      /* I =  7 */
(PID.TID 0000.0001)                 7.727176271684608E+08,      /* I =  8 */
(PID.TID 0000.0001)                 7.732049082776864E+08,      /* I =  9 */
(PID.TID 0000.0001)                 7.735941717305043E+08,      /* I = 10 */
(PID.TID 0000.0001)                 7.738858051500469E+08,      /* I = 11 */
(PID.TID 0000.0001)                 7.740801100790358E+08,      /* I = 12 */
(PID.TID 0000.0001)                 7.741766386182301E+08,      /* I = 13 */
(PID.TID 0000.0001)                 7.741766369784317E+08,      /* I = 14 */
(PID.TID 0000.0001)                 7.740801094843833E+08,      /* I = 15 */
(PID.TID 0000.0001)                 7.738858062852919E+08,      /* I = 16 */
(PID.TID 0000.0001)                 7.735941726495122E+08,      /* I = 17 */
(PID.TID 0000.0001)                 7.732049061873938E+08,      /* I = 18 */
(PID.TID 0000.0001)                 7.727176277450933E+08,      /* I = 19 */
(PID.TID 0000.0001)                 7.721318658895597E+08,      /* I = 20 */
(PID.TID 0000.0001)                 7.714470531424019E+08,      /* I = 21 */
(PID.TID 0000.0001)                 7.706625470810328E+08,      /* I = 22 */
(PID.TID 0000.0001)                 7.697776024260553E+08,      /* I = 23 */
(PID.TID 0000.0001)                 7.687913844659867E+08,      /* I = 24 */
(PID.TID 0000.0001)                 7.677029712196296E+08,      /* I = 25 */
(PID.TID 0000.0001)                 7.665113646083255E+08,      /* I = 26 */
(PID.TID 0000.0001)                 7.652154604170089E+08,      /* I = 27 */
(PID.TID 0000.0001)                 7.638140926048064E+08,      /* I = 28 */
(PID.TID 0000.0001)                 7.623059927966076E+08,      /* I = 29 */
(PID.TID 0000.0001)                 7.606898330980235E+08       /* I = 30 */
(PID.TID 0000.0001)     ;
(PID.TID 0000.0001) rA  =  /* rA (1,:,1,:) ( units: m^2 ) */
(PID.TID 0000.0001)                 7.665113621396177E+08,      /* J =  1 */
(PID.TID 0000.0001)                 7.900134359449342E+08,      /* J =  2 */
(PID.TID 0000.0001)                 8.143679155417176E+08,      /* J =  3 */
(PID.TID 0000.0001)                 8.395900636155584E+08,      /* J =  4 */
(PID.TID 0000.0001)                 8.656947784023314E+08,      /* J =  5 */
(PID.TID 0000.0001)                 8.926966010402582E+08,      /* J =  6 */
(PID.TID 0000.0001)                 9.206097737377057E+08,      /* J =  7 */
(PID.TID 0000.0001)                 9.494482582794807E+08,      /* J =  8 */
(PID.TID 0000.0001)                 9.792257431806778E+08,      /* J =  9 */
(PID.TID 0000.0001)                 1.009955679131553E+09,      /* J = 10 */
(PID.TID 0000.0001)                 1.041651296044221E+09,      /* J = 11 */
(PID.TID 0000.0001)                 1.074325614369065E+09,      /* J = 12 */
(PID.TID 0000.0001)                 1.107991467925779E+09,      /* J = 13 */
(PID.TID 0000.0001)                 1.142661498173082E+09,      /* J = 14 */
(PID.TID 0000.0001)                 1.178348167164929E+09,      /* J = 15 */
(PID.TID 0000.0001)                 1.215063762235644E+09,      /* J = 16 */
(PID.TID 0000.0001)                 1.252820414073754E+09,      /* J = 17 */
(PID.TID 0000.0001)                 1.291630043617734E+09,      /* J = 18 */
(PID.TID 0000.0001)                 1.331504416619858E+09,      /* J = 19 */
(PID.TID 0000.0001)                 1.372455096362339E+09,      /* J = 20 */
(PID.TID 0000.0001)                 1.414493440828222E+09,      /* J = 21 */
(PID.TID 0000.0001)                 1.457630613639386E+09,      /* J = 22 */
(PID.TID 0000.0001)                 1.501877517761831E+09,      /* J = 23 */
(PID.TID 0000.0001)                 1.547244834049951E+09,      /* J = 24 */
(PID.TID 0000.0001)                 1.593742963439136E+09,      /* J = 25 */
(PID.TID 0000.0001)                 1.641382020566774E+09,      /* J = 26 */
(PID.TID 0000.0001)                 1.690171807481416E+09,      /* J = 27 */
(PID.TID 0000.0001)                 1.740121820832662E+09,      /* J = 28 */
(PID.TID 0000.0001)                 1.791241246411172E+09,      /* J = 29 */
(PID.TID 0000.0001)                 1.843539059771026E+09       /* J = 30 */
(PID.TID 0000.0001)     ;
(PID.TID 0000.0001) rAw =  /* rAw(:,1,:,1) ( units: m^2 ) */
(PID.TID 0000.0001)                 7.658765213139513E+08,      /* I =  1 */
(PID.TID 0000.0001)                 7.671201328724998E+08,      /* I =  2 */
(PID.TID 0000.0001)                 7.682600121490355E+08,      /* I =  3 */
(PID.TID 0000.0001)                 7.692972101823016E+08,      /* I =  4 */
(PID.TID 0000.0001)                 7.702326756407654E+08,      /* I =  5 */
(PID.TID 0000.0001)                 7.710673044850856E+08,      /* I =  6 */
(PID.TID 0000.0001)                 7.718018764844863E+08,      /* I =  7 */
(PID.TID 0000.0001)                 7.724370884091616E+08,      /* I =  8 */
(PID.TID 0000.0001)                 7.729735468223690E+08,      /* I =  9 */
(PID.TID 0000.0001)                 7.734117650170708E+08,      /* I = 10 */
(PID.TID 0000.0001)                 7.737521718456172E+08,      /* I = 11 */
(PID.TID 0000.0001)                 7.739951054308500E+08,      /* I = 12 */
(PID.TID 0000.0001)                 7.741408739107244E+08,      /* I = 13 */
(PID.TID 0000.0001)                 7.741880730050739E+08,      /* I = 14 */
(PID.TID 0000.0001)                 7.741408710636016E+08,      /* I = 15 */
(PID.TID 0000.0001)                 7.739951071427275E+08,      /* I = 16 */
(PID.TID 0000.0001)                 7.737521718095777E+08,      /* I = 17 */
(PID.TID 0000.0001)                 7.734117675938969E+08,      /* I = 18 */
(PID.TID 0000.0001)                 7.729735457051437E+08,      /* I = 19 */
(PID.TID 0000.0001)                 7.724370889497546E+08,      /* I = 20 */
(PID.TID 0000.0001)                 7.718018793856685E+08,      /* I = 21 */
(PID.TID 0000.0001)                 7.710673053320146E+08,      /* I = 22 */
(PID.TID 0000.0001)                 7.702326816053071E+08,      /* I = 23 */
(PID.TID 0000.0001)                 7.692972065242898E+08,      /* I = 24 */
(PID.TID 0000.0001)                 7.682600115363635E+08,      /* I = 25 */
(PID.TID 0000.0001)                 7.671201363863536E+08,      /* I = 26 */
(PID.TID 0000.0001)                 7.658765213499908E+08,      /* I = 27 */
(PID.TID 0000.0001)                 7.645280345158333E+08,      /* I = 28 */
(PID.TID 0000.0001)                 7.630734673343852E+08,      /* I = 29 */
(PID.TID 0000.0001)                 7.615115062009304E+08       /* I = 30 */
(PID.TID 0000.0001)     ;
(PID.TID 0000.0001) rAw =  /* rAw(1,:,1,:) ( units: m^2 ) */
(PID.TID 0000.0001)                 7.658765213139513E+08,      /* J =  1 */
(PID.TID 0000.0001)                 7.893768970448780E+08,      /* J =  2 */
(PID.TID 0000.0001)                 8.137283914516071E+08,      /* J =  3 */
(PID.TID 0000.0001)                 8.389460603348250E+08,      /* J =  4 */
(PID.TID 0000.0001)                 8.650445848102766E+08,      /* J =  5 */
(PID.TID 0000.0001)                 8.920382782103341E+08,      /* J =  6 */
(PID.TID 0000.0001)                 9.199411445401106E+08,      /* J =  7 */
(PID.TID 0000.0001)                 9.487668893433769E+08,      /* J =  8 */
(PID.TID 0000.0001)                 9.785289545527842E+08,      /* J =  9 */
(PID.TID 0000.0001)                 1.009240515336406E+09,      /* J = 10 */
(PID.TID 0000.0001)                 1.040914522930714E+09,      /* J = 11 */
(PID.TID 0000.0001)                 1.073563715488477E+09,      /* J = 12 */
(PID.TID 0000.0001)                 1.107200612276400E+09,      /* J = 13 */
(PID.TID 0000.0001)                 1.141837554111466E+09,      /* J = 14 */
(PID.TID 0000.0001)                 1.177486672294872E+09,      /* J = 15 */
(PID.TID 0000.0001)                 1.214159933192917E+09,      /* J = 16 */
(PID.TID 0000.0001)                 1.251869095602249E+09,      /* J = 17 */
(PID.TID 0000.0001)                 1.290625742284441E+09,      /* J = 18 */
(PID.TID 0000.0001)                 1.330441258846839E+09,      /* J = 19 */
(PID.TID 0000.0001)                 1.371326820624166E+09,      /* J = 20 */
(PID.TID 0000.0001)                 1.413293399742275E+09,      /* J = 21 */
(PID.TID 0000.0001)                 1.456351737475827E+09,      /* J = 22 */
(PID.TID 0000.0001)                 1.500512320083793E+09,      /* J = 23 */
(PID.TID 0000.0001)                 1.545785394792978E+09,      /* J = 24 */
(PID.TID 0000.0001)                 1.592180902277974E+09,      /* J = 25 */
(PID.TID 0000.0001)                 1.639708504465653E+09,      /* J = 26 */
(PID.TID 0000.0001)                 1.688377519501836E+09,      /* J = 27 */
(PID.TID 0000.0001)                 1.738196956421325E+09,      /* J = 28 */
(PID.TID 0000.0001)                 1.789175499722981E+09,      /* J = 29 */
(PID.TID 0000.0001)                 1.841321602441802E+09       /* J = 30 */
(PID.TID 0000.0001)     ;
(PID.TID 0000.0001) rAs =  /* rAs(:,1,:,1) ( units: m^2 ) */
(PID.TID 0000.0001)                 7.550751050606852E+08,      /* I =  1 */
(PID.TID 0000.0001)                 7.562658447772087E+08,      /* I =  2 */
(PID.TID 0000.0001)                 7.573533970032284E+08,      /* I =  3 */
(PID.TID 0000.0001)                 7.583387692957978E+08,      /* I =  4 */
(PID.TID 0000.0001)                 7.592229121974397E+08,      /* I =  5 */
(PID.TID 0000.0001)                 7.600066705467438E+08,      /* I =  6 */
(PID.TID 0000.0001)                 7.606907923080522E+08,      /* I =  7 */
(PID.TID 0000.0001)                 7.612759532224941E+08,      /* I =  8 */
(PID.TID 0000.0001)                 7.617627129118443E+08,      /* I =  9 */
(PID.TID 0000.0001)                 7.621515550445726E+08,      /* I = 10 */
(PID.TID 0000.0001)                 7.624428588466020E+08,      /* I = 11 */
(PID.TID 0000.0001)                 7.626369483673384E+08,      /* I = 12 */
(PID.TID 0000.0001)                 7.627333738515058E+08,      /* I = 13 */
(PID.TID 0000.0001)                 7.627333728604188E+08,      /* I = 14 */
(PID.TID 0000.0001)                 7.626369508901051E+08,      /* I = 15 */
(PID.TID 0000.0001)                 7.624428655319341E+08,      /* I = 16 */
(PID.TID 0000.0001)                 7.621515526659639E+08,      /* I = 17 */
(PID.TID 0000.0001)                 7.617627197953936E+08,      /* I = 18 */
(PID.TID 0000.0001)                 7.612759510961621E+08,      /* I = 19 */
(PID.TID 0000.0001)                 7.606907969030919E+08,      /* I = 20 */
(PID.TID 0000.0001)                 7.600066694295187E+08,      /* I = 21 */
(PID.TID 0000.0001)                 7.592229103594238E+08,      /* I = 22 */
(PID.TID 0000.0001)                 7.583387684488690E+08,      /* I = 23 */
(PID.TID 0000.0001)                 7.573533915792797E+08,      /* I = 24 */
(PID.TID 0000.0001)                 7.562658465071062E+08,      /* I = 25 */
(PID.TID 0000.0001)                 7.550751079979067E+08,      /* I = 26 */
(PID.TID 0000.0001)                 7.537800585200102E+08,      /* I = 27 */
(PID.TID 0000.0001)                 7.523795064624999E+08,      /* I = 28 */
(PID.TID 0000.0001)                 7.508721675027735E+08,      /* I = 29 */
(PID.TID 0000.0001)                 7.492566800675046E+08       /* I = 30 */
(PID.TID 0000.0001)     ;
(PID.TID 0000.0001) rAs =  /* rAs(1,:,1,:) ( units: m^2 ) */
(PID.TID 0000.0001)                 7.550751050606852E+08,      /* J =  1 */
(PID.TID 0000.0001)                 7.781568160584769E+08,      /* J =  2 */
(PID.TID 0000.0001)                 8.020831616625657E+08,      /* J =  3 */
(PID.TID 0000.0001)                 8.268695937660589E+08,      /* J =  4 */
(PID.TID 0000.0001)                 8.525311818286231E+08,      /* J =  5 */
(PID.TID 0000.0001)                 8.790826547724357E+08,      /* J =  6 */
(PID.TID 0000.0001)                 9.065383887828039E+08,      /* J =  7 */
(PID.TID 0000.0001)                 9.349124897125442E+08,      /* J =  8 */
(PID.TID 0000.0001)                 9.642187819277472E+08,      /* J =  9 */
(PID.TID 0000.0001)                 9.944708240750725E+08,      /* J = 10 */
(PID.TID 0000.0001)                 1.025681954725808E+09,      /* J = 11 */
(PID.TID 0000.0001)                 1.057865313008499E+09,      /* J = 12 */
(PID.TID 0000.0001)                 1.091033805921100E+09,      /* J = 13 */
(PID.TID 0000.0001)                 1.125200178247652E+09,      /* J = 14 */
(PID.TID 0000.0001)                 1.160376979600140E+09,      /* J = 15 */
(PID.TID 0000.0001)                 1.196576586510721E+09,      /* J = 16 */
(PID.TID 0000.0001)                 1.233811208089928E+09,      /* J = 17 */
(PID.TID 0000.0001)                 1.272092866313053E+09,      /* J = 18 */
(PID.TID 0000.0001)                 1.311433405822894E+09,      /* J = 19 */
(PID.TID 0000.0001)                 1.351844507714875E+09,      /* J = 20 */
(PID.TID 0000.0001)                 1.393337606051485E+09,      /* J = 21 */
(PID.TID 0000.0001)                 1.435923987908001E+09,      /* J = 22 */
(PID.TID 0000.0001)                 1.479614675036705E+09,      /* J = 23 */
(PID.TID 0000.0001)                 1.524420466465598E+09,      /* J = 24 */
(PID.TID 0000.0001)                 1.570351910729954E+09,      /* J = 25 */
(PID.TID 0000.0001)                 1.617419255741331E+09,      /* J = 26 */
(PID.TID 0000.0001)                 1.665632470339211E+09,      /* J = 27 */
(PID.TID 0000.0001)                 1.715001205152071E+09,      /* J = 28 */
(PID.TID 0000.0001)                 1.765534790867491E+09,      /* J = 29 */
(PID.TID 0000.0001)                 1.817242347954489E+09       /* J = 30 */
(PID.TID 0000.0001)     ;
(PID.TID 0000.0001) globalArea = /* Integrated horizontal Area (m^2) */
(PID.TID 0000.0001)                 3.580138611494433E+14
(PID.TID 0000.0001)     ;
(PID.TID 0000.0001) hasWetCSCorners = /* Domain contains CS corners (True/False) */
(PID.TID 0000.0001)                   F
(PID.TID 0000.0001)     ;
(PID.TID 0000.0001) // =======================================================
(PID.TID 0000.0001) // End of Model config. summary
(PID.TID 0000.0001) // =======================================================
(PID.TID 0000.0001) 
(PID.TID 0000.0001) == Packages configuration : Check & print summary ==
(PID.TID 0000.0001) 
(PID.TID 0000.0001) KPP_CHECK: #define ALLOW_KPP
(PID.TID 0000.0001) GAD_CHECK: #define ALLOW_GENERIC_ADVDIFF
(PID.TID 0000.0001) // =======================================================
(PID.TID 0000.0001) // Check Model config. (CONFIG_CHECK):
(PID.TID 0000.0001) // CONFIG_CHECK : Normal End
(PID.TID 0000.0001) // =======================================================
(PID.TID 0000.0001) 
(PID.TID 0000.0001)  MDS_READ_META: opening file: pickup.0000000001.meta
(PID.TID 0000.0001)  nRecords = 403 ; filePrec =  64 ; fileIter =     26280
(PID.TID 0000.0001)     nDims =   2 , dims:
(PID.TID 0000.0001)    1:  90   1  90
(PID.TID 0000.0001)    2:1170   11170
(PID.TID 0000.0001)     nFlds =  11 , nFl3D =   8 , fields:
(PID.TID 0000.0001)  >Uvel    < >Vvel    < >Theta   < >Salt    < >GuNm1   < >GuNm2   < >GvNm1   < >GvNm2   < >EtaN    < >dEtaHdt < >EtaH    <
(PID.TID 0000.0001) missingVal=  1.00000000000000E+00 ; nTimRec =   1 , timeList:
(PID.TID 0000.0001)   9.460800000000E+07
(PID.TID 0000.0001) READ_MFLDS_3D_RL: read field: "Uvel    ", #   1 in fldList, rec=   1
(PID.TID 0000.0001)  MDS_READ_FIELD: opening global file: pickup.0000000001.data
(PID.TID 0000.0001) READ_MFLDS_3D_RL: read field: "Vvel    ", #   2 in fldList, rec=   2
(PID.TID 0000.0001)  MDS_READ_FIELD: opening global file: pickup.0000000001.data
(PID.TID 0000.0001) READ_MFLDS_3D_RL: read field: "Theta   ", #   3 in fldList, rec=   3
(PID.TID 0000.0001)  MDS_READ_FIELD: opening global file: pickup.0000000001.data
(PID.TID 0000.0001) READ_MFLDS_3D_RL: read field: "Salt    ", #   4 in fldList, rec=   4
(PID.TID 0000.0001)  MDS_READ_FIELD: opening global file: pickup.0000000001.data
(PID.TID 0000.0001) READ_MFLDS_3D_RL: read field: "GuNm1   ", #   5 in fldList, rec=   5
(PID.TID 0000.0001)  MDS_READ_FIELD: opening global file: pickup.0000000001.data
(PID.TID 0000.0001) READ_MFLDS_3D_RL: read field: "GvNm1   ", #   7 in fldList, rec=   7
(PID.TID 0000.0001)  MDS_READ_FIELD: opening global file: pickup.0000000001.data
(PID.TID 0000.0001) READ_MFLDS_3D_RL: read field: "EtaN    ", #   9 in fldList, rec= 401
(PID.TID 0000.0001)  MDS_READ_FIELD: opening global file: pickup.0000000001.data
(PID.TID 0000.0001) READ_MFLDS_3D_RL: read field: "dEtaHdt ", #  10 in fldList, rec= 402
(PID.TID 0000.0001)  MDS_READ_FIELD: opening global file: pickup.0000000001.data
(PID.TID 0000.0001) READ_MFLDS_CHECK: - normal end ; reset MFLDS file-name: pickup.0000000001
(PID.TID 0000.0001) // =======================================================
(PID.TID 0000.0001) // Model current state
(PID.TID 0000.0001) // =======================================================
(PID.TID 0000.0001) 
(PID.TID 0000.0001) SOLVE_FOR_PRESSURE: putPmEinXvector =    F
 cg2d: Sum(rhs),rhsMax =   4.28025036759918E+01  3.11536434780056E+00
 cg2d: Sum(rhs),rhsMax =   2.72881980034165E+01  4.83703660614996E+00
 cg2d: Sum(rhs),rhsMax =   2.64897708620604E+01  4.91246416969420E+00
 cg2d: Sum(rhs),rhsMax =   4.14388822983396E+01  3.10412832372315E+00
 cg2d: Sum(rhs),rhsMax =   3.32608889583398E+01  3.83429248984955E+00
 cg2d: Sum(rhs),rhsMax =   3.69518296100409E+01  3.42894121862860E+00
 cg2d: Sum(rhs),rhsMax =   3.54084611219464E+01  3.55949241531651E+00
(PID.TID 0000.0001)      cg2d_init_res =   2.89556417574392E+00
(PID.TID 0000.0001)      cg2d_iters(min,last) =      -1      26
(PID.TID 0000.0001)      cg2d_last_res =   6.62462822687927E-06
(PID.TID 0000.0001) // =======================================================
(PID.TID 0000.0001) // Begin MONITOR dynamic field statistics
(PID.TID 0000.0001) // =======================================================
(PID.TID 0000.0001) %MON time_tsnumber                =                     8
(PID.TID 0000.0001) %MON time_secondsf                =   7.2000000000000E+03
(PID.TID 0000.0001) %MON dynstat_eta_max              =   1.5242467432588E+00
(PID.TID 0000.0001) %MON dynstat_eta_min              =  -4.5718976674902E+00
(PID.TID 0000.0001) %MON dynstat_eta_mean             =  -1.4352933309642E-03
(PID.TID 0000.0001) %MON dynstat_eta_sd               =   7.4107442260286E-01
(PID.TID 0000.0001) %MON dynstat_eta_del2             =   2.7137396193303E-04
(PID.TID 0000.0001) %MON dynstat_uvel_max             =   1.1283347405647E+00
(PID.TID 0000.0001) %MON dynstat_uvel_min             =  -1.1762309092343E+00
(PID.TID 0000.0001) %MON dynstat_uvel_mean            =   2.1016549996563E-03
(PID.TID 0000.0001) %MON dynstat_uvel_sd              =   2.4061031394311E-02
(PID.TID 0000.0001) %MON dynstat_uvel_del2            =   2.7604438471226E-05
(PID.TID 0000.0001) %MON dynstat_vvel_max             =   8.4379492884094E-01
(PID.TID 0000.0001) %MON dynstat_vvel_min             =  -1.1051482354026E+00
(PID.TID 0000.0001) %MON dynstat_vvel_mean            =   1.1476147431273E-03
(PID.TID 0000.0001) %MON dynstat_vvel_sd              =   2.5208192708520E-02
(PID.TID 0000.0001) %MON dynstat_vvel_del2            =   2.6982620392623E-05
(PID.TID 0000.0001) %MON dynstat_wvel_max             =   1.4979197820002E-02
(PID.TID 0000.0001) %MON dynstat_wvel_min             =  -1.1160595604437E-02
(PID.TID 0000.0001) %MON dynstat_wvel_mean            =   2.7296959370349E-21
(PID.TID 0000.0001) %MON dynstat_wvel_sd              =   3.1011217061336E-04
(PID.TID 0000.0001) %MON dynstat_wvel_del2            =   6.4832586327199E-07
(PID.TID 0000.0001) %MON dynstat_theta_max            =   3.2661994328436E+01
(PID.TID 0000.0001) %MON dynstat_theta_min            =  -2.7360230445452E+00
(PID.TID 0000.0001) %MON dynstat_theta_mean           =   3.5901868460916E+00
(PID.TID 0000.0001) %MON dynstat_theta_sd             =   4.4236206904266E+00
(PID.TID 0000.0001) %MON dynstat_theta_del2           =   2.8656273865497E-04
(PID.TID 0000.0001) %MON dynstat_salt_max             =   4.0711525065400E+01
(PID.TID 0000.0001) %MON dynstat_salt_min             =   1.8852144166102E+01
(PID.TID 0000.0001) %MON dynstat_salt_mean            =   3.4725635888932E+01
(PID.TID 0000.0001) %MON dynstat_salt_sd              =   3.6841857658695E-01
(PID.TID 0000.0001) %MON dynstat_salt_del2            =   1.2379809823967E-04
(PID.TID 0000.0001) %MON dynstat_sst_max              =   3.2655457166407E+01
(PID.TID 0000.0001) %MON dynstat_sst_min              =  -2.7360230445452E+00
(PID.TID 0000.0001) %MON dynstat_sst_mean             =   1.8271605786235E+01
(PID.TID 0000.0001) %MON dynstat_sst_sd               =   1.0219133640236E+01
(PID.TID 0000.0001) %MON dynstat_sst_del2             =   2.6424382183767E-03
(PID.TID 0000.0001) %MON dynstat_sss_max              =   3.9661584287161E+01
(PID.TID 0000.0001) %MON dynstat_sss_min              =   1.8908832032030E+01
(PID.TID 0000.0001) %MON dynstat_sss_mean             =   3.4816841052150E+01
(PID.TID 0000.0001) %MON dynstat_sss_sd               =   1.0086935573835E+00
(PID.TID 0000.0001) %MON dynstat_sss_del2             =   1.9867399583536E-03
(PID.TID 0000.0001) %MON forcing_qnet_max             =   1.4831545940596E+03
(PID.TID 0000.0001) %MON forcing_qnet_min             =  -8.3976759245982E+03
(PID.TID 0000.0001) %MON forcing_qnet_mean            =  -1.1464604325325E+02
(PID.TID 0000.0001) %MON forcing_qnet_sd              =   4.2446366059337E+02
(PID.TID 0000.0001) %MON forcing_qnet_del2            =   1.7509022298611E+00
(PID.TID 0000.0001) %MON forcing_qsw_max              =   0.0000000000000E+00
(PID.TID 0000.0001) %MON forcing_qsw_min              =  -5.4512108430676E+02
(PID.TID 0000.0001) %MON forcing_qsw_mean             =  -1.1069937760349E+02
(PID.TID 0000.0001) %MON forcing_qsw_sd               =   1.5160618396446E+02
(PID.TID 0000.0001) %MON forcing_qsw_del2             =   2.5780585991793E-01
(PID.TID 0000.0001) %MON forcing_empmr_max            =   3.8347712252289E-03
(PID.TID 0000.0001) %MON forcing_empmr_min            =  -8.5951544344425E-02
(PID.TID 0000.0001) %MON forcing_empmr_mean           =  -8.1514796597587E-06
(PID.TID 0000.0001) %MON forcing_empmr_sd             =   3.8545486639585E-04
(PID.TID 0000.0001) %MON forcing_empmr_del2           =   2.6771462644420E-06
(PID.TID 0000.0001) %MON forcing_fu_max               =   1.3818182349205E+00
(PID.TID 0000.0001) %MON forcing_fu_min               =  -1.4561285376549E+00
(PID.TID 0000.0001) %MON forcing_fu_mean              =   1.2665563331488E-02
(PID.TID 0000.0001) %MON forcing_fu_sd                =   1.2055942464379E-01
(PID.TID 0000.0001) %MON forcing_fu_del2              =   1.8019779129080E-04
(PID.TID 0000.0001) %MON forcing_fv_max               =   8.6438220739365E-01
(PID.TID 0000.0001) %MON forcing_fv_min               =  -8.4914047300749E-01
(PID.TID 0000.0001) %MON forcing_fv_mean              =  -5.3900469425979E-03
(PID.TID 0000.0001) %MON forcing_fv_sd                =   1.1671989763887E-01
(PID.TID 0000.0001) %MON forcing_fv_del2              =   1.4456573962298E-04
(PID.TID 0000.0001) %MON trAdv_CFL_u_max              =   2.3872140931282E-02
(PID.TID 0000.0001) %MON trAdv_CFL_v_max              =   2.4081173061588E-02
(PID.TID 0000.0001) %MON trAdv_CFL_w_max              =   1.1358865300977E-01
(PID.TID 0000.0001) %MON advcfl_uvel_max              =   2.3733738074355E-02
(PID.TID 0000.0001) %MON advcfl_vvel_max              =   2.4218682379509E-02
(PID.TID 0000.0001) %MON advcfl_wvel_max              =   2.2717730601953E-01
(PID.TID 0000.0001) %MON advcfl_W_hf_max              =   1.1052047795221E-01
(PID.TID 0000.0001) %MON pe_b_mean                    =   7.2240504745357E-04
(PID.TID 0000.0001) %MON ke_max                       =   7.4364312696699E-01
(PID.TID 0000.0001) %MON ke_mean                      =   5.8833682158185E-04
(PID.TID 0000.0001) %MON ke_vol                       =   1.3350064351420E+18
(PID.TID 0000.0001) %MON vort_r_min                   =  -5.2869195212037E-05
(PID.TID 0000.0001) %MON vort_r_max                   =   3.6820361626377E-05
(PID.TID 0000.0001) %MON vort_a_mean                  =  -1.9725213241026E-05
(PID.TID 0000.0001) %MON vort_a_sd                    =   7.4538291645397E-05
(PID.TID 0000.0001) %MON vort_p_mean                  =  -2.1669263470803E-05
(PID.TID 0000.0001) %MON vort_p_sd                    =   9.3604948497497E-05
(PID.TID 0000.0001) %MON surfExpan_theta_mean         =   8.1567475451324E-06
(PID.TID 0000.0001) %MON surfExpan_salt_mean          =  -1.3405915112003E-07
(PID.TID 0000.0001) // =======================================================
(PID.TID 0000.0001) // End MONITOR dynamic field statistics
(PID.TID 0000.0001) // =======================================================
 cg2d: Sum(rhs),rhsMax =   3.69522480212831E+01  3.39588069073551E+00
 cg2d: Sum(rhs),rhsMax =   3.75395724661007E+01  3.33093755764920E+00
 cg2d: Sum(rhs),rhsMax =   3.53077280629388E+01  3.53121421552135E+00
 cg2d: Sum(rhs),rhsMax =   3.64316647450546E+01  3.41391058113450E+00
 cg2d: Sum(rhs),rhsMax =   3.56993870845661E+01  3.47626748577959E+00
 cg2d: Sum(rhs),rhsMax =   3.51910490040914E+01  3.51895814452331E+00
 cg2d: Sum(rhs),rhsMax =   3.48419007752207E+01  3.54672926783349E+00
 cg2d: Sum(rhs),rhsMax =   3.45321608850745E+01  3.57111947060967E+00
(PID.TID 0000.0001)      cg2d_init_res =   1.62452675829697E+00
(PID.TID 0000.0001)      cg2d_iters(min,last) =      -1      25
(PID.TID 0000.0001)      cg2d_last_res =   7.24745595058148E-06
(PID.TID 0000.0001) // =======================================================
(PID.TID 0000.0001) // Begin MONITOR dynamic field statistics
(PID.TID 0000.0001) // =======================================================
(PID.TID 0000.0001) %MON time_tsnumber                =                    16
(PID.TID 0000.0001) %MON time_secondsf                =   1.4400000000000E+04
(PID.TID 0000.0001) %MON dynstat_eta_max              =   1.3322045742682E+00
(PID.TID 0000.0001) %MON dynstat_eta_min              =  -4.1415286996361E+00
(PID.TID 0000.0001) %MON dynstat_eta_mean             =  -1.4043445652003E-03
(PID.TID 0000.0001) %MON dynstat_eta_sd               =   7.3501897891558E-01
(PID.TID 0000.0001) %MON dynstat_eta_del2             =   2.4834559406150E-04
(PID.TID 0000.0001) %MON dynstat_uvel_max             =   9.6060782336213E-01
(PID.TID 0000.0001) %MON dynstat_uvel_min             =  -1.3693560690937E+00
(PID.TID 0000.0001) %MON dynstat_uvel_mean            =   2.2523065529032E-03
(PID.TID 0000.0001) %MON dynstat_uvel_sd              =   2.9949201625091E-02
(PID.TID 0000.0001) %MON dynstat_uvel_del2            =   4.6301706434350E-05
(PID.TID 0000.0001) %MON dynstat_vvel_max             =   1.1446275594153E+00
(PID.TID 0000.0001) %MON dynstat_vvel_min             =  -1.3297663493001E+00
(PID.TID 0000.0001) %MON dynstat_vvel_mean            =   8.1217641750855E-04
(PID.TID 0000.0001) %MON dynstat_vvel_sd              =   2.9987216758257E-02
(PID.TID 0000.0001) %MON dynstat_vvel_del2            =   4.3103283291429E-05
(PID.TID 0000.0001) %MON dynstat_wvel_max             =   2.7081035078496E-02
(PID.TID 0000.0001) %MON dynstat_wvel_min             =  -2.2330310453342E-02
(PID.TID 0000.0001) %MON dynstat_wvel_mean            =  -5.3205937755765E-22
(PID.TID 0000.0001) %MON dynstat_wvel_sd              =   6.1720982511637E-04
(PID.TID 0000.0001) %MON dynstat_wvel_del2            =   1.2896387415035E-06
(PID.TID 0000.0001) %MON dynstat_theta_max            =   3.2663459693863E+01
(PID.TID 0000.0001) %MON dynstat_theta_min            =  -2.7285804820678E+00
(PID.TID 0000.0001) %MON dynstat_theta_mean           =   3.5902175619015E+00
(PID.TID 0000.0001) %MON dynstat_theta_sd             =   4.4236613149435E+00
(PID.TID 0000.0001) %MON dynstat_theta_del2           =   2.8263369263631E-04
(PID.TID 0000.0001) %MON dynstat_salt_max             =   4.0711518065476E+01
(PID.TID 0000.0001) %MON dynstat_salt_min             =   1.8857230767991E+01
(PID.TID 0000.0001) %MON dynstat_salt_mean            =   3.4725574558547E+01
(PID.TID 0000.0001) %MON dynstat_salt_sd              =   3.6821872438889E-01
(PID.TID 0000.0001) %MON dynstat_salt_del2            =   1.1945329488763E-04
(PID.TID 0000.0001) %MON dynstat_sst_max              =   3.2653949162110E+01
(PID.TID 0000.0001) %MON dynstat_sst_min              =  -2.7285804820678E+00
(PID.TID 0000.0001) %MON dynstat_sst_mean             =   1.8277520593334E+01
(PID.TID 0000.0001) %MON dynstat_sst_sd               =   1.0219482305306E+01
(PID.TID 0000.0001) %MON dynstat_sst_del2             =   2.5681670357533E-03
(PID.TID 0000.0001) %MON dynstat_sss_max              =   3.9608542026030E+01
(PID.TID 0000.0001) %MON dynstat_sss_min              =   1.8900452665053E+01
(PID.TID 0000.0001) %MON dynstat_sss_mean             =   3.4796357742090E+01
(PID.TID 0000.0001) %MON dynstat_sss_sd               =   9.9184742851715E-01
(PID.TID 0000.0001) %MON dynstat_sss_del2             =   1.9534739521888E-03
(PID.TID 0000.0001) %MON forcing_qnet_max             =   2.1427621481902E+03
(PID.TID 0000.0001) %MON forcing_qnet_min             =  -5.5543881672776E+03
(PID.TID 0000.0001) %MON forcing_qnet_mean            =  -6.6271679540111E+01
(PID.TID 0000.0001) %MON forcing_qnet_sd              =   3.0909932302725E+02
(PID.TID 0000.0001) %MON forcing_qnet_del2            =   1.2210927149375E+00
(PID.TID 0000.0001) %MON forcing_qsw_max              =   0.0000000000000E+00
(PID.TID 0000.0001) %MON forcing_qsw_min              =  -5.5019044296593E+02
(PID.TID 0000.0001) %MON forcing_qsw_mean             =  -1.0485233365417E+02
(PID.TID 0000.0001) %MON forcing_qsw_sd               =   1.4954928682145E+02
(PID.TID 0000.0001) %MON forcing_qsw_del2             =   2.5424929634032E-01
(PID.TID 0000.0001) %MON forcing_empmr_max            =   4.6114097349346E-03
(PID.TID 0000.0001) %MON forcing_empmr_min            =  -6.3476584851742E-02
(PID.TID 0000.0001) %MON forcing_empmr_mean           =  -3.3072659839228E-06
(PID.TID 0000.0001) %MON forcing_empmr_sd             =   3.1417408983336E-04
(PID.TID 0000.0001) %MON forcing_empmr_del2           =   2.2800146508790E-06
(PID.TID 0000.0001) %MON forcing_fu_max               =   1.3261951804161E+00
(PID.TID 0000.0001) %MON forcing_fu_min               =  -1.2890610098839E+00
(PID.TID 0000.0001) %MON forcing_fu_mean              =   1.2030409043067E-02
(PID.TID 0000.0001) %MON forcing_fu_sd                =   1.1652688366270E-01
(PID.TID 0000.0001) %MON forcing_fu_del2              =   1.7233340280063E-04
(PID.TID 0000.0001) %MON forcing_fv_max               =   7.6820147037506E-01
(PID.TID 0000.0001) %MON forcing_fv_min               =  -8.4165435391297E-01
(PID.TID 0000.0001) %MON forcing_fv_mean              =  -5.7556817459748E-03
(PID.TID 0000.0001) %MON forcing_fv_sd                =   1.1069309568995E-01
(PID.TID 0000.0001) %MON forcing_fv_del2              =   1.3790253683097E-04
(PID.TID 0000.0001) %MON trAdv_CFL_u_max              =   2.8993080639747E-02
(PID.TID 0000.0001) %MON trAdv_CFL_v_max              =   2.8975600343160E-02
(PID.TID 0000.0001) %MON trAdv_CFL_w_max              =   1.9713810637656E-01
(PID.TID 0000.0001) %MON advcfl_uvel_max              =   2.8824988251084E-02
(PID.TID 0000.0001) %MON advcfl_vvel_max              =   2.9141058023703E-02
(PID.TID 0000.0001) %MON advcfl_wvel_max              =   2.2293617471568E-01
(PID.TID 0000.0001) %MON advcfl_W_hf_max              =   2.1124300885814E-01
(PID.TID 0000.0001) %MON pe_b_mean                    =   7.1064742331879E-04
(PID.TID 0000.0001) %MON ke_max                       =   9.2800163770525E-01
(PID.TID 0000.0001) %MON ke_mean                      =   8.6887062233399E-04
(PID.TID 0000.0001) %MON ke_vol                       =   1.3350064351420E+18
(PID.TID 0000.0001) %MON vort_r_min                   =  -6.3909562586527E-05
(PID.TID 0000.0001) %MON vort_r_max                   =   5.7655522002493E-05
(PID.TID 0000.0001) %MON vort_a_mean                  =  -1.9725213241026E-05
(PID.TID 0000.0001) %MON vort_a_sd                    =   7.4538624953415E-05
(PID.TID 0000.0001) %MON vort_p_mean                  =  -2.1669263470803E-05
(PID.TID 0000.0001) %MON vort_p_sd                    =   9.3610073567649E-05
(PID.TID 0000.0001) %MON surfExpan_theta_mean         =   1.4276234332017E-06
(PID.TID 0000.0001) %MON surfExpan_salt_mean          =  -5.6960889535879E-07
(PID.TID 0000.0001) // =======================================================
(PID.TID 0000.0001) // End MONITOR dynamic field statistics
(PID.TID 0000.0001) // =======================================================
 cg2d: Sum(rhs),rhsMax =   3.46313271837323E+01  3.55419197590445E+00
 cg2d: Sum(rhs),rhsMax =   3.47882734392251E+01  3.53169106266211E+00
 cg2d: Sum(rhs),rhsMax =   3.50891940865965E+01  3.49467866117551E+00
 cg2d: Sum(rhs),rhsMax =   3.52423965952855E+01  3.47180823183757E+00
 cg2d: Sum(rhs),rhsMax =   3.52630540419370E+01  3.46141852429450E+00
 cg2d: Sum(rhs),rhsMax =   3.51706259986101E+01  3.46169693958663E+00
 cg2d: Sum(rhs),rhsMax =   3.39690850092302E+01  3.57498813581058E+00
 cg2d: Sum(rhs),rhsMax =   3.28841954591162E+01  3.68339460908458E+00
(PID.TID 0000.0001)      cg2d_init_res =   1.23178221927818E+00
(PID.TID 0000.0001)      cg2d_iters(min,last) =      -1      24
(PID.TID 0000.0001)      cg2d_last_res =   8.55552242808518E-06
(PID.TID 0000.0001) // =======================================================
(PID.TID 0000.0001) // Begin MONITOR dynamic field statistics
(PID.TID 0000.0001) // =======================================================
(PID.TID 0000.0001) %MON time_tsnumber                =                    24
(PID.TID 0000.0001) %MON time_secondsf                =   2.1600000000000E+04
(PID.TID 0000.0001) %MON dynstat_eta_max              =   1.1951299754801E+00
(PID.TID 0000.0001) %MON dynstat_eta_min              =  -4.8976628255697E+00
(PID.TID 0000.0001) %MON dynstat_eta_mean             =  -1.3793707478580E-03
(PID.TID 0000.0001) %MON dynstat_eta_sd               =   7.3055280923632E-01
(PID.TID 0000.0001) %MON dynstat_eta_del2             =   2.3051251732179E-04
(PID.TID 0000.0001) %MON dynstat_uvel_max             =   1.0463406844136E+00
(PID.TID 0000.0001) %MON dynstat_uvel_min             =  -1.5223280123468E+00
(PID.TID 0000.0001) %MON dynstat_uvel_mean            =   2.1173027264260E-03
(PID.TID 0000.0001) %MON dynstat_uvel_sd              =   3.4538794489345E-02
(PID.TID 0000.0001) %MON dynstat_uvel_del2            =   6.0825842687224E-05
(PID.TID 0000.0001) %MON dynstat_vvel_max             =   1.2121248594501E+00
(PID.TID 0000.0001) %MON dynstat_vvel_min             =  -1.3495286290603E+00
(PID.TID 0000.0001) %MON dynstat_vvel_mean            =   8.9822323985229E-04
(PID.TID 0000.0001) %MON dynstat_vvel_sd              =   3.5929862120017E-02
(PID.TID 0000.0001) %MON dynstat_vvel_del2            =   5.6970523577816E-05
(PID.TID 0000.0001) %MON dynstat_wvel_max             =   2.9490298995157E-02
(PID.TID 0000.0001) %MON dynstat_wvel_min             =  -2.6944861473108E-02
(PID.TID 0000.0001) %MON dynstat_wvel_mean            =   3.6781496100725E-21
(PID.TID 0000.0001) %MON dynstat_wvel_sd              =   7.5495673894278E-04
(PID.TID 0000.0001) %MON dynstat_wvel_del2            =   1.5892035152897E-06
(PID.TID 0000.0001) %MON dynstat_theta_max            =   3.2666932161048E+01
(PID.TID 0000.0001) %MON dynstat_theta_min            =  -2.7202442010400E+00
(PID.TID 0000.0001) %MON dynstat_theta_mean           =   3.5902410124289E+00
(PID.TID 0000.0001) %MON dynstat_theta_sd             =   4.4236866674330E+00
(PID.TID 0000.0001) %MON dynstat_theta_del2           =   2.7649530457284E-04
(PID.TID 0000.0001) %MON dynstat_salt_max             =   4.0711511967177E+01
(PID.TID 0000.0001) %MON dynstat_salt_min             =   1.8858747601293E+01
(PID.TID 0000.0001) %MON dynstat_salt_mean            =   3.4725537177261E+01
(PID.TID 0000.0001) %MON dynstat_salt_sd              =   3.6808482968531E-01
(PID.TID 0000.0001) %MON dynstat_salt_del2            =   1.1586201186640E-04
(PID.TID 0000.0001) %MON dynstat_sst_max              =   3.2658926720644E+01
(PID.TID 0000.0001) %MON dynstat_sst_min              =  -2.7202442010400E+00
(PID.TID 0000.0001) %MON dynstat_sst_mean             =   1.8278390259506E+01
(PID.TID 0000.0001) %MON dynstat_sst_sd               =   1.0221228498376E+01
(PID.TID 0000.0001) %MON dynstat_sst_del2             =   2.4740843097903E-03
(PID.TID 0000.0001) %MON dynstat_sss_max              =   3.9558436333272E+01
(PID.TID 0000.0001) %MON dynstat_sss_min              =   1.8897600575409E+01
(PID.TID 0000.0001) %MON dynstat_sss_mean             =   3.4786918548134E+01
(PID.TID 0000.0001) %MON dynstat_sss_sd               =   9.8352605168871E-01
(PID.TID 0000.0001) %MON dynstat_sss_del2             =   1.9028305306679E-03
(PID.TID 0000.0001) %MON forcing_qnet_max             =   3.4257472963598E+03
(PID.TID 0000.0001) %MON forcing_qnet_min             =  -5.9025357966609E+03
(PID.TID 0000.0001) %MON forcing_qnet_mean            =  -2.7315044391084E+01
(PID.TID 0000.0001) %MON forcing_qnet_sd              =   2.5990500670623E+02
(PID.TID 0000.0001) %MON forcing_qnet_del2            =   1.2015362835546E+00
(PID.TID 0000.0001) %MON forcing_qsw_max              =   0.0000000000000E+00
(PID.TID 0000.0001) %MON forcing_qsw_min              =  -5.5586894835528E+02
(PID.TID 0000.0001) %MON forcing_qsw_mean             =  -9.1442245931882E+01
(PID.TID 0000.0001) %MON forcing_qsw_sd               =   1.3530152002246E+02
(PID.TID 0000.0001) %MON forcing_qsw_del2             =   2.4029477792590E-01
(PID.TID 0000.0001) %MON forcing_empmr_max            =   5.9722224250436E-03
(PID.TID 0000.0001) %MON forcing_empmr_min            =  -6.3781291246414E-02
(PID.TID 0000.0001) %MON forcing_empmr_mean           =  -4.1458379193283E-06
(PID.TID 0000.0001) %MON forcing_empmr_sd             =   2.9438112288279E-04
(PID.TID 0000.0001) %MON forcing_empmr_del2           =   2.2689233599276E-06
(PID.TID 0000.0001) %MON forcing_fu_max               =   1.1971251368523E+00
(PID.TID 0000.0001) %MON forcing_fu_min               =  -1.1167789101601E+00
(PID.TID 0000.0001) %MON forcing_fu_mean              =   1.2187291484003E-02
(PID.TID 0000.0001) %MON forcing_fu_sd                =   1.1259611160740E-01
(PID.TID 0000.0001) %MON forcing_fu_del2              =   1.6501355755621E-04
(PID.TID 0000.0001) %MON forcing_fv_max               =   7.6442027091980E-01
(PID.TID 0000.0001) %MON forcing_fv_min               =  -8.0055179266128E-01
(PID.TID 0000.0001) %MON forcing_fv_mean              =  -6.6400861539148E-03
(PID.TID 0000.0001) %MON forcing_fv_sd                =   1.0759616139263E-01
(PID.TID 0000.0001) %MON forcing_fv_del2              =   1.3174612427535E-04
(PID.TID 0000.0001) %MON trAdv_CFL_u_max              =   2.9540418093133E-02
(PID.TID 0000.0001) %MON trAdv_CFL_v_max              =   2.9406220294176E-02
(PID.TID 0000.0001) %MON trAdv_CFL_w_max              =   2.3910544110277E-01
(PID.TID 0000.0001) %MON advcfl_uvel_max              =   2.9457807633411E-02
(PID.TID 0000.0001) %MON advcfl_vvel_max              =   2.9574136918708E-02
(PID.TID 0000.0001) %MON advcfl_wvel_max              =   2.4584363018537E-01
(PID.TID 0000.0001) %MON advcfl_W_hf_max              =   2.5677001374917E-01
(PID.TID 0000.0001) %MON pe_b_mean                    =   7.0203743778334E-04
(PID.TID 0000.0001) %MON ke_max                       =   1.1740376962707E+00
(PID.TID 0000.0001) %MON ke_mean                      =   1.2002631048389E-03
(PID.TID 0000.0001) %MON ke_vol                       =   1.3350064351420E+18
(PID.TID 0000.0001) %MON vort_r_min                   =  -6.4770241258669E-05
(PID.TID 0000.0001) %MON vort_r_max                   =   6.2832001052422E-05
(PID.TID 0000.0001) %MON vort_a_mean                  =  -1.9725213241026E-05
(PID.TID 0000.0001) %MON vort_a_sd                    =   7.4539524682548E-05
(PID.TID 0000.0001) %MON vort_p_mean                  =  -2.1669263470803E-05
(PID.TID 0000.0001) %MON vort_p_sd                    =   9.3617521561960E-05
(PID.TID 0000.0001) %MON surfExpan_theta_mean         =  -2.6005897277260E-06
(PID.TID 0000.0001) %MON surfExpan_salt_mean          =  -9.5500620878578E-07
(PID.TID 0000.0001) // =======================================================
(PID.TID 0000.0001) // End MONITOR dynamic field statistics
(PID.TID 0000.0001) // =======================================================
 cg2d: Sum(rhs),rhsMax =   3.19597492141104E+01  3.77939884853562E+00
 cg2d: Sum(rhs),rhsMax =   3.11569337438634E+01  3.86590306529363E+00
 cg2d: Sum(rhs),rhsMax =   3.01009263932435E+01  3.99026723548057E+00
 cg2d: Sum(rhs),rhsMax =   2.90905130561916E+01  4.11649649765203E+00
 cg2d: Sum(rhs),rhsMax =   2.81981045337050E+01  4.23331383136515E+00
 cg2d: Sum(rhs),rhsMax =   2.74433567132878E+01  4.33583682010479E+00
 cg2d: Sum(rhs),rhsMax =   2.68139018245931E+01  4.42322625926678E+00
 cg2d: Sum(rhs),rhsMax =   2.62701017039260E+01  4.49888131299638E+00
(PID.TID 0000.0001)      cg2d_init_res =   9.02448958592350E-01
(PID.TID 0000.0001)      cg2d_iters(min,last) =      -1      24
(PID.TID 0000.0001)      cg2d_last_res =   7.05517703363399E-06
(PID.TID 0000.0001) // =======================================================
(PID.TID 0000.0001) // Begin MONITOR dynamic field statistics
(PID.TID 0000.0001) // =======================================================
(PID.TID 0000.0001) %MON time_tsnumber                =                    32
(PID.TID 0000.0001) %MON time_secondsf                =   2.8800000000000E+04
(PID.TID 0000.0001) %MON dynstat_eta_max              =   1.1777380686185E+00
(PID.TID 0000.0001) %MON dynstat_eta_min              =  -3.7426933411139E+00
(PID.TID 0000.0001) %MON dynstat_eta_mean             =  -1.3458970239026E-03
(PID.TID 0000.0001) %MON dynstat_eta_sd               =   7.2963851471047E-01
(PID.TID 0000.0001) %MON dynstat_eta_del2             =   2.2348607885926E-04
(PID.TID 0000.0001) %MON dynstat_uvel_max             =   1.2778621413875E+00
(PID.TID 0000.0001) %MON dynstat_uvel_min             =  -1.6781647707393E+00
(PID.TID 0000.0001) %MON dynstat_uvel_mean            =   2.0120140337588E-03
(PID.TID 0000.0001) %MON dynstat_uvel_sd              =   3.6721237836420E-02
(PID.TID 0000.0001) %MON dynstat_uvel_del2            =   6.9957712712376E-05
(PID.TID 0000.0001) %MON dynstat_vvel_max             =   1.3099369843198E+00
(PID.TID 0000.0001) %MON dynstat_vvel_min             =  -1.2295666406121E+00
(PID.TID 0000.0001) %MON dynstat_vvel_mean            =   1.1535792035255E-03
(PID.TID 0000.0001) %MON dynstat_vvel_sd              =   4.0930168202708E-02
(PID.TID 0000.0001) %MON dynstat_vvel_del2            =   6.7293099472622E-05
(PID.TID 0000.0001) %MON dynstat_wvel_max             =   2.6657325989881E-02
(PID.TID 0000.0001) %MON dynstat_wvel_min             =  -2.5920807446183E-02
(PID.TID 0000.0001) %MON dynstat_wvel_mean            =   1.6193111490885E-21
(PID.TID 0000.0001) %MON dynstat_wvel_sd              =   7.5064078411933E-04
(PID.TID 0000.0001) %MON dynstat_wvel_del2            =   1.6275772648094E-06
(PID.TID 0000.0001) %MON dynstat_theta_max            =   3.2671250511993E+01
(PID.TID 0000.0001) %MON dynstat_theta_min            =  -2.7125377906370E+00
(PID.TID 0000.0001) %MON dynstat_theta_mean           =   3.5902506655827E+00
(PID.TID 0000.0001) %MON dynstat_theta_sd             =   4.4236828641394E+00
(PID.TID 0000.0001) %MON dynstat_theta_del2           =   2.6855394358281E-04
(PID.TID 0000.0001) %MON dynstat_salt_max             =   4.0711506890323E+01
(PID.TID 0000.0001) %MON dynstat_salt_min             =   1.8860552219577E+01
(PID.TID 0000.0001) %MON dynstat_salt_mean            =   3.4725509869069E+01
(PID.TID 0000.0001) %MON dynstat_salt_sd              =   3.6798280815855E-01
(PID.TID 0000.0001) %MON dynstat_salt_del2            =   1.1242950412561E-04
(PID.TID 0000.0001) %MON dynstat_sst_max              =   3.2670293534216E+01
(PID.TID 0000.0001) %MON dynstat_sst_min              =  -2.7125377906370E+00
(PID.TID 0000.0001) %MON dynstat_sst_mean             =   1.8275213136784E+01
(PID.TID 0000.0001) %MON dynstat_sst_sd               =   1.0221956058660E+01
(PID.TID 0000.0001) %MON dynstat_sst_del2             =   2.3755308316193E-03
(PID.TID 0000.0001) %MON dynstat_sss_max              =   3.9510260546794E+01
(PID.TID 0000.0001) %MON dynstat_sss_min              =   1.8896431317821E+01
(PID.TID 0000.0001) %MON dynstat_sss_mean             =   3.4782365280678E+01
(PID.TID 0000.0001) %MON dynstat_sss_sd               =   9.7957436453046E-01
(PID.TID 0000.0001) %MON dynstat_sss_del2             =   1.8522622297951E-03
(PID.TID 0000.0001) %MON forcing_qnet_max             =   1.8807915776837E+03
(PID.TID 0000.0001) %MON forcing_qnet_min             =  -3.7753124665547E+03
(PID.TID 0000.0001) %MON forcing_qnet_mean            =   3.3035306417032E+00
(PID.TID 0000.0001) %MON forcing_qnet_sd              =   2.3927450784930E+02
(PID.TID 0000.0001) %MON forcing_qnet_del2            =   9.6751566541448E-01
(PID.TID 0000.0001) %MON forcing_qsw_max              =   0.0000000000000E+00
(PID.TID 0000.0001) %MON forcing_qsw_min              =  -5.4473134647169E+02
(PID.TID 0000.0001) %MON forcing_qsw_mean             =  -7.9997884833393E+01
(PID.TID 0000.0001) %MON forcing_qsw_sd               =   1.2661260905949E+02
(PID.TID 0000.0001) %MON forcing_qsw_del2             =   2.2714879850217E-01
(PID.TID 0000.0001) %MON forcing_empmr_max            =   5.2380370907485E-03
(PID.TID 0000.0001) %MON forcing_empmr_min            =  -7.0380009710789E-02
(PID.TID 0000.0001) %MON forcing_empmr_mean           =  -5.6686872883964E-06
(PID.TID 0000.0001) %MON forcing_empmr_sd             =   3.3326153639124E-04
(PID.TID 0000.0001) %MON forcing_empmr_del2           =   2.7137484647116E-06
(PID.TID 0000.0001) %MON forcing_fu_max               =   1.0809442400932E+00
(PID.TID 0000.0001) %MON forcing_fu_min               =  -1.0045882165432E+00
(PID.TID 0000.0001) %MON forcing_fu_mean              =   1.2248157881351E-02
(PID.TID 0000.0001) %MON forcing_fu_sd                =   1.0938767701038E-01
(PID.TID 0000.0001) %MON forcing_fu_del2              =   1.6012996836346E-04
(PID.TID 0000.0001) %MON forcing_fv_max               =   7.4000474810600E-01
(PID.TID 0000.0001) %MON forcing_fv_min               =  -6.9552897874443E-01
(PID.TID 0000.0001) %MON forcing_fv_mean              =  -7.9557673241606E-03
(PID.TID 0000.0001) %MON forcing_fv_sd                =   1.0596842732030E-01
(PID.TID 0000.0001) %MON forcing_fv_del2              =   1.2732417043936E-04
(PID.TID 0000.0001) %MON trAdv_CFL_u_max              =   3.0536108612347E-02
(PID.TID 0000.0001) %MON trAdv_CFL_v_max              =   2.6103476074554E-02
(PID.TID 0000.0001) %MON trAdv_CFL_w_max              =   2.6673243941987E-01
(PID.TID 0000.0001) %MON advcfl_uvel_max              =   3.0450713681150E-02
(PID.TID 0000.0001) %MON advcfl_vvel_max              =   2.6161326452891E-02
(PID.TID 0000.0001) %MON advcfl_wvel_max              =   2.7723230398504E-01
(PID.TID 0000.0001) %MON advcfl_W_hf_max              =   2.8955373971771E-01
(PID.TID 0000.0001) %MON pe_b_mean                    =   7.0028120915652E-04
(PID.TID 0000.0001) %MON ke_max                       =   1.3496374577028E+00
(PID.TID 0000.0001) %MON ke_mean                      =   1.4606293554727E-03
(PID.TID 0000.0001) %MON ke_vol                       =   1.3350064351420E+18
(PID.TID 0000.0001) %MON vort_r_min                   =  -5.6836571682426E-05
(PID.TID 0000.0001) %MON vort_r_max                   =   6.3226657420930E-05
(PID.TID 0000.0001) %MON vort_a_mean                  =  -1.9725213241026E-05
(PID.TID 0000.0001) %MON vort_a_sd                    =   7.4540805627467E-05
(PID.TID 0000.0001) %MON vort_p_mean                  =  -2.1669263470803E-05
(PID.TID 0000.0001) %MON vort_p_sd                    =   9.3624349687079E-05
(PID.TID 0000.0001) %MON surfExpan_theta_mean         =  -3.6629047047103E-06
(PID.TID 0000.0001) %MON surfExpan_salt_mean          =  -4.3043933745558E-07
(PID.TID 0000.0001) // =======================================================
(PID.TID 0000.0001) // End MONITOR dynamic field statistics
(PID.TID 0000.0001) // =======================================================
 cg2d: Sum(rhs),rhsMax =   2.57897974831992E+01  4.56470451921611E+00
 cg2d: Sum(rhs),rhsMax =   2.53786570647169E+01  4.61949163524174E+00
 cg2d: Sum(rhs),rhsMax =   2.50248601698354E+01  4.66414774403005E+00
 cg2d: Sum(rhs),rhsMax =   2.47350298934527E+01  4.69758188563172E+00
 cg2d: Sum(rhs),rhsMax =   2.44950889460981E+01  4.72150884145224E+00
 cg2d: Sum(rhs),rhsMax =   2.41924860413660E+01  4.75661677218429E+00
 cg2d: Sum(rhs),rhsMax =   2.39304614453299E+01  4.78310058111713E+00
 cg2d: Sum(rhs),rhsMax =   2.37108580425511E+01  4.80100178049623E+00
(PID.TID 0000.0001)      cg2d_init_res =   7.70342215809798E-01
(PID.TID 0000.0001)      cg2d_iters(min,last) =      -1      23
(PID.TID 0000.0001)      cg2d_last_res =   8.36009529550079E-06
(PID.TID 0000.0001) // =======================================================
(PID.TID 0000.0001) // Begin MONITOR dynamic field statistics
(PID.TID 0000.0001) // =======================================================
(PID.TID 0000.0001) %MON time_tsnumber                =                    40
(PID.TID 0000.0001) %MON time_secondsf                =   3.6000000000000E+04
(PID.TID 0000.0001) %MON dynstat_eta_max              =   1.1889317205889E+00
(PID.TID 0000.0001) %MON dynstat_eta_min              =  -4.2719330296601E+00
(PID.TID 0000.0001) %MON dynstat_eta_mean             =  -1.2963571879930E-03
(PID.TID 0000.0001) %MON dynstat_eta_sd               =   7.2799060284118E-01
(PID.TID 0000.0001) %MON dynstat_eta_del2             =   2.2056884895943E-04
(PID.TID 0000.0001) %MON dynstat_uvel_max             =   1.4790202578328E+00
(PID.TID 0000.0001) %MON dynstat_uvel_min             =  -1.6936653669646E+00
(PID.TID 0000.0001) %MON dynstat_uvel_mean            =   1.7724768668373E-03
(PID.TID 0000.0001) %MON dynstat_uvel_sd              =   3.7489952595519E-02
(PID.TID 0000.0001) %MON dynstat_uvel_del2            =   7.5361969329514E-05
(PID.TID 0000.0001) %MON dynstat_vvel_max             =   1.3493071108468E+00
(PID.TID 0000.0001) %MON dynstat_vvel_min             =  -1.4193115798282E+00
(PID.TID 0000.0001) %MON dynstat_vvel_mean            =   1.5256841577675E-03
(PID.TID 0000.0001) %MON dynstat_vvel_sd              =   4.3544917571835E-02
(PID.TID 0000.0001) %MON dynstat_vvel_del2            =   7.4479453122586E-05
(PID.TID 0000.0001) %MON dynstat_wvel_max             =   2.2286076937646E-02
(PID.TID 0000.0001) %MON dynstat_wvel_min             =  -2.1869428979150E-02
(PID.TID 0000.0001) %MON dynstat_wvel_mean            =   2.2207695758928E-21
(PID.TID 0000.0001) %MON dynstat_wvel_sd              =   6.7980568717731E-04
(PID.TID 0000.0001) %MON dynstat_wvel_del2            =   1.5390330215072E-06
(PID.TID 0000.0001) %MON dynstat_theta_max            =   3.2680532093708E+01
(PID.TID 0000.0001) %MON dynstat_theta_min            =  -2.7080310223003E+00
(PID.TID 0000.0001) %MON dynstat_theta_mean           =   3.5902555470672E+00
(PID.TID 0000.0001) %MON dynstat_theta_sd             =   4.4236619135928E+00
(PID.TID 0000.0001) %MON dynstat_theta_del2           =   2.5983851566828E-04
(PID.TID 0000.0001) %MON dynstat_salt_max             =   4.0711502903776E+01
(PID.TID 0000.0001) %MON dynstat_salt_min             =   1.8861095765296E+01
(PID.TID 0000.0001) %MON dynstat_salt_mean            =   3.4725489977743E+01
(PID.TID 0000.0001) %MON dynstat_salt_sd              =   3.6790387313132E-01
(PID.TID 0000.0001) %MON dynstat_salt_del2            =   1.0908331378538E-04
(PID.TID 0000.0001) %MON dynstat_sst_max              =   3.2680532093708E+01
(PID.TID 0000.0001) %MON dynstat_sst_min              =  -2.7080310223003E+00
(PID.TID 0000.0001) %MON dynstat_sst_mean             =   1.8270092732949E+01
(PID.TID 0000.0001) %MON dynstat_sst_sd               =   1.0221845404571E+01
(PID.TID 0000.0001) %MON dynstat_sst_del2             =   2.2831387698918E-03
(PID.TID 0000.0001) %MON dynstat_sss_max              =   3.9464759416711E+01
(PID.TID 0000.0001) %MON dynstat_sss_min              =   1.8893180211374E+01
(PID.TID 0000.0001) %MON dynstat_sss_mean             =   3.4780733248891E+01
(PID.TID 0000.0001) %MON dynstat_sss_sd               =   9.7853209961633E-01
(PID.TID 0000.0001) %MON dynstat_sss_del2             =   1.8016339373496E-03
(PID.TID 0000.0001) %MON forcing_qnet_max             =   2.9969897460938E+03
(PID.TID 0000.0001) %MON forcing_qnet_min             =  -5.9636333217051E+03
(PID.TID 0000.0001) %MON forcing_qnet_mean            =   2.6295701197672E+01
(PID.TID 0000.0001) %MON forcing_qnet_sd              =   2.3205733558009E+02
(PID.TID 0000.0001) %MON forcing_qnet_del2            =   9.6108730059969E-01
(PID.TID 0000.0001) %MON forcing_qsw_max              =   0.0000000000000E+00
(PID.TID 0000.0001) %MON forcing_qsw_min              =  -5.4400507546333E+02
(PID.TID 0000.0001) %MON forcing_qsw_mean             =  -6.9556534302429E+01
(PID.TID 0000.0001) %MON forcing_qsw_sd               =   1.2789568096393E+02
(PID.TID 0000.0001) %MON forcing_qsw_del2             =   2.2233167028276E-01
(PID.TID 0000.0001) %MON forcing_empmr_max            =   7.8561743721366E-03
(PID.TID 0000.0001) %MON forcing_empmr_min            =  -1.0244218260050E-01
(PID.TID 0000.0001) %MON forcing_empmr_mean           =  -8.1503820706482E-06
(PID.TID 0000.0001) %MON forcing_empmr_sd             =   4.3833106366333E-04
(PID.TID 0000.0001) %MON forcing_empmr_del2           =   4.1669222940975E-06
(PID.TID 0000.0001) %MON forcing_fu_max               =   1.0671410560608E+00
(PID.TID 0000.0001) %MON forcing_fu_min               =  -9.0921407938004E-01
(PID.TID 0000.0001) %MON forcing_fu_mean              =   1.2296885253144E-02
(PID.TID 0000.0001) %MON forcing_fu_sd                =   1.0764960834108E-01
(PID.TID 0000.0001) %MON forcing_fu_del2              =   1.5567646262129E-04
(PID.TID 0000.0001) %MON forcing_fv_max               =   7.3095041513443E-01
(PID.TID 0000.0001) %MON forcing_fv_min               =  -6.7592674928276E-01
(PID.TID 0000.0001) %MON forcing_fv_mean              =  -9.2201508771487E-03
(PID.TID 0000.0001) %MON forcing_fv_sd                =   1.0502007333090E-01
(PID.TID 0000.0001) %MON forcing_fv_del2              =   1.2339662828603E-04
(PID.TID 0000.0001) %MON trAdv_CFL_u_max              =   2.8064493625273E-02
(PID.TID 0000.0001) %MON trAdv_CFL_v_max              =   2.6998540210356E-02
(PID.TID 0000.0001) %MON trAdv_CFL_w_max              =   2.6323861736507E-01
(PID.TID 0000.0001) %MON advcfl_uvel_max              =   2.8021550312965E-02
(PID.TID 0000.0001) %MON advcfl_vvel_max              =   2.7107993099496E-02
(PID.TID 0000.0001) %MON advcfl_wvel_max              =   2.7396472824642E-01
(PID.TID 0000.0001) %MON advcfl_W_hf_max              =   2.8614093839071E-01
(PID.TID 0000.0001) %MON pe_b_mean                    =   6.9712140492183E-04
(PID.TID 0000.0001) %MON ke_max                       =   1.3451780507330E+00
(PID.TID 0000.0001) %MON ke_mean                      =   1.5946986794874E-03
(PID.TID 0000.0001) %MON ke_vol                       =   1.3350064351420E+18
(PID.TID 0000.0001) %MON vort_r_min                   =  -4.9528054140553E-05
(PID.TID 0000.0001) %MON vort_r_max                   =   5.7362218880840E-05
(PID.TID 0000.0001) %MON vort_a_mean                  =  -1.9725213241026E-05
(PID.TID 0000.0001) %MON vort_a_sd                    =   7.4541936487203E-05
(PID.TID 0000.0001) %MON vort_p_mean                  =  -2.1669263470803E-05
(PID.TID 0000.0001) %MON vort_p_sd                    =   9.3628250104298E-05
(PID.TID 0000.0001) %MON surfExpan_theta_mean         =  -9.1514432853932E-06
(PID.TID 0000.0001) %MON surfExpan_salt_mean          =  -6.4151011001770E-07
(PID.TID 0000.0001) // =======================================================
(PID.TID 0000.0001) // End MONITOR dynamic field statistics
(PID.TID 0000.0001) // =======================================================
 cg2d: Sum(rhs),rhsMax =   2.35406440816314E+01  4.80894256129546E+00
 cg2d: Sum(rhs),rhsMax =   2.34217586877176E+01  4.80607708864041E+00
 cg2d: Sum(rhs),rhsMax =   2.33514485292669E+01  4.79274869792104E+00
 cg2d: Sum(rhs),rhsMax =   2.33236445475543E+01  4.76985563069636E+00
 cg2d: Sum(rhs),rhsMax =   2.33314759606744E+01  4.73878155258117E+00
 cg2d: Sum(rhs),rhsMax =   2.33753574545026E+01  4.69995573991541E+00
 cg2d: Sum(rhs),rhsMax =   2.34511715973692E+01  4.65391041038363E+00
 cg2d: Sum(rhs),rhsMax =   2.35586595163438E+01  4.60221690056611E+00
(PID.TID 0000.0001)      cg2d_init_res =   6.99575558962296E-01
(PID.TID 0000.0001)      cg2d_iters(min,last) =      -1      22
(PID.TID 0000.0001)      cg2d_last_res =   6.78066995203951E-06
(PID.TID 0000.0001) // =======================================================
(PID.TID 0000.0001) // Begin MONITOR dynamic field statistics
(PID.TID 0000.0001) // =======================================================
(PID.TID 0000.0001) %MON time_tsnumber                =                    48
(PID.TID 0000.0001) %MON time_secondsf                =   4.3200000000000E+04
(PID.TID 0000.0001) %MON dynstat_eta_max              =   1.3549370699874E+00
(PID.TID 0000.0001) %MON dynstat_eta_min              =  -3.4911867868449E+00
(PID.TID 0000.0001) %MON dynstat_eta_mean             =  -1.2347049837275E-03
(PID.TID 0000.0001) %MON dynstat_eta_sd               =   7.2138103656563E-01
(PID.TID 0000.0001) %MON dynstat_eta_del2             =   2.1252786328363E-04
(PID.TID 0000.0001) %MON dynstat_uvel_max             =   1.6301714615349E+00
(PID.TID 0000.0001) %MON dynstat_uvel_min             =  -1.6959885694853E+00
(PID.TID 0000.0001) %MON dynstat_uvel_mean            =   1.6840628170009E-03
(PID.TID 0000.0001) %MON dynstat_uvel_sd              =   3.7882293018931E-02
(PID.TID 0000.0001) %MON dynstat_uvel_del2            =   7.8387438635460E-05
(PID.TID 0000.0001) %MON dynstat_vvel_max             =   1.3972646463765E+00
(PID.TID 0000.0001) %MON dynstat_vvel_min             =  -1.5936497243178E+00
(PID.TID 0000.0001) %MON dynstat_vvel_mean            =   1.8528586847575E-03
(PID.TID 0000.0001) %MON dynstat_vvel_sd              =   4.3421034414519E-02
(PID.TID 0000.0001) %MON dynstat_vvel_del2            =   7.8851652917554E-05
(PID.TID 0000.0001) %MON dynstat_wvel_max             =   1.8689604820789E-02
(PID.TID 0000.0001) %MON dynstat_wvel_min             =  -1.7946794895858E-02
(PID.TID 0000.0001) %MON dynstat_wvel_mean            =  -9.2532065662200E-23
(PID.TID 0000.0001) %MON dynstat_wvel_sd              =   6.1264743385224E-04
(PID.TID 0000.0001) %MON dynstat_wvel_del2            =   1.4209686831301E-06
(PID.TID 0000.0001) %MON dynstat_theta_max            =   3.2682016159262E+01
(PID.TID 0000.0001) %MON dynstat_theta_min            =  -2.7075229224692E+00
(PID.TID 0000.0001) %MON dynstat_theta_mean           =   3.5902612615531E+00
(PID.TID 0000.0001) %MON dynstat_theta_sd             =   4.4236347071102E+00
(PID.TID 0000.0001) %MON dynstat_theta_del2           =   2.5136015923075E-04
(PID.TID 0000.0001) %MON dynstat_salt_max             =   4.0711500076711E+01
(PID.TID 0000.0001) %MON dynstat_salt_min             =   1.8861318366740E+01
(PID.TID 0000.0001) %MON dynstat_salt_mean            =   3.4725475760089E+01
(PID.TID 0000.0001) %MON dynstat_salt_sd              =   3.6784264862559E-01
(PID.TID 0000.0001) %MON dynstat_salt_del2            =   1.0597182383362E-04
(PID.TID 0000.0001) %MON dynstat_sst_max              =   3.2682016159262E+01
(PID.TID 0000.0001) %MON dynstat_sst_min              =  -2.7075229224692E+00
(PID.TID 0000.0001) %MON dynstat_sst_mean             =   1.8264699646511E+01
(PID.TID 0000.0001) %MON dynstat_sst_sd               =   1.0221518688195E+01
(PID.TID 0000.0001) %MON dynstat_sst_del2             =   2.2144749251439E-03
(PID.TID 0000.0001) %MON dynstat_sss_max              =   3.9421185596536E+01
(PID.TID 0000.0001) %MON dynstat_sss_min              =   1.8887609606370E+01
(PID.TID 0000.0001) %MON dynstat_sss_mean             =   3.4780132397478E+01
(PID.TID 0000.0001) %MON dynstat_sss_sd               =   9.7871199153932E-01
(PID.TID 0000.0001) %MON dynstat_sss_del2             =   1.7573612519474E-03
(PID.TID 0000.0001) %MON forcing_qnet_max             =   3.3004793616972E+03
(PID.TID 0000.0001) %MON forcing_qnet_min             =  -3.9089999770713E+03
(PID.TID 0000.0001) %MON forcing_qnet_mean            =   3.3688673253764E+01
(PID.TID 0000.0001) %MON forcing_qnet_sd              =   2.1968472025760E+02
(PID.TID 0000.0001) %MON forcing_qnet_del2            =   8.8582798715051E-01
(PID.TID 0000.0001) %MON forcing_qsw_max              =   0.0000000000000E+00
(PID.TID 0000.0001) %MON forcing_qsw_min              =  -5.4497563840832E+02
(PID.TID 0000.0001) %MON forcing_qsw_mean             =  -6.6486963332140E+01
(PID.TID 0000.0001) %MON forcing_qsw_sd               =   1.2247491219386E+02
(PID.TID 0000.0001) %MON forcing_qsw_del2             =   2.1224664937435E-01
(PID.TID 0000.0001) %MON forcing_empmr_max            =   5.4916720837355E-03
(PID.TID 0000.0001) %MON forcing_empmr_min            =  -1.2170728296041E-01
(PID.TID 0000.0001) %MON forcing_empmr_mean           =  -9.1580194314446E-06
(PID.TID 0000.0001) %MON forcing_empmr_sd             =   4.6521486399884E-04
(PID.TID 0000.0001) %MON forcing_empmr_del2           =   4.9668188429564E-06
(PID.TID 0000.0001) %MON forcing_fu_max               =   1.1339507102966E+00
(PID.TID 0000.0001) %MON forcing_fu_min               =  -8.5666254162788E-01
(PID.TID 0000.0001) %MON forcing_fu_mean              =   1.1860013602808E-02
(PID.TID 0000.0001) %MON forcing_fu_sd                =   1.0616903806457E-01
(PID.TID 0000.0001) %MON forcing_fu_del2              =   1.5166136560089E-04
(PID.TID 0000.0001) %MON forcing_fv_max               =   7.9969614744186E-01
(PID.TID 0000.0001) %MON forcing_fv_min               =  -7.5754910762989E-01
(PID.TID 0000.0001) %MON forcing_fv_mean              =  -1.0051944313465E-02
(PID.TID 0000.0001) %MON forcing_fv_sd                =   1.0409058274043E-01
(PID.TID 0000.0001) %MON forcing_fv_del2              =   1.2077311194508E-04
(PID.TID 0000.0001) %MON trAdv_CFL_u_max              =   2.7945249514878E-02
(PID.TID 0000.0001) %MON trAdv_CFL_v_max              =   3.1728582027409E-02
(PID.TID 0000.0001) %MON trAdv_CFL_w_max              =   2.3997035757293E-01
(PID.TID 0000.0001) %MON advcfl_uvel_max              =   2.8059987502266E-02
(PID.TID 0000.0001) %MON advcfl_vvel_max              =   3.1841857265903E-02
(PID.TID 0000.0001) %MON advcfl_wvel_max              =   2.4985179221381E-01
(PID.TID 0000.0001) %MON advcfl_W_hf_max              =   2.6095631631220E-01
(PID.TID 0000.0001) %MON pe_b_mean                    =   6.8452010672032E-04
(PID.TID 0000.0001) %MON ke_max                       =   1.5577894234437E+00
(PID.TID 0000.0001) %MON ke_mean                      =   1.6041460231916E-03
(PID.TID 0000.0001) %MON ke_vol                       =   1.3350064351420E+18
(PID.TID 0000.0001) %MON vort_r_min                   =  -5.7073416049090E-05
(PID.TID 0000.0001) %MON vort_r_max                   =   5.0560144834437E-05
(PID.TID 0000.0001) %MON vort_a_mean                  =  -1.9725213241026E-05
(PID.TID 0000.0001) %MON vort_a_sd                    =   7.4542585202877E-05
(PID.TID 0000.0001) %MON vort_p_mean                  =  -2.1669263470803E-05
(PID.TID 0000.0001) %MON vort_p_sd                    =   9.3628740800243E-05
(PID.TID 0000.0001) %MON surfExpan_theta_mean         =  -1.1423994137339E-05
(PID.TID 0000.0001) %MON surfExpan_salt_mean          =  -7.7492793148982E-07
(PID.TID 0000.0001) // =======================================================
(PID.TID 0000.0001) // End MONITOR dynamic field statistics
(PID.TID 0000.0001) // =======================================================
 cg2d: Sum(rhs),rhsMax =   2.37018837947801E+01  4.54589328187944E+00
 cg2d: Sum(rhs),rhsMax =   2.38713700483727E+01  4.48568810965899E+00
 cg2d: Sum(rhs),rhsMax =   2.40627625449449E+01  4.42189092916002E+00
 cg2d: Sum(rhs),rhsMax =   2.42832334511118E+01  4.35446941046487E+00
 cg2d: Sum(rhs),rhsMax =   2.45377979461002E+01  4.28328417400222E+00
 cg2d: Sum(rhs),rhsMax =   2.48259579823145E+01  4.20774585499119E+00
 cg2d: Sum(rhs),rhsMax =   2.51494430723046E+01  4.12748376813683E+00
 cg2d: Sum(rhs),rhsMax =   2.55131177267406E+01  4.04192572776190E+00
(PID.TID 0000.0001)      cg2d_init_res =   7.31637545860714E-01
(PID.TID 0000.0001)      cg2d_iters(min,last) =      -1      23
(PID.TID 0000.0001)      cg2d_last_res =   8.11982396710370E-06
(PID.TID 0000.0001) // =======================================================
(PID.TID 0000.0001) // Begin MONITOR dynamic field statistics
(PID.TID 0000.0001) // =======================================================
(PID.TID 0000.0001) %MON time_tsnumber                =                    56
(PID.TID 0000.0001) %MON time_secondsf                =   5.0400000000000E+04
(PID.TID 0000.0001) %MON dynstat_eta_max              =   1.1420606754814E+00
(PID.TID 0000.0001) %MON dynstat_eta_min              =  -3.3773030378056E+00
(PID.TID 0000.0001) %MON dynstat_eta_mean             =  -1.1743496010644E-03
(PID.TID 0000.0001) %MON dynstat_eta_sd               =   7.1454715777339E-01
(PID.TID 0000.0001) %MON dynstat_eta_del2             =   2.0240121055317E-04
(PID.TID 0000.0001) %MON dynstat_uvel_max             =   1.8383305739851E+00
(PID.TID 0000.0001) %MON dynstat_uvel_min             =  -1.6918142300789E+00
(PID.TID 0000.0001) %MON dynstat_uvel_mean            =   1.5868757943381E-03
(PID.TID 0000.0001) %MON dynstat_uvel_sd              =   3.7845809054510E-02
(PID.TID 0000.0001) %MON dynstat_uvel_del2            =   7.9548430593196E-05
(PID.TID 0000.0001) %MON dynstat_vvel_max             =   1.5046764891882E+00
(PID.TID 0000.0001) %MON dynstat_vvel_min             =  -1.7958873131288E+00
(PID.TID 0000.0001) %MON dynstat_vvel_mean            =   2.0477230439828E-03
(PID.TID 0000.0001) %MON dynstat_vvel_sd              =   4.1429797366065E-02
(PID.TID 0000.0001) %MON dynstat_vvel_del2            =   8.0731920116172E-05
(PID.TID 0000.0001) %MON dynstat_wvel_max             =   1.5945380981448E-02
(PID.TID 0000.0001) %MON dynstat_wvel_min             =  -1.6464722368872E-02
(PID.TID 0000.0001) %MON dynstat_wvel_mean            =   2.0357054445684E-21
(PID.TID 0000.0001) %MON dynstat_wvel_sd              =   5.7618068434436E-04
(PID.TID 0000.0001) %MON dynstat_wvel_del2            =   1.3159473864609E-06
(PID.TID 0000.0001) %MON dynstat_theta_max            =   3.2672118179071E+01
(PID.TID 0000.0001) %MON dynstat_theta_min            =  -2.7025482094925E+00
(PID.TID 0000.0001) %MON dynstat_theta_mean           =   3.5902671875340E+00
(PID.TID 0000.0001) %MON dynstat_theta_sd             =   4.4235992807001E+00
(PID.TID 0000.0001) %MON dynstat_theta_del2           =   2.4395347664082E-04
(PID.TID 0000.0001) %MON dynstat_salt_max             =   4.0711497876169E+01
(PID.TID 0000.0001) %MON dynstat_salt_min             =   1.8861442590644E+01
(PID.TID 0000.0001) %MON dynstat_salt_mean            =   3.4725466187100E+01
(PID.TID 0000.0001) %MON dynstat_salt_sd              =   3.6780190534402E-01
(PID.TID 0000.0001) %MON dynstat_salt_del2            =   1.0331849071087E-04
(PID.TID 0000.0001) %MON dynstat_sst_max              =   3.2648446883253E+01
(PID.TID 0000.0001) %MON dynstat_sst_min              =  -2.7025482094925E+00
(PID.TID 0000.0001) %MON dynstat_sst_mean             =   1.8261094434310E+01
(PID.TID 0000.0001) %MON dynstat_sst_sd               =   1.0221403012779E+01
(PID.TID 0000.0001) %MON dynstat_sst_del2             =   2.1620262891024E-03
(PID.TID 0000.0001) %MON dynstat_sss_max              =   3.9380164526796E+01
(PID.TID 0000.0001) %MON dynstat_sss_min              =   1.8882666839940E+01
(PID.TID 0000.0001) %MON dynstat_sss_mean             =   3.4779645165200E+01
(PID.TID 0000.0001) %MON dynstat_sss_sd               =   9.7913934199725E-01
(PID.TID 0000.0001) %MON dynstat_sss_del2             =   1.7242026905608E-03
(PID.TID 0000.0001) %MON forcing_qnet_max             =   4.0993361020486E+03
(PID.TID 0000.0001) %MON forcing_qnet_min             =  -3.2939994235547E+03
(PID.TID 0000.0001) %MON forcing_qnet_mean            =   2.2690213790562E+01
(PID.TID 0000.0001) %MON forcing_qnet_sd              =   2.0936238354507E+02
(PID.TID 0000.0001) %MON forcing_qnet_del2            =   8.0300077357754E-01
(PID.TID 0000.0001) %MON forcing_qsw_max              =   0.0000000000000E+00
(PID.TID 0000.0001) %MON forcing_qsw_min              =  -5.0798782647860E+02
(PID.TID 0000.0001) %MON forcing_qsw_mean             =  -7.2064523154543E+01
(PID.TID 0000.0001) %MON forcing_qsw_sd               =   1.2113317703947E+02
(PID.TID 0000.0001) %MON forcing_qsw_del2             =   2.1462802860137E-01
(PID.TID 0000.0001) %MON forcing_empmr_max            =   5.9487749822438E-03
(PID.TID 0000.0001) %MON forcing_empmr_min            =  -1.0347575694323E-01
(PID.TID 0000.0001) %MON forcing_empmr_mean           =  -9.0253810990657E-06
(PID.TID 0000.0001) %MON forcing_empmr_sd             =   4.0329540053322E-04
(PID.TID 0000.0001) %MON forcing_empmr_del2           =   4.4655837020061E-06
(PID.TID 0000.0001) %MON forcing_fu_max               =   1.0828704833984E+00
(PID.TID 0000.0001) %MON forcing_fu_min               =  -7.9270508885384E-01
(PID.TID 0000.0001) %MON forcing_fu_mean              =   1.1070155358961E-02
(PID.TID 0000.0001) %MON forcing_fu_sd                =   1.0403773825200E-01
(PID.TID 0000.0001) %MON forcing_fu_del2              =   1.4614399371255E-04
(PID.TID 0000.0001) %MON forcing_fv_max               =   8.1337922811508E-01
(PID.TID 0000.0001) %MON forcing_fv_min               =  -8.1520445003055E-01
(PID.TID 0000.0001) %MON forcing_fv_mean              =  -1.0335537734636E-02
(PID.TID 0000.0001) %MON forcing_fv_sd                =   1.0269068690406E-01
(PID.TID 0000.0001) %MON forcing_fv_del2              =   1.1929426313474E-04
(PID.TID 0000.0001) %MON trAdv_CFL_u_max              =   3.5119850372225E-02
(PID.TID 0000.0001) %MON trAdv_CFL_v_max              =   3.6331430076496E-02
(PID.TID 0000.0001) %MON trAdv_CFL_w_max              =   2.0599610881430E-01
(PID.TID 0000.0001) %MON advcfl_uvel_max              =   3.4768594427623E-02
(PID.TID 0000.0001) %MON advcfl_vvel_max              =   3.6461138091912E-02
(PID.TID 0000.0001) %MON advcfl_wvel_max              =   2.1435702159022E-01
(PID.TID 0000.0001) %MON advcfl_W_hf_max              =   2.2388400032756E-01
(PID.TID 0000.0001) %MON pe_b_mean                    =   6.7161201853811E-04
(PID.TID 0000.0001) %MON ke_max                       =   2.2631190922492E+00
(PID.TID 0000.0001) %MON ke_mean                      =   1.5215460528886E-03
(PID.TID 0000.0001) %MON ke_vol                       =   1.3350064351420E+18
(PID.TID 0000.0001) %MON vort_r_min                   =  -6.2819517674385E-05
(PID.TID 0000.0001) %MON vort_r_max                   =   6.4799618824494E-05
(PID.TID 0000.0001) %MON vort_a_mean                  =  -1.9725213241026E-05
(PID.TID 0000.0001) %MON vort_a_sd                    =   7.4542713793987E-05
(PID.TID 0000.0001) %MON vort_p_mean                  =  -2.1669263470803E-05
(PID.TID 0000.0001) %MON vort_p_sd                    =   9.3627192549025E-05
(PID.TID 0000.0001) %MON surfExpan_theta_mean         =  -8.3951727282502E-06
(PID.TID 0000.0001) %MON surfExpan_salt_mean          =  -1.2171223825118E-06
(PID.TID 0000.0001) // =======================================================
(PID.TID 0000.0001) // End MONITOR dynamic field statistics
(PID.TID 0000.0001) // =======================================================
 cg2d: Sum(rhs),rhsMax =   2.59298146375861E+01  3.95083636579956E+00
 cg2d: Sum(rhs),rhsMax =   2.63998235204058E+01  3.85413556839967E+00
 cg2d: Sum(rhs),rhsMax =   2.69325831860915E+01  3.75191072601804E+00
 cg2d: Sum(rhs),rhsMax =   2.75121271568917E+01  3.64674328173646E+00
 cg2d: Sum(rhs),rhsMax =   2.78233255944047E+01  3.57942156963981E+00
 cg2d: Sum(rhs),rhsMax =   2.81929135257890E+01  3.50702914747723E+00
 cg2d: Sum(rhs),rhsMax =   2.86212006037217E+01  3.42985713739075E+00
 cg2d: Sum(rhs),rhsMax =   2.91107337379249E+01  3.34802180983056E+00
(PID.TID 0000.0001)      cg2d_init_res =   8.51322376494656E-01
(PID.TID 0000.0001)      cg2d_iters(min,last) =      -1      23
(PID.TID 0000.0001)      cg2d_last_res =   9.22963079199635E-06
(PID.TID 0000.0001) // =======================================================
(PID.TID 0000.0001) // Begin MONITOR dynamic field statistics
(PID.TID 0000.0001) // =======================================================
(PID.TID 0000.0001) %MON time_tsnumber                =                    64
(PID.TID 0000.0001) %MON time_secondsf                =   5.7600000000000E+04
(PID.TID 0000.0001) %MON dynstat_eta_max              =   1.0935382145751E+00
(PID.TID 0000.0001) %MON dynstat_eta_min              =  -2.9694138719510E+00
(PID.TID 0000.0001) %MON dynstat_eta_mean             =  -1.1099079779285E-03
(PID.TID 0000.0001) %MON dynstat_eta_sd               =   7.0780551349799E-01
(PID.TID 0000.0001) %MON dynstat_eta_del2             =   1.9173792679247E-04
(PID.TID 0000.0001) %MON dynstat_uvel_max             =   1.7808457909602E+00
(PID.TID 0000.0001) %MON dynstat_uvel_min             =  -1.5750465002218E+00
(PID.TID 0000.0001) %MON dynstat_uvel_mean            =   1.4196785203584E-03
(PID.TID 0000.0001) %MON dynstat_uvel_sd              =   3.6988613587020E-02
(PID.TID 0000.0001) %MON dynstat_uvel_del2            =   7.9087845986151E-05
(PID.TID 0000.0001) %MON dynstat_vvel_max             =   1.5193893769350E+00
(PID.TID 0000.0001) %MON dynstat_vvel_min             =  -1.6110996593232E+00
(PID.TID 0000.0001) %MON dynstat_vvel_mean            =   1.9836486628044E-03
(PID.TID 0000.0001) %MON dynstat_vvel_sd              =   3.9035896750333E-02
(PID.TID 0000.0001) %MON dynstat_vvel_del2            =   8.0679825729274E-05
(PID.TID 0000.0001) %MON dynstat_wvel_max             =   1.6642428553168E-02
(PID.TID 0000.0001) %MON dynstat_wvel_min             =  -1.5426605744935E-02
(PID.TID 0000.0001) %MON dynstat_wvel_mean            =  -1.0872517715309E-21
(PID.TID 0000.0001) %MON dynstat_wvel_sd              =   5.5366054944349E-04
(PID.TID 0000.0001) %MON dynstat_wvel_del2            =   1.2278236989475E-06
(PID.TID 0000.0001) %MON dynstat_theta_max            =   3.2657373151362E+01
(PID.TID 0000.0001) %MON dynstat_theta_min            =  -2.6987642635609E+00
(PID.TID 0000.0001) %MON dynstat_theta_mean           =   3.5902725627380E+00
(PID.TID 0000.0001) %MON dynstat_theta_sd             =   4.4235582659585E+00
(PID.TID 0000.0001) %MON dynstat_theta_del2           =   2.3791834718588E-04
(PID.TID 0000.0001) %MON dynstat_salt_max             =   4.0711495731873E+01
(PID.TID 0000.0001) %MON dynstat_salt_min             =   1.8861693386580E+01
(PID.TID 0000.0001) %MON dynstat_salt_mean            =   3.4725459177880E+01
(PID.TID 0000.0001) %MON dynstat_salt_sd              =   3.6777090907811E-01
(PID.TID 0000.0001) %MON dynstat_salt_del2            =   1.0096030530544E-04
(PID.TID 0000.0001) %MON dynstat_sst_max              =   3.2630708909824E+01
(PID.TID 0000.0001) %MON dynstat_sst_min              =  -2.6987642635609E+00
(PID.TID 0000.0001) %MON dynstat_sst_mean             =   1.8259210825746E+01
(PID.TID 0000.0001) %MON dynstat_sst_sd               =   1.0221274601581E+01
(PID.TID 0000.0001) %MON dynstat_sst_del2             =   2.1149283764523E-03
(PID.TID 0000.0001) %MON dynstat_sss_max              =   3.9339215469849E+01
(PID.TID 0000.0001) %MON dynstat_sss_min              =   1.8878385341622E+01
(PID.TID 0000.0001) %MON dynstat_sss_mean             =   3.4779247111551E+01
(PID.TID 0000.0001) %MON dynstat_sss_sd               =   9.7955603452606E-01
(PID.TID 0000.0001) %MON dynstat_sss_del2             =   1.6936959986826E-03
(PID.TID 0000.0001) %MON forcing_qnet_max             =   1.8516947021484E+03
(PID.TID 0000.0001) %MON forcing_qnet_min             =  -4.8734877929688E+03
(PID.TID 0000.0001) %MON forcing_qnet_mean            =   1.1843913922813E+01
(PID.TID 0000.0001) %MON forcing_qnet_sd              =   2.1883744329598E+02
(PID.TID 0000.0001) %MON forcing_qnet_del2            =   8.5572456737557E-01
(PID.TID 0000.0001) %MON forcing_qsw_max              =   0.0000000000000E+00
(PID.TID 0000.0001) %MON forcing_qsw_min              =  -5.2825373602632E+02
(PID.TID 0000.0001) %MON forcing_qsw_mean             =  -7.6576687044175E+01
(PID.TID 0000.0001) %MON forcing_qsw_sd               =   1.3386617635896E+02
(PID.TID 0000.0001) %MON forcing_qsw_del2             =   2.2289479726441E-01
(PID.TID 0000.0001) %MON forcing_empmr_max            =   8.9573841542006E-03
(PID.TID 0000.0001) %MON forcing_empmr_min            =  -7.7283106744289E-02
(PID.TID 0000.0001) %MON forcing_empmr_mean           =  -9.1016029652133E-06
(PID.TID 0000.0001) %MON forcing_empmr_sd             =   3.2760811478618E-04
(PID.TID 0000.0001) %MON forcing_empmr_del2           =   3.4013919124492E-06
(PID.TID 0000.0001) %MON forcing_fu_max               =   1.0859566926956E+00
(PID.TID 0000.0001) %MON forcing_fu_min               =  -6.9946280121803E-01
(PID.TID 0000.0001) %MON forcing_fu_mean              =   1.0451196973584E-02
(PID.TID 0000.0001) %MON forcing_fu_sd                =   1.0282092890271E-01
(PID.TID 0000.0001) %MON forcing_fu_del2              =   1.4342265789027E-04
(PID.TID 0000.0001) %MON forcing_fv_max               =   8.6952152848244E-01
(PID.TID 0000.0001) %MON forcing_fv_min               =  -8.0290034810306E-01
(PID.TID 0000.0001) %MON forcing_fv_mean              =  -1.0140825616880E-02
(PID.TID 0000.0001) %MON forcing_fv_sd                =   1.0198922460086E-01
(PID.TID 0000.0001) %MON forcing_fv_del2              =   1.1847416401563E-04
(PID.TID 0000.0001) %MON trAdv_CFL_u_max              =   3.3999504333764E-02
(PID.TID 0000.0001) %MON trAdv_CFL_v_max              =   3.2593111043804E-02
(PID.TID 0000.0001) %MON trAdv_CFL_w_max              =   1.9163049998818E-01
(PID.TID 0000.0001) %MON advcfl_uvel_max              =   3.3659453681948E-02
(PID.TID 0000.0001) %MON advcfl_vvel_max              =   3.2709472765345E-02
(PID.TID 0000.0001) %MON advcfl_wvel_max              =   1.8201444965092E-01
(PID.TID 0000.0001) %MON advcfl_W_hf_max              =   1.9163049998818E-01
(PID.TID 0000.0001) %MON pe_b_mean                    =   6.5899852797162E-04
(PID.TID 0000.0001) %MON ke_max                       =   1.9294770843338E+00
(PID.TID 0000.0001) %MON ke_mean                      =   1.3973564537651E-03
(PID.TID 0000.0001) %MON ke_vol                       =   1.3350064351420E+18
(PID.TID 0000.0001) %MON vort_r_min                   =  -5.2377431042135E-05
(PID.TID 0000.0001) %MON vort_r_max                   =   6.3782387915736E-05
(PID.TID 0000.0001) %MON vort_a_mean                  =  -1.9725213241026E-05
(PID.TID 0000.0001) %MON vort_a_sd                    =   7.4542489067060E-05
(PID.TID 0000.0001) %MON vort_p_mean                  =  -2.1669263470803E-05
(PID.TID 0000.0001) %MON vort_p_sd                    =   9.3624920996337E-05
(PID.TID 0000.0001) %MON surfExpan_theta_mean         =  -6.2689901267775E-06
(PID.TID 0000.0001) %MON surfExpan_salt_mean          =  -6.1634761958550E-07
(PID.TID 0000.0001) // =======================================================
(PID.TID 0000.0001) // End MONITOR dynamic field statistics
(PID.TID 0000.0001) // =======================================================
 cg2d: Sum(rhs),rhsMax =   2.96486143632167E+01  3.26229098928485E+00
 cg2d: Sum(rhs),rhsMax =   3.02551626487543E+01  3.17305227003785E+00
 cg2d: Sum(rhs),rhsMax =   3.09312354307951E+01  3.08105012296576E+00
 cg2d: Sum(rhs),rhsMax =   3.11038341367725E+01  3.04055099182340E+00
 cg2d: Sum(rhs),rhsMax =   3.09860621368075E+01  3.02842176176473E+00
 cg2d: Sum(rhs),rhsMax =   3.07978952154465E+01  3.02252446055166E+00
 cg2d: Sum(rhs),rhsMax =   3.06046086422766E+01  3.01599665802607E+00
 cg2d: Sum(rhs),rhsMax =   3.04168808625368E+01  3.00890649284769E+00
(PID.TID 0000.0001)      cg2d_init_res =   8.78687103810677E-01
(PID.TID 0000.0001)      cg2d_iters(min,last) =      -1      23
(PID.TID 0000.0001)      cg2d_last_res =   9.53962233063539E-06
(PID.TID 0000.0001) // =======================================================
(PID.TID 0000.0001) // Begin MONITOR dynamic field statistics
(PID.TID 0000.0001) // =======================================================
(PID.TID 0000.0001) %MON time_tsnumber                =                    72
(PID.TID 0000.0001) %MON time_secondsf                =   6.4800000000000E+04
(PID.TID 0000.0001) %MON dynstat_eta_max              =   1.0567709322138E+00
(PID.TID 0000.0001) %MON dynstat_eta_min              =  -3.1956072970804E+00
(PID.TID 0000.0001) %MON dynstat_eta_mean             =  -1.0422428173351E-03
(PID.TID 0000.0001) %MON dynstat_eta_sd               =   7.0153584456262E-01
(PID.TID 0000.0001) %MON dynstat_eta_del2             =   1.7973352004222E-04
(PID.TID 0000.0001) %MON dynstat_uvel_max             =   1.7849689047882E+00
(PID.TID 0000.0001) %MON dynstat_uvel_min             =  -1.5980307794543E+00
(PID.TID 0000.0001) %MON dynstat_uvel_mean            =   1.1752194690868E-03
(PID.TID 0000.0001) %MON dynstat_uvel_sd              =   3.5578026604880E-02
(PID.TID 0000.0001) %MON dynstat_uvel_del2            =   7.7294886498194E-05
(PID.TID 0000.0001) %MON dynstat_vvel_max             =   1.4960495613879E+00
(PID.TID 0000.0001) %MON dynstat_vvel_min             =  -1.1082807058479E+00
(PID.TID 0000.0001) %MON dynstat_vvel_mean            =   1.8503835963828E-03
(PID.TID 0000.0001) %MON dynstat_vvel_sd              =   3.7213751587005E-02
(PID.TID 0000.0001) %MON dynstat_vvel_del2            =   7.9305158234289E-05
(PID.TID 0000.0001) %MON dynstat_wvel_max             =   1.5301056913276E-02
(PID.TID 0000.0001) %MON dynstat_wvel_min             =  -1.3231454435369E-02
(PID.TID 0000.0001) %MON dynstat_wvel_mean            =   1.7465427393740E-21
(PID.TID 0000.0001) %MON dynstat_wvel_sd              =   5.2225276480120E-04
(PID.TID 0000.0001) %MON dynstat_wvel_del2            =   1.1459287084457E-06
(PID.TID 0000.0001) %MON dynstat_theta_max            =   3.2639260196509E+01
(PID.TID 0000.0001) %MON dynstat_theta_min            =  -2.6839520883581E+00
(PID.TID 0000.0001) %MON dynstat_theta_mean           =   3.5902827203114E+00
(PID.TID 0000.0001) %MON dynstat_theta_sd             =   4.4235458755390E+00
(PID.TID 0000.0001) %MON dynstat_theta_del2           =   2.3344898045678E-04
(PID.TID 0000.0001) %MON dynstat_salt_max             =   4.0711493340612E+01
(PID.TID 0000.0001) %MON dynstat_salt_min             =   1.8863866594660E+01
(PID.TID 0000.0001) %MON dynstat_salt_mean            =   3.4725453025124E+01
(PID.TID 0000.0001) %MON dynstat_salt_sd              =   3.6774476374785E-01
(PID.TID 0000.0001) %MON dynstat_salt_del2            =   9.8735776504150E-05
(PID.TID 0000.0001) %MON dynstat_sst_max              =   3.2612798379353E+01
(PID.TID 0000.0001) %MON dynstat_sst_min              =  -2.6839520883581E+00
(PID.TID 0000.0001) %MON dynstat_sst_mean             =   1.8258965889936E+01
(PID.TID 0000.0001) %MON dynstat_sst_sd               =   1.0221797042901E+01
(PID.TID 0000.0001) %MON dynstat_sst_del2             =   2.0772341981529E-03
(PID.TID 0000.0001) %MON dynstat_sss_max              =   3.9297118352402E+01
(PID.TID 0000.0001) %MON dynstat_sss_min              =   1.8876593021096E+01
(PID.TID 0000.0001) %MON dynstat_sss_mean             =   3.4778919742522E+01
(PID.TID 0000.0001) %MON dynstat_sss_sd               =   9.7993330579166E-01
(PID.TID 0000.0001) %MON dynstat_sss_del2             =   1.6592636765128E-03
(PID.TID 0000.0001) %MON forcing_qnet_max             =   3.0735908203125E+03
(PID.TID 0000.0001) %MON forcing_qnet_min             =  -4.6931650390625E+03
(PID.TID 0000.0001) %MON forcing_qnet_mean            =  -7.4620250507753E-01
(PID.TID 0000.0001) %MON forcing_qnet_sd              =   2.2533797248213E+02
(PID.TID 0000.0001) %MON forcing_qnet_del2            =   6.9538418920103E-01
(PID.TID 0000.0001) %MON forcing_qsw_max              =   0.0000000000000E+00
(PID.TID 0000.0001) %MON forcing_qsw_min              =  -5.4484418516950E+02
(PID.TID 0000.0001) %MON forcing_qsw_mean             =  -8.3711551236258E+01
(PID.TID 0000.0001) %MON forcing_qsw_sd               =   1.4259091963112E+02
(PID.TID 0000.0001) %MON forcing_qsw_del2             =   2.3175024260701E-01
(PID.TID 0000.0001) %MON forcing_empmr_max            =   9.4086369499564E-03
(PID.TID 0000.0001) %MON forcing_empmr_min            =  -8.6764857172966E-02
(PID.TID 0000.0001) %MON forcing_empmr_mean           =  -1.0045192155945E-05
(PID.TID 0000.0001) %MON forcing_empmr_sd             =   3.6773462668943E-04
(PID.TID 0000.0001) %MON forcing_empmr_del2           =   2.7377207438572E-06
(PID.TID 0000.0001) %MON forcing_fu_max               =   9.7489112615585E-01
(PID.TID 0000.0001) %MON forcing_fu_min               =  -6.5207302570343E-01
(PID.TID 0000.0001) %MON forcing_fu_mean              =   1.0002502488975E-02
(PID.TID 0000.0001) %MON forcing_fu_sd                =   1.0105345916386E-01
(PID.TID 0000.0001) %MON forcing_fu_del2              =   1.4075663024072E-04
(PID.TID 0000.0001) %MON forcing_fv_max               =   9.0125253796578E-01
(PID.TID 0000.0001) %MON forcing_fv_min               =  -7.8708192484880E-01
(PID.TID 0000.0001) %MON forcing_fv_mean              =  -1.0205168469110E-02
(PID.TID 0000.0001) %MON forcing_fv_sd                =   1.0112791634144E-01
(PID.TID 0000.0001) %MON forcing_fv_del2              =   1.1675488794417E-04
(PID.TID 0000.0001) %MON trAdv_CFL_u_max              =   2.6146701873186E-02
(PID.TID 0000.0001) %MON trAdv_CFL_v_max              =   2.6552335625105E-02
(PID.TID 0000.0001) %MON trAdv_CFL_w_max              =   1.7472020423238E-01
(PID.TID 0000.0001) %MON advcfl_uvel_max              =   2.6439284147611E-02
(PID.TID 0000.0001) %MON advcfl_vvel_max              =   2.6556054537841E-02
(PID.TID 0000.0001) %MON advcfl_wvel_max              =   1.8055928951312E-01
(PID.TID 0000.0001) %MON advcfl_W_hf_max              =   1.8858414682482E-01
(PID.TID 0000.0001) %MON pe_b_mean                    =   6.4737538828615E-04
(PID.TID 0000.0001) %MON ke_max                       =   1.4579904400186E+00
(PID.TID 0000.0001) %MON ke_mean                      =   1.2804496914980E-03
(PID.TID 0000.0001) %MON ke_vol                       =   1.3350064351420E+18
(PID.TID 0000.0001) %MON vort_r_min                   =  -4.4448406927802E-05
(PID.TID 0000.0001) %MON vort_r_max                   =   4.8673446711983E-05
(PID.TID 0000.0001) %MON vort_a_mean                  =  -1.9725213241026E-05
(PID.TID 0000.0001) %MON vort_a_sd                    =   7.4542154694355E-05
(PID.TID 0000.0001) %MON vort_p_mean                  =  -2.1669263470803E-05
(PID.TID 0000.0001) %MON vort_p_sd                    =   9.3623410321275E-05
(PID.TID 0000.0001) %MON surfExpan_theta_mean         =  -7.0148560333538E-06
(PID.TID 0000.0001) %MON surfExpan_salt_mean          =  -4.5112214148011E-07
(PID.TID 0000.0001) // =======================================================
(PID.TID 0000.0001) // End MONITOR dynamic field statistics
(PID.TID 0000.0001) // =======================================================
 cg2d: Sum(rhs),rhsMax =   3.02336521522618E+01  3.00134755304608E+00
 cg2d: Sum(rhs),rhsMax =   3.00535380435833E+01  2.99343390957172E+00
 cg2d: Sum(rhs),rhsMax =   2.98275782432295E+01  2.99097305463075E+00
 cg2d: Sum(rhs),rhsMax =   2.96030509808552E+01  2.98897688253952E+00
 cg2d: Sum(rhs),rhsMax =   2.93864332443029E+01  2.98636543581032E+00
 cg2d: Sum(rhs),rhsMax =   2.91780635774946E+01  2.98270203333668E+00
 cg2d: Sum(rhs),rhsMax =   2.89859312387807E+01  2.97800194061938E+00
 cg2d: Sum(rhs),rhsMax =   2.88134947100077E+01  2.97279999932648E+00
(PID.TID 0000.0001)      cg2d_init_res =   8.17417132252588E-01
(PID.TID 0000.0001)      cg2d_iters(min,last) =      -1      23
(PID.TID 0000.0001)      cg2d_last_res =   7.80876565675847E-06
(PID.TID 0000.0001) // =======================================================
(PID.TID 0000.0001) // Begin MONITOR dynamic field statistics
(PID.TID 0000.0001) // =======================================================
(PID.TID 0000.0001) %MON time_tsnumber                =                    80
(PID.TID 0000.0001) %MON time_secondsf                =   7.2000000000000E+04
(PID.TID 0000.0001) %MON dynstat_eta_max              =   1.0476919263405E+00
(PID.TID 0000.0001) %MON dynstat_eta_min              =  -3.1108094836847E+00
(PID.TID 0000.0001) %MON dynstat_eta_mean             =  -9.7545484625920E-04
(PID.TID 0000.0001) %MON dynstat_eta_sd               =   6.9799214736246E-01
(PID.TID 0000.0001) %MON dynstat_eta_del2             =   1.7138882808280E-04
(PID.TID 0000.0001) %MON dynstat_uvel_max             =   1.7455423955323E+00
(PID.TID 0000.0001) %MON dynstat_uvel_min             =  -1.5854921222094E+00
(PID.TID 0000.0001) %MON dynstat_uvel_mean            =   9.1802326963907E-04
(PID.TID 0000.0001) %MON dynstat_uvel_sd              =   3.4499065102563E-02
(PID.TID 0000.0001) %MON dynstat_uvel_del2            =   7.4710790003690E-05
(PID.TID 0000.0001) %MON dynstat_vvel_max             =   1.4746157372923E+00
(PID.TID 0000.0001) %MON dynstat_vvel_min             =  -1.0169135075385E+00
(PID.TID 0000.0001) %MON dynstat_vvel_mean            =   1.6300645252257E-03
(PID.TID 0000.0001) %MON dynstat_vvel_sd              =   3.6071877764724E-02
(PID.TID 0000.0001) %MON dynstat_vvel_del2            =   7.7115298956800E-05
(PID.TID 0000.0001) %MON dynstat_wvel_max             =   1.2528923163717E-02
(PID.TID 0000.0001) %MON dynstat_wvel_min             =  -1.1346180097254E-02
(PID.TID 0000.0001) %MON dynstat_wvel_mean            =  -2.7513831399245E-21
(PID.TID 0000.0001) %MON dynstat_wvel_sd              =   4.7975770145734E-04
(PID.TID 0000.0001) %MON dynstat_wvel_del2            =   1.0630980298813E-06
(PID.TID 0000.0001) %MON dynstat_theta_max            =   3.2617962364706E+01
(PID.TID 0000.0001) %MON dynstat_theta_min            =  -2.5144878453281E+00
(PID.TID 0000.0001) %MON dynstat_theta_mean           =   3.5903002984101E+00
(PID.TID 0000.0001) %MON dynstat_theta_sd             =   4.4235866297923E+00
(PID.TID 0000.0001) %MON dynstat_theta_del2           =   2.3050307548413E-04
(PID.TID 0000.0001) %MON dynstat_salt_max             =   4.0711490224182E+01
(PID.TID 0000.0001) %MON dynstat_salt_min             =   1.8851232619112E+01
(PID.TID 0000.0001) %MON dynstat_salt_mean            =   3.4725447727922E+01
(PID.TID 0000.0001) %MON dynstat_salt_sd              =   3.6772503537746E-01
(PID.TID 0000.0001) %MON dynstat_salt_del2            =   9.6716334055950E-05
(PID.TID 0000.0001) %MON dynstat_sst_max              =   3.2595306232324E+01
(PID.TID 0000.0001) %MON dynstat_sst_min              =  -2.5144878453281E+00
(PID.TID 0000.0001) %MON dynstat_sst_mean             =   1.8260078211870E+01
(PID.TID 0000.0001) %MON dynstat_sst_sd               =   1.0223635539496E+01
(PID.TID 0000.0001) %MON dynstat_sst_del2             =   2.0475067950851E-03
(PID.TID 0000.0001) %MON dynstat_sss_max              =   3.9256654445988E+01
(PID.TID 0000.0001) %MON dynstat_sss_min              =   1.8851232619112E+01
(PID.TID 0000.0001) %MON dynstat_sss_mean             =   3.4778579939647E+01
(PID.TID 0000.0001) %MON dynstat_sss_sd               =   9.8038087818815E-01
(PID.TID 0000.0001) %MON dynstat_sss_del2             =   1.6277518703573E-03
(PID.TID 0000.0001) %MON forcing_qnet_max             =   1.9545121862945E+03
(PID.TID 0000.0001) %MON forcing_qnet_min             =  -6.4820297028557E+03
(PID.TID 0000.0001) %MON forcing_qnet_mean            =  -1.2533765052311E+01
(PID.TID 0000.0001) %MON forcing_qnet_sd              =   2.1895696648223E+02
(PID.TID 0000.0001) %MON forcing_qnet_del2            =   6.2361218713537E-01
(PID.TID 0000.0001) %MON forcing_qsw_max              =   0.0000000000000E+00
(PID.TID 0000.0001) %MON forcing_qsw_min              =  -5.4140336796252E+02
(PID.TID 0000.0001) %MON forcing_qsw_mean             =  -9.2020832727325E+01
(PID.TID 0000.0001) %MON forcing_qsw_sd               =   1.4007842860697E+02
(PID.TID 0000.0001) %MON forcing_qsw_del2             =   2.2719681833987E-01
(PID.TID 0000.0001) %MON forcing_empmr_max            =   1.0331941768527E-02
(PID.TID 0000.0001) %MON forcing_empmr_min            =  -1.0149580240250E-01
(PID.TID 0000.0001) %MON forcing_empmr_mean           =  -8.3725936978967E-06
(PID.TID 0000.0001) %MON forcing_empmr_sd             =   4.0664859269611E-04
(PID.TID 0000.0001) %MON forcing_empmr_del2           =   2.6062590753954E-06
(PID.TID 0000.0001) %MON forcing_fu_max               =   9.3229511380196E-01
(PID.TID 0000.0001) %MON forcing_fu_min               =  -6.5982693382549E-01
(PID.TID 0000.0001) %MON forcing_fu_mean              =   9.8092697896642E-03
(PID.TID 0000.0001) %MON forcing_fu_sd                =   9.9352261246651E-02
(PID.TID 0000.0001) %MON forcing_fu_del2              =   1.3785621506768E-04
(PID.TID 0000.0001) %MON forcing_fv_max               =   8.7968516349793E-01
(PID.TID 0000.0001) %MON forcing_fv_min               =  -8.0317208317042E-01
(PID.TID 0000.0001) %MON forcing_fv_mean              =  -1.0479695165444E-02
(PID.TID 0000.0001) %MON forcing_fv_sd                =   1.0068524634166E-01
(PID.TID 0000.0001) %MON forcing_fv_del2              =   1.1516806196538E-04
(PID.TID 0000.0001) %MON trAdv_CFL_u_max              =   2.5683249042337E-02
(PID.TID 0000.0001) %MON trAdv_CFL_v_max              =   2.6176380210387E-02
(PID.TID 0000.0001) %MON trAdv_CFL_w_max              =   1.7320594817830E-01
(PID.TID 0000.0001) %MON advcfl_uvel_max              =   2.5974273340981E-02
(PID.TID 0000.0001) %MON advcfl_vvel_max              =   2.6175762639903E-02
(PID.TID 0000.0001) %MON advcfl_wvel_max              =   1.8007814616517E-01
(PID.TID 0000.0001) %MON advcfl_W_hf_max              =   1.8808161932807E-01
(PID.TID 0000.0001) %MON pe_b_mean                    =   6.4085151542170E-04
(PID.TID 0000.0001) %MON ke_max                       =   1.3821807988230E+00
(PID.TID 0000.0001) %MON ke_mean                      =   1.2030101592672E-03
(PID.TID 0000.0001) %MON ke_vol                       =   1.3350064351420E+18
(PID.TID 0000.0001) %MON vort_r_min                   =  -4.6958591715830E-05
(PID.TID 0000.0001) %MON vort_r_max                   =   4.7724553111392E-05
(PID.TID 0000.0001) %MON vort_a_mean                  =  -1.9725213241026E-05
(PID.TID 0000.0001) %MON vort_a_sd                    =   7.4541845961632E-05
(PID.TID 0000.0001) %MON vort_p_mean                  =  -2.1669263470803E-05
(PID.TID 0000.0001) %MON vort_p_sd                    =   9.3622702465169E-05
(PID.TID 0000.0001) %MON surfExpan_theta_mean         =  -7.8098777173670E-06
(PID.TID 0000.0001) %MON surfExpan_salt_mean          =  -2.5652279917448E-07
(PID.TID 0000.0001) // =======================================================
(PID.TID 0000.0001) // End MONITOR dynamic field statistics
(PID.TID 0000.0001) // =======================================================
 cg2d: Sum(rhs),rhsMax =   2.86383628075594E+01  2.96797880073178E+00
 cg2d: Sum(rhs),rhsMax =   2.84453102802720E+01  2.96441383922988E+00
 cg2d: Sum(rhs),rhsMax =   2.82239148046735E+01  2.96345920486897E+00
 cg2d: Sum(rhs),rhsMax =   2.79701868004888E+01  2.96598742225504E+00
 cg2d: Sum(rhs),rhsMax =   2.76869486064475E+01  2.97118896459783E+00
 cg2d: Sum(rhs),rhsMax =   2.73874904038023E+01  2.97865592548537E+00
 cg2d: Sum(rhs),rhsMax =   2.70818729643509E+01  2.98773124544007E+00
 cg2d: Sum(rhs),rhsMax =   2.67684349511417E+01  2.99749544265932E+00
(PID.TID 0000.0001)      cg2d_init_res =   7.30269745827376E-01
(PID.TID 0000.0001)      cg2d_iters(min,last) =      -1      23
(PID.TID 0000.0001)      cg2d_last_res =   7.21607033829364E-06
(PID.TID 0000.0001) // =======================================================
(PID.TID 0000.0001) // Begin MONITOR dynamic field statistics
(PID.TID 0000.0001) // =======================================================
(PID.TID 0000.0001) %MON time_tsnumber                =                    88
(PID.TID 0000.0001) %MON time_secondsf                =   7.9200000000000E+04
(PID.TID 0000.0001) %MON dynstat_eta_max              =   1.0902688682148E+00
(PID.TID 0000.0001) %MON dynstat_eta_min              =  -3.0816471331897E+00
(PID.TID 0000.0001) %MON dynstat_eta_mean             =  -9.1374929420040E-04
(PID.TID 0000.0001) %MON dynstat_eta_sd               =   6.9440483810959E-01
(PID.TID 0000.0001) %MON dynstat_eta_del2             =   1.6486040213141E-04
(PID.TID 0000.0001) %MON dynstat_uvel_max             =   1.6692175070186E+00
(PID.TID 0000.0001) %MON dynstat_uvel_min             =  -1.4900474581785E+00
(PID.TID 0000.0001) %MON dynstat_uvel_mean            =   8.3823289458340E-04
(PID.TID 0000.0001) %MON dynstat_uvel_sd              =   3.4260226504935E-02
(PID.TID 0000.0001) %MON dynstat_uvel_del2            =   7.1855007099787E-05
(PID.TID 0000.0001) %MON dynstat_vvel_max             =   1.4687338240706E+00
(PID.TID 0000.0001) %MON dynstat_vvel_min             =  -1.1587666101323E+00
(PID.TID 0000.0001) %MON dynstat_vvel_mean            =   1.5783961921735E-03
(PID.TID 0000.0001) %MON dynstat_vvel_sd              =   3.5610371732528E-02
(PID.TID 0000.0001) %MON dynstat_vvel_del2            =   7.4514170553837E-05
(PID.TID 0000.0001) %MON dynstat_wvel_max             =   9.6140269378880E-03
(PID.TID 0000.0001) %MON dynstat_wvel_min             =  -9.9067459995874E-03
(PID.TID 0000.0001) %MON dynstat_wvel_mean            =   2.4289667236328E-21
(PID.TID 0000.0001) %MON dynstat_wvel_sd              =   4.4081203877394E-04
(PID.TID 0000.0001) %MON dynstat_wvel_del2            =   9.8135439172131E-07
(PID.TID 0000.0001) %MON dynstat_theta_max            =   3.2596384491375E+01
(PID.TID 0000.0001) %MON dynstat_theta_min            =  -2.3832875679655E+00
(PID.TID 0000.0001) %MON dynstat_theta_mean           =   3.5903264104412E+00
(PID.TID 0000.0001) %MON dynstat_theta_sd             =   4.4236669989075E+00
(PID.TID 0000.0001) %MON dynstat_theta_del2           =   2.2869363750852E-04
(PID.TID 0000.0001) %MON dynstat_salt_max             =   4.0711487074512E+01
(PID.TID 0000.0001) %MON dynstat_salt_min             =   1.8544365708566E+01
(PID.TID 0000.0001) %MON dynstat_salt_mean            =   3.4725442893322E+01
(PID.TID 0000.0001) %MON dynstat_salt_sd              =   3.6770750370249E-01
(PID.TID 0000.0001) %MON dynstat_salt_del2            =   9.4936218451161E-05
(PID.TID 0000.0001) %MON dynstat_sst_max              =   3.2576289545459E+01
(PID.TID 0000.0001) %MON dynstat_sst_min              =  -2.3832875679655E+00
(PID.TID 0000.0001) %MON dynstat_sst_mean             =   1.8261273164385E+01
(PID.TID 0000.0001) %MON dynstat_sst_sd               =   1.0225590224876E+01
(PID.TID 0000.0001) %MON dynstat_sst_del2             =   2.0232042685562E-03
(PID.TID 0000.0001) %MON dynstat_sss_max              =   3.9218967452381E+01
(PID.TID 0000.0001) %MON dynstat_sss_min              =   1.8544365708566E+01
(PID.TID 0000.0001) %MON dynstat_sss_mean             =   3.4778550479094E+01
(PID.TID 0000.0001) %MON dynstat_sss_sd               =   9.8125645560722E-01
(PID.TID 0000.0001) %MON dynstat_sss_del2             =   1.6006197487985E-03
(PID.TID 0000.0001) %MON forcing_qnet_max             =   3.6980988769531E+03
(PID.TID 0000.0001) %MON forcing_qnet_min             =  -2.4647795410156E+03
(PID.TID 0000.0001) %MON forcing_qnet_mean            =  -2.2675527915865E+01
(PID.TID 0000.0001) %MON forcing_qnet_sd              =   2.2165551547282E+02
(PID.TID 0000.0001) %MON forcing_qnet_del2            =   5.8854297622020E-01
(PID.TID 0000.0001) %MON forcing_qsw_max              =   0.0000000000000E+00
(PID.TID 0000.0001) %MON forcing_qsw_min              =  -5.3374316624769E+02
(PID.TID 0000.0001) %MON forcing_qsw_mean             =  -9.9501072140744E+01
(PID.TID 0000.0001) %MON forcing_qsw_sd               =   1.4403242946963E+02
(PID.TID 0000.0001) %MON forcing_qsw_del2             =   2.3440151475962E-01
(PID.TID 0000.0001) %MON forcing_empmr_max            =   5.6624352000654E-03
(PID.TID 0000.0001) %MON forcing_empmr_min            =  -9.8287202417850E-02
(PID.TID 0000.0001) %MON forcing_empmr_mean           =  -8.8990075422185E-06
(PID.TID 0000.0001) %MON forcing_empmr_sd             =   3.9305791066560E-04
(PID.TID 0000.0001) %MON forcing_empmr_del2           =   2.4543993326582E-06
(PID.TID 0000.0001) %MON forcing_fu_max               =   8.8717776536941E-01
(PID.TID 0000.0001) %MON forcing_fu_min               =  -6.7358739701375E-01
(PID.TID 0000.0001) %MON forcing_fu_mean              =   9.6633476887154E-03
(PID.TID 0000.0001) %MON forcing_fu_sd                =   9.8290958015421E-02
(PID.TID 0000.0001) %MON forcing_fu_del2              =   1.3523906558847E-04
(PID.TID 0000.0001) %MON forcing_fv_max               =   9.6561425924301E-01
(PID.TID 0000.0001) %MON forcing_fv_min               =  -8.1762587794881E-01
(PID.TID 0000.0001) %MON forcing_fv_mean              =  -1.0804357543477E-02
(PID.TID 0000.0001) %MON forcing_fv_sd                =   1.0021290113154E-01
(PID.TID 0000.0001) %MON forcing_fv_del2              =   1.1365704085424E-04
(PID.TID 0000.0001) %MON trAdv_CFL_u_max              =   2.4455892546010E-02
(PID.TID 0000.0001) %MON trAdv_CFL_v_max              =   2.6071968469103E-02
(PID.TID 0000.0001) %MON trAdv_CFL_w_max              =   1.6088958487480E-01
(PID.TID 0000.0001) %MON advcfl_uvel_max              =   2.4119166881858E-02
(PID.TID 0000.0001) %MON advcfl_vvel_max              =   2.6071353361970E-02
(PID.TID 0000.0001) %MON advcfl_wvel_max              =   1.6744818126044E-01
(PID.TID 0000.0001) %MON advcfl_W_hf_max              =   1.7489032264979E-01
(PID.TID 0000.0001) %MON pe_b_mean                    =   6.3428102900588E-04
(PID.TID 0000.0001) %MON ke_max                       =   1.3529006168816E+00
(PID.TID 0000.0001) %MON ke_mean                      =   1.1789910447045E-03
(PID.TID 0000.0001) %MON ke_vol                       =   1.3350064351420E+18
(PID.TID 0000.0001) %MON vort_r_min                   =  -4.8590144273444E-05
(PID.TID 0000.0001) %MON vort_r_max                   =   4.7569030415434E-05
(PID.TID 0000.0001) %MON vort_a_mean                  =  -1.9725213241026E-05
(PID.TID 0000.0001) %MON vort_a_sd                    =   7.4541633887522E-05
(PID.TID 0000.0001) %MON vort_p_mean                  =  -2.1669263470803E-05
(PID.TID 0000.0001) %MON vort_p_sd                    =   9.3622880699075E-05
(PID.TID 0000.0001) %MON surfExpan_theta_mean         =  -1.0031196486083E-05
(PID.TID 0000.0001) %MON surfExpan_salt_mean          =  -3.1910174296373E-08
(PID.TID 0000.0001) // =======================================================
(PID.TID 0000.0001) // End MONITOR dynamic field statistics
(PID.TID 0000.0001) // =======================================================
 cg2d: Sum(rhs),rhsMax =   2.64664056054855E+01  3.00695845950667E+00
 cg2d: Sum(rhs),rhsMax =   2.61800618037396E+01  3.01538424851590E+00
 cg2d: Sum(rhs),rhsMax =   2.59028504419089E+01  3.02233944296432E+00
 cg2d: Sum(rhs),rhsMax =   2.56348665008916E+01  3.02773958605502E+00
 cg2d: Sum(rhs),rhsMax =   2.53782089125225E+01  3.03182860806533E+00
 cg2d: Sum(rhs),rhsMax =   2.51322475961508E+01  3.03504648309559E+00
 cg2d: Sum(rhs),rhsMax =   2.48937028519870E+01  3.03796042071623E+00
 cg2d: Sum(rhs),rhsMax =   2.46570109411484E+01  3.04087147093384E+00
(PID.TID 0000.0001)      cg2d_init_res =   6.67395061846186E-01
(PID.TID 0000.0001)      cg2d_iters(min,last) =      -1      23
(PID.TID 0000.0001)      cg2d_last_res =   6.15679572541085E-06
(PID.TID 0000.0001) // =======================================================
(PID.TID 0000.0001) // Begin MONITOR dynamic field statistics
(PID.TID 0000.0001) // =======================================================
(PID.TID 0000.0001) %MON time_tsnumber                =                    96
(PID.TID 0000.0001) %MON time_secondsf                =   8.6400000000000E+04
(PID.TID 0000.0001) %MON dynstat_eta_max              =   1.1126116097434E+00
(PID.TID 0000.0001) %MON dynstat_eta_min              =  -3.0577879889867E+00
(PID.TID 0000.0001) %MON dynstat_eta_mean             =  -8.5385482060531E-04
(PID.TID 0000.0001) %MON dynstat_eta_sd               =   6.8919126982806E-01
(PID.TID 0000.0001) %MON dynstat_eta_del2             =   1.6071077375370E-04
(PID.TID 0000.0001) %MON dynstat_uvel_max             =   1.5581670907678E+00
(PID.TID 0000.0001) %MON dynstat_uvel_min             =  -1.5167125091364E+00
(PID.TID 0000.0001) %MON dynstat_uvel_mean            =   8.0778434166939E-04
(PID.TID 0000.0001) %MON dynstat_uvel_sd              =   3.4478264699491E-02
(PID.TID 0000.0001) %MON dynstat_uvel_del2            =   6.9129972011686E-05
(PID.TID 0000.0001) %MON dynstat_vvel_max             =   1.4619125884206E+00
(PID.TID 0000.0001) %MON dynstat_vvel_min             =  -1.1268133297898E+00
(PID.TID 0000.0001) %MON dynstat_vvel_mean            =   1.5470082735548E-03
(PID.TID 0000.0001) %MON dynstat_vvel_sd              =   3.6020147569921E-02
(PID.TID 0000.0001) %MON dynstat_vvel_del2            =   7.1892763972576E-05
(PID.TID 0000.0001) %MON dynstat_wvel_max             =   9.2631054180700E-03
(PID.TID 0000.0001) %MON dynstat_wvel_min             =  -1.0608031146760E-02
(PID.TID 0000.0001) %MON dynstat_wvel_mean            =   1.8159417886207E-21
(PID.TID 0000.0001) %MON dynstat_wvel_sd              =   4.1562135000802E-04
(PID.TID 0000.0001) %MON dynstat_wvel_del2            =   9.0727608534949E-07
(PID.TID 0000.0001) %MON dynstat_theta_max            =   3.2575597057384E+01
(PID.TID 0000.0001) %MON dynstat_theta_min            =  -2.3592089765934E+00
(PID.TID 0000.0001) %MON dynstat_theta_mean           =   3.5903587820798E+00
(PID.TID 0000.0001) %MON dynstat_theta_sd             =   4.4237719698302E+00
(PID.TID 0000.0001) %MON dynstat_theta_del2           =   2.2764257654571E-04
(PID.TID 0000.0001) %MON dynstat_salt_max             =   4.0711484323704E+01
(PID.TID 0000.0001) %MON dynstat_salt_min             =   1.7572957538961E+01
(PID.TID 0000.0001) %MON dynstat_salt_mean            =   3.4725438464619E+01
(PID.TID 0000.0001) %MON dynstat_salt_sd              =   3.6769051346679E-01
(PID.TID 0000.0001) %MON dynstat_salt_del2            =   9.3319885702054E-05
(PID.TID 0000.0001) %MON dynstat_sst_max              =   3.2556063193232E+01
(PID.TID 0000.0001) %MON dynstat_sst_min              =  -2.3592089765934E+00
(PID.TID 0000.0001) %MON dynstat_sst_mean             =   1.8263007569860E+01
(PID.TID 0000.0001) %MON dynstat_sst_sd               =   1.0227437272798E+01
(PID.TID 0000.0001) %MON dynstat_sst_del2             =   2.0023559309122E-03
(PID.TID 0000.0001) %MON dynstat_sss_max              =   3.9182486369737E+01
(PID.TID 0000.0001) %MON dynstat_sss_min              =   1.7572957538961E+01
(PID.TID 0000.0001) %MON dynstat_sss_mean             =   3.4778828221010E+01
(PID.TID 0000.0001) %MON dynstat_sss_sd               =   9.8252531738428E-01
(PID.TID 0000.0001) %MON dynstat_sss_del2             =   1.5758685292161E-03
(PID.TID 0000.0001) %MON forcing_qnet_max             =   5.2262900763084E+03
(PID.TID 0000.0001) %MON forcing_qnet_min             =  -1.3696508905388E+03
(PID.TID 0000.0001) %MON forcing_qnet_mean            =  -3.5186110103378E+01
(PID.TID 0000.0001) %MON forcing_qnet_sd              =   2.3531888308067E+02
(PID.TID 0000.0001) %MON forcing_qnet_del2            =   6.3139736024397E-01
(PID.TID 0000.0001) %MON forcing_qsw_max              =   0.0000000000000E+00
(PID.TID 0000.0001) %MON forcing_qsw_min              =  -5.3625824852303E+02
(PID.TID 0000.0001) %MON forcing_qsw_mean             =  -1.0843799166939E+02
(PID.TID 0000.0001) %MON forcing_qsw_sd               =   1.5131900674979E+02
(PID.TID 0000.0001) %MON forcing_qsw_del2             =   2.4969004922702E-01
(PID.TID 0000.0001) %MON forcing_empmr_max            =   4.6439617872238E-03
(PID.TID 0000.0001) %MON forcing_empmr_min            =  -8.2517653703690E-02
(PID.TID 0000.0001) %MON forcing_empmr_mean           =  -8.4328777727654E-06
(PID.TID 0000.0001) %MON forcing_empmr_sd             =   3.3684408375838E-04
(PID.TID 0000.0001) %MON forcing_empmr_del2           =   2.0656132842522E-06
(PID.TID 0000.0001) %MON forcing_fu_max               =   8.8310021162033E-01
(PID.TID 0000.0001) %MON forcing_fu_min               =  -6.9441397913474E-01
(PID.TID 0000.0001) %MON forcing_fu_mean              =   9.2479250829012E-03
(PID.TID 0000.0001) %MON forcing_fu_sd                =   9.7320983433663E-02
(PID.TID 0000.0001) %MON forcing_fu_del2              =   1.3294910805565E-04
(PID.TID 0000.0001) %MON forcing_fv_max               =   9.8458629846573E-01
(PID.TID 0000.0001) %MON forcing_fv_min               =  -7.9953456209338E-01
(PID.TID 0000.0001) %MON forcing_fv_mean              =  -1.0957499607631E-02
(PID.TID 0000.0001) %MON forcing_fv_sd                =   9.9321570168110E-02
(PID.TID 0000.0001) %MON forcing_fv_del2              =   1.1385364745740E-04
(PID.TID 0000.0001) %MON trAdv_CFL_u_max              =   2.5377720034889E-02
(PID.TID 0000.0001) %MON trAdv_CFL_v_max              =   2.5950882512020E-02
(PID.TID 0000.0001) %MON trAdv_CFL_w_max              =   1.4267300824276E-01
(PID.TID 0000.0001) %MON advcfl_uvel_max              =   2.5093880239896E-02
(PID.TID 0000.0001) %MON advcfl_vvel_max              =   2.5950270261626E-02
(PID.TID 0000.0001) %MON advcfl_wvel_max              =   1.4815492793783E-01
(PID.TID 0000.0001) %MON advcfl_W_hf_max              =   1.5489751319656E-01
(PID.TID 0000.0001) %MON pe_b_mean                    =   6.2479233884819E-04
(PID.TID 0000.0001) %MON ke_max                       =   1.3454450714772E+00
(PID.TID 0000.0001) %MON ke_mean                      =   1.2003008942351E-03
(PID.TID 0000.0001) %MON ke_vol                       =   1.3350064351420E+18
(PID.TID 0000.0001) %MON vort_r_min                   =  -5.0476319348364E-05
(PID.TID 0000.0001) %MON vort_r_max                   =   4.8875657668587E-05
(PID.TID 0000.0001) %MON vort_a_mean                  =  -1.9725213241026E-05
(PID.TID 0000.0001) %MON vort_a_sd                    =   7.4541498578099E-05
(PID.TID 0000.0001) %MON vort_p_mean                  =  -2.1669263470803E-05
(PID.TID 0000.0001) %MON vort_p_sd                    =   9.3623263430058E-05
(PID.TID 0000.0001) %MON surfExpan_theta_mean         =  -8.6237563137690E-06
(PID.TID 0000.0001) %MON surfExpan_salt_mean          =  -1.0574864776739E-07
(PID.TID 0000.0001) // =======================================================
(PID.TID 0000.0001) // End MONITOR dynamic field statistics
(PID.TID 0000.0001) // =======================================================
(PID.TID 0000.0001) %CHECKPOINT        96 ckptA
 cg2d: Sum(rhs),rhsMax =   2.44151115463887E+01  3.04397479494810E+00
(PID.TID 0000.0001) %CHECKPOINT        97 ckptB
