g5_modules: Setting BASEDIR for heracles
/bin/rm: No match.
[1] 32712
[2] 32713
[1]    Done                          if ( -e /home/heracles/geos5/TEST/agcm_import_rst ) /bin/cp /home/heracles/geos5/TEST/agcm_import_rst .
[3] 32714
[4] 32715
[2]    Done                          if ( -e /home/heracles/geos5/TEST/agcm_internal_rst ) /bin/cp /home/heracles/geos5/TEST/agcm_internal_rst .
[5] 32717
[6] 32719
[7] 32721
[8] 32723
[9] 32724
[1] 32725
[9]    Done                          if ( -e /home/heracles/geos5/TEST/moist_import_rst ) /bin/cp /home/heracles/geos5/TEST/moist_import_rst .
[9] 32726
[2] 32727
[4]    Done                          if ( -e /home/heracles/geos5/TEST/lake_internal_rst ) /bin/cp /home/heracles/geos5/TEST/lake_internal_rst .
[4] 32728
[9]    Done                          if ( -e /home/heracles/geos5/TEST/solar_internal_rst ) /bin/cp /home/heracles/geos5/TEST/solar_internal_rst .
[9] 32729
[10] 32730
[11] 32731
[9]    Done                          if ( -e /home/heracles/geos5/TEST/turb_import_rst ) /bin/cp /home/heracles/geos5/TEST/turb_import_rst .
[9] 32732
[11]   Done                          if ( -e /home/heracles/geos5/TEST/h2o_internal_rst ) /bin/cp /home/heracles/geos5/TEST/h2o_internal_rst .
[5]    Done                          if ( -e /home/heracles/geos5/TEST/landice_internal_rst ) /bin/cp /home/heracles/geos5/TEST/landice_internal_rst .
[5] 32733
[7]    Done                          if ( -e /home/heracles/geos5/TEST/catchcn_internal_rst ) /bin/cp /home/heracles/geos5/TEST/catchcn_internal_rst .
[7] 32734
[11] 32735
[5]    Done                          if ( -e /home/heracles/geos5/TEST/gocartdata_internal_rst ) /bin/cp /home/heracles/geos5/TEST/gocartdata_internal_rst .
[5] 32736
[12] 32737
[11]   Done                          if ( -e /home/heracles/geos5/TEST/stratchem_internal_rst ) /bin/cp /home/heracles/geos5/TEST/stratchem_internal_rst .
[11] 32738
[13] 32739
[12]   Done                          if ( -e /home/heracles/geos5/TEST/gmichem_internal_rst ) /bin/cp /home/heracles/geos5/TEST/gmichem_internal_rst .
[12] 32740
[14] 32741
[13]   Done                          if ( -e /home/heracles/geos5/TEST/mam_internal_rst ) /bin/cp /home/heracles/geos5/TEST/mam_internal_rst .
[13] 32742
[3]    Done                          if ( -e /home/heracles/geos5/TEST/fvcore_internal_rst ) /bin/cp /home/heracles/geos5/TEST/fvcore_internal_rst .
[3] 32744
[14]   Done                          if ( -e /home/heracles/geos5/TEST/tr_internal_rst ) /bin/cp /home/heracles/geos5/TEST/tr_internal_rst .
[2]    Done                          if ( -e /home/heracles/geos5/TEST/irrad_internal_rst ) /bin/cp /home/heracles/geos5/TEST/irrad_internal_rst .
[2] 32745
[4]    Done                          if ( -e /home/heracles/geos5/TEST/turb_internal_rst ) /bin/cp /home/heracles/geos5/TEST/turb_internal_rst .
[1]    Done                          if ( -e /home/heracles/geos5/TEST/surf_import_rst ) /bin/cp /home/heracles/geos5/TEST/surf_import_rst .
[1] 32747
[4] 32748
[2]    Done                          if ( -e /home/heracles/geos5/TEST/saltwater_import_rst ) /bin/cp /home/heracles/geos5/TEST/saltwater_import_rst .
[2] 32749
[14] 32750
[4]    Done                          if ( -e /home/heracles/geos5/TEST/seaice_internal_rst ) /bin/cp /home/heracles/geos5/TEST/seaice_internal_rst .
[14] + Done                          if ( -e /home/heracles/geos5/TEST/vegdyn.data ) /bin/cp /home/heracles/geos5/TEST/vegdyn.data .
[2]  - Done                          if ( -e /home/heracles/geos5/TEST/orad_import_rst ) /bin/cp /home/heracles/geos5/TEST/orad_import_rst .
[1]  + Done                          if ( -e /home/heracles/geos5/TEST/seaice_import_rst ) /bin/cp /home/heracles/geos5/TEST/seaice_import_rst .
[3]  + Done                          if ( -e /home/heracles/geos5/TEST/saltwater_internal_rst ) /bin/cp /home/heracles/geos5/TEST/saltwater_internal_rst .
[13] + Done                          if ( -e /home/heracles/geos5/TEST/tr_import_rst ) /bin/cp /home/heracles/geos5/TEST/tr_import_rst .
[12] + Done                          if ( -e /home/heracles/geos5/TEST/geosachem_internal_rst ) /bin/cp /home/heracles/geos5/TEST/geosachem_internal_rst .
[11] + Done                          if ( -e /home/heracles/geos5/TEST/gmichem_import_rst ) /bin/cp /home/heracles/geos5/TEST/gmichem_import_rst .
[5]  + Done                          if ( -e /home/heracles/geos5/TEST/stratchem_import_rst ) /bin/cp /home/heracles/geos5/TEST/stratchem_import_rst .
[7]  + Done                          if ( -e /home/heracles/geos5/TEST/carma_internal_rst ) /bin/cp /home/heracles/geos5/TEST/carma_internal_rst .
[9]  + Done                          if ( -e /home/heracles/geos5/TEST/gocart_internal_rst ) /bin/cp /home/heracles/geos5/TEST/gocart_internal_rst .
[10] + Done                          if ( -e /home/heracles/geos5/TEST/pchem_internal_rst ) /bin/cp /home/heracles/geos5/TEST/pchem_internal_rst .
[8]  + Done                          if ( -e /home/heracles/geos5/TEST/moist_internal_rst ) /bin/cp /home/heracles/geos5/TEST/moist_internal_rst .
[6]  + Done                          if ( -e /home/heracles/geos5/TEST/catch_internal_rst ) /bin/cp /home/heracles/geos5/TEST/catch_internal_rst .
/bin/cp: No match.
/bin/ls: No match.
/bin/ln: No match.

 In MAPL_Shmem:
     NumCores per Node =            6
     NumNodes in use   =            1
     Total PEs         =            6


 In MAPL_InitializeShmem (NodeRootsComm):
     NumNodes in use   =            1

   Integer*4 Resource Parameter HEARTBEAT_DT:         900
 NOT using buffer I/O for file: cap_restart
Read CAP restart properly, Current Date =   2000/04/14
                           Current Time =   21:00:00

   Character Resource Parameter ROOT_CF: AGCM.rc
   Character Resource Parameter ROOT_NAME: GCS
   Character Resource Parameter HIST_CF: HISTORY.rc
   Character Resource Parameter MAPL_ENABLE_TIMERS: YES
   Integer*4 Resource Parameter USE_CICE_Thermo:           0
   Integer*4 Resource Parameter NX:           1
   Integer*4 Resource Parameter NY:           6
   Integer*4 Resource Parameter USE_OCEANOBIOGEOCHEM:           0
   Integer*4 Resource Parameter USE_DATAATM:           0
   Integer*4 Resource Parameter ANALYZE_TS:           0
   Character Resource Parameter REPLAY_MODE: NoReplay
   Character Resource Parameter DYCORE: FV3
   Character Resource Parameter LAYOUT: fvcore_layout.rc
   Integer*4 Resource Parameter AGCM_IM:          12
   Integer*4 Resource Parameter AGCM_LM:          72
   Integer*4 Resource Parameter RUN_DT:         900
   Integer*4 Resource Parameter AdvCore_Advection:           0
Number of Sponge Layers :   9
NOTE from PE    0: MPP_DOMAINS_SET_STACK_SIZE: stack size set to  8388606.
&MPP_IO_NML
 HEADER_BUFFER_VAL=      16384,
 GLOBAL_FIELD_ON_ROOT_PE=T,
 IO_CLOCKS_ON=F,
 SHUFFLE=          0,
 DEFLATE_LEVEL=         -1,
 /
NOTE from PE    0: MPP_IO_SET_STACK_SIZE: stack size set to     131072.
 ERROR: cannot read OMP_NUM_THREADS, defaults to 1
 Starting PEs :            6
 Starting Threads :            1
 For k_split (remapping)=           2
n_split is set to 01 for resolution-dt=0013x0013x6-  900.000
Using grid_type :    0
Using n_sponge :    9
Using non_ortho :       T
 Cubic: cubed-sphere domain decomposition
whalo =    3, ehalo =    3, shalo =    3, nhalo =    3
  X-AXIS =   12
  Y-AXIS =   12
 Cubic: cubed-sphere domain decomposition
whalo =    3, ehalo =    3, shalo =    3, nhalo =    3
  X-AXIS =   12
  Y-AXIS =   12
 Cubic: cubed-sphere domain decomposition
whalo =    3, ehalo =    3, shalo =    3, nhalo =    3
  X-AXIS =   12
  Y-AXIS =   12
 Cubic: cubed-sphere domain decomposition
whalo =    3, ehalo =    3, shalo =    3, nhalo =    3
  X-AXIS =   12
  Y-AXIS =   12
 Cubic: cubed-sphere domain decomposition
whalo =    3, ehalo =    3, shalo =    3, nhalo =    3
  X-AXIS =   12
  Y-AXIS =   12
 create_grid: Looking for cubed-grid mosaic: Inline
 create_grid: Creating Global cubed-grid 
 Cubic: cubed-sphere domain decomposition
whalo =    3, ehalo =    3, shalo =    3, nhalo =    3
  X-AXIS =   12
  Y-AXIS =   12
 
  Cubed-Sphere Grid Stats :           13 x          13 x           6
      Grid Length               : min: 653536.87 max: 921025.92 avg: 773905.63 min/max:      0.71
      Deviation from Orthogonal : min:      0.00 max:     26.14 avg:      8.16
      Aspect Ratio              : min:      1.00 max:      1.10 avg:      1.04
 
MAX    AREA (m*m): 0.84245616347594E+12          MIN AREA (m*m): 0.39888855833355E+12
GLOBAL AREA (m*m): 0.51006447190980E+15 IDEAL GLOBAL AREA (m*m): 0.51006447190979E+15
 Grid_init          72           1   100.00000000000000     
 Hybrid Sigma-P: minimum allowable surface pressure (hpa)=   7.9444444444445059     
 da_max/da_min=   2.1120088452662027     
 da_max_c/da_min_c=   2.1990458895898772     
  
 Divergence damping Coefficients * 1.E6:
 For small dt=   450.00000000000000     
 External mode del-2 (m**2/s)=   17.116654918040169     
 Internal mode del-2 SMAG dimensionless coeff=  0.20000000000000001     
 Internal mode del-2 background diff=   7.4999999999999997E-003
 Vorticity del-4 (m**4/s)=   0.0000000000000000     
  
 Dynamics PE Layout 
NPES_X  :   1
NPES_Y  :   1
Resolution of dynamics restart     =   13   13   72
Number of true pressure levels =    1
   Integer*4 Resource Parameter LSM_CHOICE:           1
   Integer*4 Resource Parameter RUN_ROUTE:           0
 GOCART.data::SetServices: ACTIVE
  
  
 CHEMISTRY::SetServices: RATs Provider List
   OX: PCHEM
   O3: PCHEM
   O3PPMV: PCHEM
   CH4: PCHEM
   N2O: PCHEM
   CFC11: PCHEM
   CFC12: PCHEM
   HCFC22: PCHEM
  
 CHEMISTRY::SetServices:
  AERO Provider is GOCART.data
  
   Integer*4 Resource Parameter USE_SATSIM:           0
   Integer*4 Resource Parameter USE_SATSIM_ISCCP:           0
   Integer*4 Resource Parameter USE_SATSIM_MODIS:           0
   Integer*4 Resource Parameter USE_SATSIM_RADAR:           0
   Integer*4 Resource Parameter USE_SATSIM_LIDAR:           0
   Integer*4 Resource Parameter USE_SATSIM_MISR:           0
      Real*4 Resource Parameter SYNCTQ:    1.00000    
 ORBIT::SetServices: ACTIVE
   Integer*4 Resource Parameter USE_GUEST_OCEAN:           1
 MAPL: adding import TAUX
 MAPL: adding export TAUX
 MAPL: adding import TAUY
 MAPL: adding export TAUY
 MAPL: adding import PS
 MAPL: adding export PS
 MAPL: adding import SWHEAT
 MAPL: adding export SWHEAT
 MAPL: adding import QFLX
 MAPL: adding export QFLX
 MAPL: adding import HFLX
 MAPL: adding export HFLX
 MAPL: adding import SFLX
 MAPL: adding export SFLX
 MAPL: adding import PENUVR
 MAPL: adding export PENUVR
 MAPL: adding import PENPAR
 MAPL: adding export PENPAR
 MAPL: adding import PENUVF
 MAPL: adding export PENUVF
 MAPL: adding import PENPAF
 MAPL: adding export PENPAF
 MAPL: adding import DISCHARGE
 MAPL: adding export DISCHARGE
 MAPL: adding import PICE
 MAPL: adding export PICE
 MAPL: adding export US
 MAPL: adding export VS
 MAPL: adding export TS
 MAPL: adding export SS
 MAPL: adding export MIT_3D_MASK
 MAPL: adding export DH
 MAPL: adding export SLV
 MAPL: adding export USB
 MAPL: adding export VSB
 MAPL: adding export SSH
 MAPL: adding export T
 MAPL: adding export S
 MAPL: adding export DISCHARGEe
 MAPL: adding export PBO
      Real*4 Resource Parameter DT:    900.000    
   Integer*4 Resource Parameter REFERENCE_DATE:    20000414
   Integer*4 Resource Parameter REFERENCE_TIME:           0
   Character Resource Parameter AGCM_GRIDNAME: PE12x72-CF
   Integer*4 Resource Parameter OGCM_NX:           6
   Integer*4 Resource Parameter OGCM_NY:           1
   Character Resource Parameter OGCM_GRIDNAME: CM192x32-CM
   Integer*4 Resource Parameter OGCM_LM:          15
   Character Resource Parameter OGCM_GRIDSPEC: mit-cube_192x32.ascii
 NOT using buffer I/O for file: mit-cube_192x32.ascii
   Character Resource Parameter TILING_FILE: tile.bin
 NOT using buffer I/O for file: tile.bin
 NOT using buffer I/O for file: tile.bin
   Integer*4 Resource Parameter NUM_READERS:           1
   Integer*4 Resource Parameter NUM_WRITERS:           1
   Character Resource Parameter DYN_INTERNAL_RESTART_FILE: fvcore_internal_rst
   Character Resource Parameter DYN_INTERNAL_RESTART_TYPE: pnc4
   Integer*4 Resource Parameter DYN_INTERNAL_HEADER:           1
   Character Resource Parameter MAPL_ENABLE_BOOTSTRAP: YES
   Character Resource Parameter ROMIO_CB_READ: automatic
   Character Resource Parameter ROMIO_CB_WRITE: enable
   Character Resource Parameter CB_BUFFER_SIZE: 16777216
 Using parallel NetCDF for file: fvcore_internal_rst
   Integer*4 Resource Parameter COLDSTART:           0
  
Dynamics time step :   900.0000
  
  
INITIALIZED ALARM: DYN_TIME_TO_RUN EVERY     900.0 secs.
  
 FV3 being run Hydrostatic
  

  * denotes a layer within the "sponge-layer" of the dynamics
   k       A(k)       B(k)       Pref        DelP
 ----   ----------  --------  ----------  ---------
*    1    0.010000    0.0000      0.0100
*    2    0.020000    0.0000      0.0200     0.0100
*    3    0.032700    0.0000      0.0327     0.0127
*    4    0.047585    0.0000      0.0476     0.0149
*    5    0.066000    0.0000      0.0660     0.0184
*    6    0.089345    0.0000      0.0893     0.0233
*    7    0.119703    0.0000      0.1197     0.0304
*    8    0.159495    0.0000      0.1595     0.0398
*    9    0.211349    0.0000      0.2113     0.0519
*   10    0.278526    0.0000      0.2785     0.0672
    11    0.365041    0.0000      0.3650     0.0865
    12    0.475806    0.0000      0.4758     0.1108
    13    0.616779    0.0000      0.6168     0.1410
    14    0.795134    0.0000      0.7951     0.1784
    15    1.019440    0.0000      1.0194     0.2243
    16    1.300510    0.0000      1.3005     0.2811
    17    1.650790    0.0000      1.6508     0.3503
    18    2.084970    0.0000      2.0850     0.4342
    19    2.620211    0.0000      2.6202     0.5352
    20    3.276431    0.0000      3.2764     0.6562
    21    4.076571    0.0000      4.0766     0.8001
    22    5.046801    0.0000      5.0468     0.9702
    23    6.216801    0.0000      6.2168     1.1700
    24    7.619842    0.0000      7.6198     1.4030
    25    9.292942    0.0000      9.2929     1.6731
    26   11.276902    0.0000     11.2769     1.9840
    27   13.643402    0.0000     13.6434     2.3665
    28   16.457103    0.0000     16.4571     2.8137
    29   19.791604    0.0000     19.7916     3.3345
    30   23.730405    0.0000     23.7304     3.9388
    31   28.367805    0.0000     28.3678     4.6374
    32   33.810007    0.0000     33.8100     5.4422
    33   40.175409    0.0000     40.1754     6.3654
    34   47.643910    0.0000     47.6439     7.4685
    35   56.387909    0.0000     56.3879     8.7440
    36   66.603412    0.0000     66.6034    10.2155
    37   78.512313    0.0000     78.5123    11.9089
    38   92.365721    0.0000     92.3657    13.8534
    39  108.663015    0.0000    108.6630    16.2973
    40  127.837028    0.0000    127.8370    19.1740
    41  150.393024    0.0000    150.3930    22.5560
    42  176.930035    0.0000    176.9300    26.5370
    43  201.192007    0.0070    208.1520    31.2220
    44  216.865015    0.0280    244.8751    36.7230
    45  224.363003    0.0637    288.0831    43.2080
    46  223.898003    0.1136    337.5001    49.4170
    47  218.775972    0.1562    375.0001    37.5000
    48  212.149976    0.2004    412.5001    37.5000
    49  203.258980    0.2467    450.0001    37.5000
    50  193.096949    0.2944    487.5001    37.5000
    51  181.618961    0.3434    525.0001    37.5000
    52  169.608961    0.3929    562.5001    37.5000
    53  156.259957    0.4437    600.0001    37.5000
    54  142.909948    0.4946    637.5001    37.5000
    55  128.695935    0.5463    675.0001    37.5000
    56  118.958620    0.5810    700.0001    25.0000
    57  109.181707    0.6158    725.0001    25.0000
    58   99.365213    0.6506    750.0002    25.0000
    59   89.099920    0.6859    774.9998    24.9997
    60   78.834217    0.7212    800.0002    25.0003
    61   70.621981    0.7494    820.0002    20.0000
    62   64.362635    0.7706    835.0001    15.0000
    63   58.053212    0.7919    850.0002    15.0000
    64   51.696107    0.8133    865.0001    14.9999
    65   45.339008    0.8347    880.0000    14.9999
    66   38.982008    0.8560    895.0000    15.0001
    67   32.570807    0.8774    909.9998    14.9998
    68   26.092006    0.8989    925.0000    15.0002
    69   19.613105    0.9204    940.0001    15.0001
    70   13.134803    0.9419    954.9998    14.9997
    71    6.593752    0.9634    969.9998    14.9999
    72    0.048048    0.9850    985.0000    15.0002
    73    0.000000    1.0000   1000.0000    15.0000

   Character Resource Parameter MOIST_IMPORT_RESTART_FILE: moist_import_rst
   Character Resource Parameter MOIST_IMPORT_RESTART_TYPE: pnc4
 Bootstrapping moist_import_rst
   Character Resource Parameter MOIST_INTERNAL_RESTART_FILE: moist_internal_rst
   Character Resource Parameter MOIST_INTERNAL_RESTART_TYPE: pnc4
   Integer*4 Resource Parameter INTERNAL_HEADER:           0
 Using parallel NetCDF for file: moist_internal_rst
   Character Resource Parameter CLDMICRO: 1MOMENT
   Character Resource Parameter SALTWATER_IMPORT_RESTART_FILE: saltwater_import_rst
   Character Resource Parameter SALTWATER_IMPORT_RESTART_TYPE: pnc4
 Bootstrapping saltwater_import_rst
   Character Resource Parameter SALTWATER_INTERNAL_RESTART_FILE: saltwater_internal_rst
   Character Resource Parameter SALTWATER_INTERNAL_RESTART_TYPE: pnc4
 Using parallel NetCDF for file: saltwater_internal_rst
   Character Resource Parameter LAKE_INTERNAL_RESTART_FILE: lake_internal_rst
   Character Resource Parameter LAKE_INTERNAL_RESTART_TYPE: pnc4
 Using parallel NetCDF for file: lake_internal_rst
   Character Resource Parameter LANDICE_INTERNAL_RESTART_FILE: landice_internal_rst
   Character Resource Parameter LANDICE_INTERNAL_RESTART_TYPE: pnc4
 Using parallel NetCDF for file: landice_internal_rst
   Character Resource Parameter VEGDYN_INTERNAL_RESTART_FILE: vegdyn.data
   Character Resource Parameter VEGDYN_INTERNAL_RESTART_TYPE: binary
 NOT using buffer I/O for file: vegdyn.data
   Character Resource Parameter CATCH_INTERNAL_RESTART_FILE: catch_internal_rst
   Character Resource Parameter CATCH_INTERNAL_RESTART_TYPE: pnc4
 Using parallel NetCDF for file: catch_internal_rst
   Character Resource Parameter SURFACE_IMPORT_RESTART_FILE: surf_import_rst
   Character Resource Parameter SURFACE_IMPORT_RESTART_TYPE: pnc4
 Bootstrapping surf_import_rst
   Character Resource Parameter ROUTING_FILE: 
   Character Resource Parameter TURBULENCE_IMPORT_RESTART_FILE: turb_import_rst
   Character Resource Parameter TURBULENCE_IMPORT_RESTART_TYPE: pnc4
 Bootstrapping turb_import_rst
   Character Resource Parameter TURBULENCE_INTERNAL_RESTART_FILE: turb_internal_rst
   Character Resource Parameter TURBULENCE_INTERNAL_RESTART_TYPE: pnc4
 Bootstrapping turb_internal_rst
   Character Resource Parameter PCHEM_INTERNAL_RESTART_FILE: pchem_internal_rst
   Character Resource Parameter PCHEM_INTERNAL_RESTART_TYPE: pnc4
 Using parallel NetCDF for file: pchem_internal_rst
   Character Resource Parameter RATS_PROVIDER: PCHEM
   Character Resource Parameter pchem_clim: species.data
   Integer*4 Resource Parameter pchem_clim_years:           2
 GOCART.data::Initialize_: Starting...
  
   Character Resource Parameter GOCART.data_INTERNAL_RESTART_FILE: gocartdata_internal_rst
   Character Resource Parameter GOCART.data_INTERNAL_RESTART_TYPE: pnc4
 Bootstrapping gocartdata_internal_rst
 GOCART.data::Initialize_: Diurnal Biomass Burning is ON
      Real*4 Resource Parameter SOLAR_DT:    3600.00    
   Character Resource Parameter SOLAR_INTERNAL_RESTART_FILE: solar_internal_rst
   Character Resource Parameter SOLAR_INTERNAL_RESTART_TYPE: pnc4
 Bootstrapping solar_internal_rst
      Real*4 Resource Parameter IRRAD_DT:    3600.00    
   Character Resource Parameter IRRAD_INTERNAL_RESTART_FILE: irrad_internal_rst
   Character Resource Parameter IRRAD_INTERNAL_RESTART_TYPE: pnc4
 Bootstrapping irrad_internal_rst
 NOT using buffer I/O for file: topo_dynave.data
 NOT using buffer I/O for file: topo_dynave.data
      Real*4 Resource Parameter GWDVAR_FACTOR:    1.00000    
 NOT using buffer I/O for file: topo_gwdvar.data
      Real*4 Resource Parameter TRBVAR_FACTOR:    1.00000    
 NOT using buffer I/O for file: topo_trbvar.data
      Real*4 Resource Parameter RUN_DT:    900.000    
      Real*4 Resource Parameter PREDICTOR_OFFSET:    21600.0    
   Character Resource Parameter FILTER_TYPE: NULL
   Character Resource Parameter ORAD_IMPORT_RESTART_FILE: orad_import_rst
   Character Resource Parameter ORAD_IMPORT_RESTART_TYPE: pnc4
 Bootstrapping orad_import_rst
      Real*4 Resource Parameter MIT_DT:    900.000    
   Character Resource Parameter OCEAN_DIR: mitocean_run
 Calling DRIVER_INIT
(PID.TID 0000.0001) 
(PID.TID 0000.0001) // ======================================================
(PID.TID 0000.0001) //                      MITgcm UV
(PID.TID 0000.0001) //                      =========
(PID.TID 0000.0001) // ======================================================
(PID.TID 0000.0001) // execution environment starting up...
(PID.TID 0000.0001) 
(PID.TID 0000.0001) // MITgcmUV version:  checkpoint66a
(PID.TID 0000.0001) // Build user:        trayanov
(PID.TID 0000.0001) // Build host:        boygo.gsfc.nasa.gov
(PID.TID 0000.0001) // Build date:        Wed Nov  9 16:18:20 EST 2016
(PID.TID 0000.0001) 
(PID.TID 0000.0001) // =======================================================
(PID.TID 0000.0001) // Execution Environment parameter file "eedata"
(PID.TID 0000.0001) // =======================================================
(PID.TID 0000.0001) ># Example "eedata" file
(PID.TID 0000.0001) ># Lines beginning "#" are comments
(PID.TID 0000.0001) ># nTx - No. threads per process in X
(PID.TID 0000.0001) ># nTy - No. threads per process in Y
(PID.TID 0000.0001) > &EEPARMS
(PID.TID 0000.0001) > useCubedSphereExchange=.TRUE.,
(PID.TID 0000.0001) > nTx=1,
(PID.TID 0000.0001) > nTy=1,
(PID.TID 0000.0001) > &end
(PID.TID 0000.0001) ># Note: Some systems use & as the
(PID.TID 0000.0001) ># namelist terminator. Other systems
(PID.TID 0000.0001) ># use a / character (as shown here).
(PID.TID 0000.0001) 
(PID.TID 0000.0001) // =======================================================
(PID.TID 0000.0001) // Computational Grid Specification ( see files "SIZE.h" )
(PID.TID 0000.0001) //                                  ( and "eedata"       )
(PID.TID 0000.0001) // =======================================================
(PID.TID 0000.0001)      nPx =    6 ; /* No. processes in X */
(PID.TID 0000.0001)      nPy =    1 ; /* No. processes in Y */
(PID.TID 0000.0001)      nSx =    1 ; /* No. tiles in X per process */
(PID.TID 0000.0001)      nSy =    1 ; /* No. tiles in Y per process */
(PID.TID 0000.0001)      sNx =   32 ; /* Tile size in X */
(PID.TID 0000.0001)      sNy =   32 ; /* Tile size in Y */
(PID.TID 0000.0001)      OLx =    4 ; /* Tile overlap distance in X */
(PID.TID 0000.0001)      OLy =    4 ; /* Tile overlap distance in Y */
(PID.TID 0000.0001)      nTx =    1 ; /* No. threads in X per process */
(PID.TID 0000.0001)      nTy =    1 ; /* No. threads in Y per process */
(PID.TID 0000.0001)       Nr =   15 ; /* No. levels in the vertical   */
(PID.TID 0000.0001)       Nx =  192 ; /* Total domain size in X ( = nPx*nSx*sNx ) */
(PID.TID 0000.0001)       Ny =   32 ; /* Total domain size in Y ( = nPy*nSy*sNy ) */
(PID.TID 0000.0001)   nTiles =    1 ; /* Total no. tiles per process ( = nSx*nSy ) */
(PID.TID 0000.0001)   nProcs =    6 ; /* Total no. processes ( = nPx*nPy ) */
(PID.TID 0000.0001) nThreads =    1 ; /* Total no. threads per process ( = nTx*nTy ) */
(PID.TID 0000.0001) usingMPI =    T ; /* Flag used to control whether MPI is in use */
(PID.TID 0000.0001)                   /*  note: To execute a program with MPI calls */
(PID.TID 0000.0001)                   /*  it must be launched appropriately e.g     */
(PID.TID 0000.0001)                   /*  "mpirun -np 64 ......"                    */
(PID.TID 0000.0001) useCoupler=    F ;/* Flag used to control communications with   */
(PID.TID 0000.0001)                   /*  other model components, through a coupler */
(PID.TID 0000.0001) debugMode =    F ; /* print debug msg. (sequence of S/R calls)  */
(PID.TID 0000.0001) printMapIncludesZeros=    F ; /* print zeros in Std.Output maps */
(PID.TID 0000.0001) maxLengthPrt1D=   65 /* maxLength of 1D array printed to StdOut */
(PID.TID 0000.0001) 
(PID.TID 0000.0001) ======= Starting MPI parallel Run =========
(PID.TID 0000.0001)  My Processor Name (len:  8 ) = heracles
(PID.TID 0000.0001)  Located at (  0,  0) on processor grid (0:  5,0:  0)
(PID.TID 0000.0001)  Origin at  (     1,     1) on global grid (1:   192,1:    32)
(PID.TID 0000.0001)  North neighbor = processor 0000
(PID.TID 0000.0001)  South neighbor = processor 0000
(PID.TID 0000.0001)   East neighbor = processor 0001
(PID.TID 0000.0001)   West neighbor = processor 0005
(PID.TID 0000.0001) // ======================================================
(PID.TID 0000.0001) // Mapping of tiles to threads
(PID.TID 0000.0001) // ======================================================
(PID.TID 0000.0001) // -o- Thread   1, tiles (   1:   1,   1:   1)
(PID.TID 0000.0001) 
(PID.TID 0000.0001) W2_READPARMS: file data.exch2 not found
(PID.TID 0000.0001) => use W2_EXCH2 default: regular 6-facets Cube
(PID.TID 0000.0001) W2_useE2ioLayOut=    T ;/* T: use Exch2 glob IO map; F: use model default */
(PID.TID 0000.0001) W2_mapIO        =  -1 ; /* select option for Exch2 global-IO map */
(PID.TID 0000.0001) W2_printMsg     =  -1 ; /* select option for printing information */
(PID.TID 0000.0001) ===== Start setting W2 TOPOLOGY:
(PID.TID 0000.0001)  write to log-file: w2_tile_topology.0000.log
(PID.TID 0000.0001) =====       setting W2 TOPOLOGY: Done
(PID.TID 0000.0001) 
(PID.TID 0000.0001)  INI_PARMS: opening model parameter file "data"
(PID.TID 0000.0001)  OPEN_COPY_DATA_FILE: opening file data
(PID.TID 0000.0001) // =======================================================
(PID.TID 0000.0001) // Parameter file "data"
(PID.TID 0000.0001) // =======================================================
(PID.TID 0000.0001) ># ====================
(PID.TID 0000.0001) ># | Model parameters |
(PID.TID 0000.0001) ># ====================
(PID.TID 0000.0001) >#
(PID.TID 0000.0001) ># Continuous equation parameters
(PID.TID 0000.0001) > &PARM01
(PID.TID 0000.0001) > tRef=15*20.,
(PID.TID 0000.0001) > sRef=15*35.,
(PID.TID 0000.0001) > viscAh =3.E5,
(PID.TID 0000.0001) >#- biharmonic Viscosity: 3.e15 is close to the stability limit with deltaTmom=20mn
(PID.TID 0000.0001) >#viscA4 =3.E15,
(PID.TID 0000.0001) > viscAr =1.E-3,
(PID.TID 0000.0001) > diffKhT=0.,
(PID.TID 0000.0001) > diffK4T=0.,
(PID.TID 0000.0001) > diffKrT=3.E-5,
(PID.TID 0000.0001) > diffKhS=0.,
(PID.TID 0000.0001) > diffK4S=0.,
(PID.TID 0000.0001) > diffKrS=3.E-5,
(PID.TID 0000.0001) > ivdc_kappa=10.,
(PID.TID 0000.0001) > implicitDiffusion=.TRUE.,
(PID.TID 0000.0001) > rotationPeriod=86400.,
(PID.TID 0000.0001) > gravity=9.81,
(PID.TID 0000.0001) > rhonil=1035.,
(PID.TID 0000.0001) > rhoConstFresh=1000.,
(PID.TID 0000.0001) > eosType='JMD95Z',
(PID.TID 0000.0001) > staggerTimeStep=.TRUE.,
(PID.TID 0000.0001) > vectorInvariantMomentum=.TRUE.,
(PID.TID 0000.0001) > implicitFreeSurface=.TRUE.,
(PID.TID 0000.0001) > exactConserv=.TRUE.,
(PID.TID 0000.0001) > select_rStar=2,
(PID.TID 0000.0001) > nonlinFreeSurf=4,
(PID.TID 0000.0001) > hFacInf=0.2,
(PID.TID 0000.0001) > hFacSup=2.0,
(PID.TID 0000.0001) > useRealFreshWaterFlux=.TRUE.,
(PID.TID 0000.0001) > allowFreezing=.TRUE.,
(PID.TID 0000.0001) > hFacMin=.1,
(PID.TID 0000.0001) > hFacMinDr=20.,
(PID.TID 0000.0001) > readBinaryPrec=64,
(PID.TID 0000.0001) > useSingleCpuIo=.TRUE.,
(PID.TID 0000.0001) > &end
(PID.TID 0000.0001) >
(PID.TID 0000.0001) ># Elliptic solver parameters
(PID.TID 0000.0001) > &PARM02
(PID.TID 0000.0001) > cg2dMaxIters=200,
(PID.TID 0000.0001) > cg2dTargetResidual=1.E-9,
(PID.TID 0000.0001) > &end
(PID.TID 0000.0001) >
(PID.TID 0000.0001) ># Time stepping parameters
(PID.TID 0000.0001) > &PARM03
(PID.TID 0000.0001) > nIter0=72000,
(PID.TID 0000.0001) > nTimeSteps=20,
(PID.TID 0000.0001) > deltaTmom   =1200.,
(PID.TID 0000.0001) > deltaTtracer=86400.,
(PID.TID 0000.0001) > deltaTfreesurf=86400.,
(PID.TID 0000.0001) > deltaTClock =86400.,
(PID.TID 0000.0001) > abEps = 0.1,
(PID.TID 0000.0001) >#forcing_In_AB=.FALSE.,
(PID.TID 0000.0001) > tracForcingOutAB=1,
(PID.TID 0000.0001) > pChkptFreq  =1728000.,
(PID.TID 0000.0001) >#chkptFreq   =311040000.,
(PID.TID 0000.0001) > taveFreq    =1244160000.,
(PID.TID 0000.0001) > dumpFreq    =622080000.,
(PID.TID 0000.0001) > monitorFreq =31104000.,
(PID.TID 0000.0001) > periodicExternalForcing=.TRUE.,
(PID.TID 0000.0001) > externForcingPeriod=2592000.,
(PID.TID 0000.0001) > externForcingCycle=31104000.,
(PID.TID 0000.0001) ># 2 months restoring timescale for temperature
(PID.TID 0000.0001) > tauThetaClimRelax = 5184000.,
(PID.TID 0000.0001) ># 2yrs restoring timescale for salinity
(PID.TID 0000.0001) > tauSaltClimRelax = 62208000.,
(PID.TID 0000.0001) > monitorFreq =1.,
(PID.TID 0000.0001) > &end
(PID.TID 0000.0001) >
(PID.TID 0000.0001) ># Gridding parameters
(PID.TID 0000.0001) > &PARM04
(PID.TID 0000.0001) > usingCurvilinearGrid=.TRUE.,
(PID.TID 0000.0001) > horizGridFile='grid_cs32',
(PID.TID 0000.0001) > delR= 50., 70., 100., 140., 190.,
(PID.TID 0000.0001) >       240., 290., 340., 390., 440.,
(PID.TID 0000.0001) >       490., 540., 590., 640., 690.,
(PID.TID 0000.0001) > &end
(PID.TID 0000.0001) >
(PID.TID 0000.0001) ># Input datasets
(PID.TID 0000.0001) > &PARM05
(PID.TID 0000.0001) > bathyFile      ='bathy_Hmin50.bin',
(PID.TID 0000.0001) > hydrogThetaFile='lev_T_cs_15k.bin',
(PID.TID 0000.0001) > hydrogSaltFile ='lev_S_cs_15k.bin',
(PID.TID 0000.0001) > zonalWindFile  ='trenberth_taux.bin',
(PID.TID 0000.0001) > meridWindFile  ='trenberth_tauy.bin',
(PID.TID 0000.0001) > thetaClimFile  ='lev_surfT_cs_12m.bin',
(PID.TID 0000.0001) > saltClimFile   ='lev_surfS_cs_12m.bin',
(PID.TID 0000.0001) > surfQFile      ='shiQnet_cs32.bin',
(PID.TID 0000.0001) > EmPmRFile      ='shiEmPR_cs32.bin',
(PID.TID 0000.0001) > &end
(PID.TID 0000.0001) 
(PID.TID 0000.0001)  INI_PARMS ; starts to read PARM01
(PID.TID 0000.0001)  INI_PARMS ; read PARM01 : OK
(PID.TID 0000.0001)  INI_PARMS ; starts to read PARM02
(PID.TID 0000.0001)  INI_PARMS ; read PARM02 : OK
(PID.TID 0000.0001)  INI_PARMS ; starts to read PARM03
(PID.TID 0000.0001)  INI_PARMS ; read PARM03 : OK
(PID.TID 0000.0001)  INI_PARMS ; starts to read PARM04
(PID.TID 0000.0001)  INI_PARMS ; read PARM04 : OK
(PID.TID 0000.0001)  INI_PARMS ; starts to read PARM05
(PID.TID 0000.0001)  INI_PARMS ; read PARM05 : OK
(PID.TID 0000.0001)  INI_PARMS: finished reading file "data"
(PID.TID 0000.0001)  PACKAGES_BOOT: opening data.pkg
(PID.TID 0000.0001)  OPEN_COPY_DATA_FILE: opening file data.pkg
(PID.TID 0000.0001) // =======================================================
(PID.TID 0000.0001) // Parameter file "data.pkg"
(PID.TID 0000.0001) // =======================================================
(PID.TID 0000.0001) ># Packages
(PID.TID 0000.0001) > &PACKAGES
(PID.TID 0000.0001) > useGMRedi=.TRUE.,
(PID.TID 0000.0001) >#useDiagnostics=.TRUE.,
(PID.TID 0000.0001) >#useMNC=.TRUE.,
(PID.TID 0000.0001) >#useBulkforce=.TRUE.,
(PID.TID 0000.0001) >#useThermSeaIce=.TRUE.,
(PID.TID 0000.0001) > &end
(PID.TID 0000.0001) 
(PID.TID 0000.0001)  PACKAGES_BOOT: finished reading data.pkg
(PID.TID 0000.0001)  PACKAGES_BOOT: On/Off package Summary
 --------  pkgs with a standard "usePKG" On/Off switch in "data.pkg":  --------
 pkg/gmredi               compiled   and   used ( useGMRedi                = T )
 pkg/cal                  compiled but not used ( useCAL                   = F )
 pkg/exf                  compiled but not used ( useEXF                   = F )
 pkg/bulk_force           compiled but not used ( useBulkForce             = F )
 pkg/seaice               compiled but not used ( useSEAICE                = F )
 pkg/thsice               compiled but not used ( useThSIce                = F )
 pkg/diagnostics          compiled but not used ( useDiagnostics           = F )
 -------- pkgs without standard "usePKG" On/Off switch in "data.pkg":  --------
 pkg/generic_advdiff      compiled   and   used ( useGAD                   = T )
 pkg/mom_common           compiled   and   used ( momStepping              = T )
 pkg/mom_vecinv           compiled   and   used ( +vectorInvariantMomentum = T )
 pkg/mom_fluxform         compiled but not used ( & not vectorInvariantMom = F )
 pkg/monitor              compiled   and   used ( monitorFreq > 0.         = T )
 pkg/timeave              compiled   and   used ( taveFreq > 0.            = T )
 pkg/debug                compiled but not used ( debugMode                = F )
 pkg/exch2                compiled   and   used
 pkg/rw                   compiled   and   used
 pkg/mdsio                compiled   and   used
(PID.TID 0000.0001)  PACKAGES_BOOT: End of package Summary
(PID.TID 0000.0001) 
(PID.TID 0000.0001)  GM_READPARMS: opening data.gmredi
(PID.TID 0000.0001)  OPEN_COPY_DATA_FILE: opening file data.gmredi
(PID.TID 0000.0001) // =======================================================
(PID.TID 0000.0001) // Parameter file "data.gmredi"
(PID.TID 0000.0001) // =======================================================
(PID.TID 0000.0001) ># GM+Redi package parameters:
(PID.TID 0000.0001) >
(PID.TID 0000.0001) >#-from MOM :
(PID.TID 0000.0001) ># GM_background_K: 	G & Mc.W  diffusion coefficient
(PID.TID 0000.0001) ># GM_maxSlope    :	max slope of isopycnals
(PID.TID 0000.0001) ># GM_Scrit       :	transition for scaling diffusion coefficient
(PID.TID 0000.0001) ># GM_Sd          :	half width scaling for diffusion coefficient
(PID.TID 0000.0001) ># GM_taper_scheme:	slope clipping or one of the tapering schemes
(PID.TID 0000.0001) ># GM_Kmin_horiz  :	horizontal diffusion minimum value
(PID.TID 0000.0001) >
(PID.TID 0000.0001) >#-Option parameters (needs to "define" options in GMREDI_OPTIONS.h")
(PID.TID 0000.0001) ># GM_isopycK     :	isopycnal diffusion coefficient (default=GM_background_K)
(PID.TID 0000.0001) ># GM_AdvForm     :	turn on GM Advective form       (default=Skew flux form)
(PID.TID 0000.0001) >
(PID.TID 0000.0001) > &GM_PARM01
(PID.TID 0000.0001) >  GM_background_K    = 800.,
(PID.TID 0000.0001) >  GM_taper_scheme    = 'gkw91',
(PID.TID 0000.0001) >  GM_maxSlope        = 1.e-2,
(PID.TID 0000.0001) >  GM_Kmin_horiz      = 50.,
(PID.TID 0000.0001) >  GM_Scrit           = 4.e-3,
(PID.TID 0000.0001) >  GM_Sd              = 1.e-3,
(PID.TID 0000.0001) ># GM_Visbeck_alpha   = 0.,
(PID.TID 0000.0001) ># GM_Visbeck_length  = 2.e+5,
(PID.TID 0000.0001) ># GM_Visbeck_depth   = 1.e+3,
(PID.TID 0000.0001) ># GM_Visbeck_maxval_K= 2.5e+3,
(PID.TID 0000.0001) > &end
(PID.TID 0000.0001) >
(PID.TID 0000.0001) >
(PID.TID 0000.0001) 
(PID.TID 0000.0001)  GM_READPARMS: finished reading data.gmredi
(PID.TID 0000.0001) SET_PARMS: done
(PID.TID 0000.0001) Enter INI_VERTICAL_GRID: setInterFDr=    T ; setCenterDr=    F
(PID.TID 0000.0001) tile:   1 ; Read from file grid_cs32.face001.bin
(PID.TID 0000.0001)   => xC yC dxF dyF rA xG yG dxV dyU rAz dxC dyC rAw rAs dxG dyG AngleCS AngleSN
(PID.TID 0000.0001) %MON XC_max                       =   1.7854351589505E+02
(PID.TID 0000.0001) %MON XC_min                       =  -1.7854351589505E+02
(PID.TID 0000.0001) %MON XC_mean                      =  -4.6999441375798E-15
(PID.TID 0000.0001) %MON XC_sd                        =   1.0355545336287E+02
(PID.TID 0000.0001) %MON XG_max                       =   1.8000000000000E+02
(PID.TID 0000.0001) %MON XG_min                       =  -1.7708797161002E+02
(PID.TID 0000.0001) %MON XG_mean                      =   1.8603515625000E+00
(PID.TID 0000.0001) %MON XG_sd                        =   1.0357130300504E+02
(PID.TID 0000.0001) %MON DXC_max                      =   3.2375185836900E+05
(PID.TID 0000.0001) %MON DXC_min                      =   1.1142031410131E+05
(PID.TID 0000.0001) %MON DXC_mean                     =   2.8605689051214E+05
(PID.TID 0000.0001) %MON DXC_sd                       =   3.4042087138252E+04
(PID.TID 0000.0001) %MON DXF_max                      =   3.2369947500827E+05
(PID.TID 0000.0001) %MON DXF_min                      =   1.2020820513318E+05
(PID.TID 0000.0001) %MON DXF_mean                     =   2.8605437324820E+05
(PID.TID 0000.0001) %MON DXF_sd                       =   3.4050524252539E+04
(PID.TID 0000.0001) %MON DXG_max                      =   3.2375195872773E+05
(PID.TID 0000.0001) %MON DXG_min                      =   1.0098378008791E+05
(PID.TID 0000.0001) %MON DXG_mean                     =   2.8603818508931E+05
(PID.TID 0000.0001) %MON DXG_sd                       =   3.4140406908005E+04
(PID.TID 0000.0001) %MON DXV_max                      =   3.2380418162750E+05
(PID.TID 0000.0001) %MON DXV_min                      =   8.0152299824136E+04
(PID.TID 0000.0001) %MON DXV_mean                     =   2.8603970633619E+05
(PID.TID 0000.0001) %MON DXV_sd                       =   3.4145142117723E+04
(PID.TID 0000.0001) %MON YC_max                       =   8.7940663871962E+01
(PID.TID 0000.0001) %MON YC_min                       =  -8.7940663871962E+01
(PID.TID 0000.0001) %MON YC_mean                      =   0.0000000000000E+00
(PID.TID 0000.0001) %MON YC_sd                        =   3.8676242969072E+01
(PID.TID 0000.0001) %MON YG_max                       =   9.0000000000000E+01
(PID.TID 0000.0001) %MON YG_min                       =  -9.0000000000000E+01
(PID.TID 0000.0001) %MON YG_mean                      =  -1.1842378929335E-15
(PID.TID 0000.0001) %MON YG_sd                        =   3.8676895860710E+01
(PID.TID 0000.0001) %MON DYC_max                      =   3.2375185836900E+05
(PID.TID 0000.0001) %MON DYC_min                      =   1.1142031410131E+05
(PID.TID 0000.0001) %MON DYC_mean                     =   2.8605689051214E+05
(PID.TID 0000.0001) %MON DYC_sd                       =   3.4042087138252E+04
(PID.TID 0000.0001) %MON DYF_max                      =   3.2369947500827E+05
(PID.TID 0000.0001) %MON DYF_min                      =   1.2020820513318E+05
(PID.TID 0000.0001) %MON DYF_mean                     =   2.8605437324820E+05
(PID.TID 0000.0001) %MON DYF_sd                       =   3.4050524252539E+04
(PID.TID 0000.0001) %MON DYG_max                      =   3.2375195872773E+05
(PID.TID 0000.0001) %MON DYG_min                      =   1.0098378008791E+05
(PID.TID 0000.0001) %MON DYG_mean                     =   2.8603818508931E+05
(PID.TID 0000.0001) %MON DYG_sd                       =   3.4140406908005E+04
(PID.TID 0000.0001) %MON DYU_max                      =   3.2380418162750E+05
(PID.TID 0000.0001) %MON DYU_min                      =   8.0152299824136E+04
(PID.TID 0000.0001) %MON DYU_mean                     =   2.8603970633619E+05
(PID.TID 0000.0001) %MON DYU_sd                       =   3.4145142117723E+04
(PID.TID 0000.0001) %MON RA_max                       =   1.0479260248419E+11
(PID.TID 0000.0001) %MON RA_min                       =   1.4019007022556E+10
(PID.TID 0000.0001) %MON RA_mean                      =   8.2992246709265E+10
(PID.TID 0000.0001) %MON RA_sd                        =   1.7509089299457E+10
(PID.TID 0000.0001) %MON RAW_max                      =   1.0480965274559E+11
(PID.TID 0000.0001) %MON RAW_min                      =   1.2166903467143E+10
(PID.TID 0000.0001) %MON RAW_mean                     =   8.2992246709235E+10
(PID.TID 0000.0001) %MON RAW_sd                       =   1.7481917919656E+10
(PID.TID 0000.0001) %MON RAS_max                      =   1.0480965274559E+11
(PID.TID 0000.0001) %MON RAS_min                      =   1.2166903467143E+10
(PID.TID 0000.0001) %MON RAS_mean                     =   8.2992246709235E+10
(PID.TID 0000.0001) %MON RAS_sd                       =   1.7481917919656E+10
(PID.TID 0000.0001) %MON RAZ_max                      =   1.0484349334619E+11
(PID.TID 0000.0001) %MON RAZ_min                      =   8.8317900612505E+09
(PID.TID 0000.0001) %MON RAZ_mean                     =   8.2992246709235E+10
(PID.TID 0000.0001) %MON RAZ_sd                       =   1.7482297311044E+10
(PID.TID 0000.0001) %MON AngleCS_max                  =   9.9999994756719E-01
(PID.TID 0000.0001) %MON AngleCS_min                  =  -9.9968286884824E-01
(PID.TID 0000.0001) %MON AngleCS_mean                 =   3.3078922539000E-01
(PID.TID 0000.0001) %MON AngleCS_sd                   =   6.2496278958502E-01
(PID.TID 0000.0001) %MON AngleSN_max                  =   9.9968286884824E-01
(PID.TID 0000.0001) %MON AngleSN_min                  =  -9.9999994756719E-01
(PID.TID 0000.0001) %MON AngleSN_mean                 =  -3.3078922539000E-01
(PID.TID 0000.0001) %MON AngleSN_sd                   =   6.2496278958502E-01
(PID.TID 0000.0001)  MDS_READ_FIELD: opening global file: bathy_Hmin50.bin
(PID.TID 0000.0001) // =======================================================
(PID.TID 0000.0001) // Field Model R_low (ini_masks_etc)
(PID.TID 0000.0001) // CMIN =         -5.200000000000000E+03
(PID.TID 0000.0001) // CMAX =         -5.000000000000000E+01
(PID.TID 0000.0001) // CINT =          1.907407407407407E+02
(PID.TID 0000.0001) // SYMBOLS (CMIN->CMAX): -abcdefghijklmnopqrstuvwxyz+
(PID.TID 0000.0001) //                  0.0: .
(PID.TID 0000.0001) // RANGE I (Lo:Hi:Step):(    -3:    36:     1)
(PID.TID 0000.0001) // RANGE J (Lo:Hi:Step):(    36:    -3:    -1)
(PID.TID 0000.0001) // RANGE K (Lo:Hi:Step):(   1:   1:   1)
(PID.TID 0000.0001) // =======================================================
(PID.TID 0000.0001) K =   1
(PID.TID 0000.0001) //                I=6       I=16      I=26      I=36
(PID.TID 0000.0001) // |--J--|321012345|789012345|789012345|789012345|
(PID.TID 0000.0001) //     36 cbbc-ddcbcdehkhhmn..++..................
(PID.TID 0000.0001) //     35 dcac--cbbeefjkfefw+..........zpu........
(PID.TID 0000.0001) //     34 d--ba-abcehjnldcclz+........spps........
(PID.TID 0000.0001) //     33 --abbbccceiomkfdbbc+.......+s...........
(PID.TID 0000.0001) //     32 --bddefhhkqqlgfaakqz..v.+..+............
(PID.TID 0000.0001) //     31 abbcffijnpnqneaaat..umrr+s.z............
(PID.TID 0000.0001) //     30 --adgillkkkifcadcx.ymmqzqikvnnps........
(PID.TID 0000.0001) //     29 --cfiljigfjd--efdozy...+ximpnnuz........
(PID.TID 0000.0001) //     28 -abgkhfcccea-bdei........t..............
(PID.TID 0000.0001) //     27 -acghfbaaaa-achmy......................+
(PID.TID 0000.0001) //     26 -adhfca-----bfiv.......................+
(PID.TID 0000.0001) //     25 -achfa------ch+..................w......
(PID.TID 0000.0001) //     24 aaeifa--acbcei...................w......
(PID.TID 0000.0001) //     23 abfida-aabchjk...................zz.....
(PID.TID 0000.0001) //     22 -afhfaa---bfgi....................zz..rn
(PID.TID 0000.0001) //     21 babcgca----abe.....................ysstl
(PID.TID 0000.0001) //     20 fbbbcgfcaa-aae+.......................lc
(PID.TID 0000.0001) //     19 zmfeccdghfeegcbt......................aa
(PID.TID 0000.0001) //     18 ..wifedfkhfegbbcivlqfoz..............jaa
(PID.TID 0000.0001) //     17 ..+wfeefikhgcbbccaaacgn.............icaa
(PID.TID 0000.0001) //     16 ....wiheddeccdfhfbabdfl............jdbad
(PID.TID 0000.0001) //     15 ......ylea--acfihebcbbes..........sfcbbn
(PID.TID 0000.0001) //     14 ........c---acgkhdcc--di..........ofddch
(PID.TID 0000.0001) //     13 .......+b----cfkhec---afz.........nhfdff
(PID.TID 0000.0001) //     12 .......ec----chjhec---ag..........skiqdd
(PID.TID 0000.0001) //     11 ......pdca--achlheba--ai..........nkn.fd
(PID.TID 0000.0001) //     10 ......wfdb--achlhea---an.........uos..dc
(PID.TID 0000.0001) //      9 ......vgec---bfikca--cjl+.......+nnv.+cc
(PID.TID 0000.0001) //      8 .....zleca---afjfca--hdfz.......vkky.jce
(PID.TID 0000.0001) //      7 ...+zohec--abcfkhecbchbdx.......qiht.faa
(PID.TID 0000.0001) //      6 ..+yomfddcaabefkifdchaadt......uqdeisc--
(PID.TID 0000.0001) //      5 ..+nhgffkghccfhkhffgdaackz....uoibcimlaa
(PID.TID 0000.0001) //      4 .+ujhgfllfhdffhkfffca-aady...llnabdopfcb
(PID.TID 0000.0001) //      3 +vjggfcceeffffjlkjgaa---bfvheeln-aesphfd
(PID.TID 0000.0001) //      2 qifeecbbccddefilihecbaacbaajfega-aesqhff
(PID.TID 0000.0001) //      1 ebbbbaaaaaccdfhlhfefdcccaabjefbaaafonhgl
(PID.TID 0000.0001) //      0 -aaaaaaa-aacccfikkhecccbbbaaabaadfkllilm
(PID.TID 0000.0001) //     -1 --aaaaa----aacffiljgfffcca--adfikkiikimi
(PID.TID 0000.0001) //     -2 --aaa-------acdefinmlgiieb-chnnnmlmlfklk
(PID.TID 0000.0001) //     -3 a--a---aa---aedeegknmlgiigcdfhpokkimdkmk
(PID.TID 0000.0001) // =======================================================
(PID.TID 0000.0001) // END OF FIELD                                          =
(PID.TID 0000.0001) // =======================================================
(PID.TID 0000.0001) 
(PID.TID 0000.0001) // =======================================================
(PID.TID 0000.0001) // Field Model Ro_surf (ini_masks_etc)
(PID.TID 0000.0001) // CMIN =         -7.105427357601002E-15
(PID.TID 0000.0001) // CMAX =         -7.105427357601002E-15
(PID.TID 0000.0001) // CINT =          0.000000000000000E+00
(PID.TID 0000.0001) // SYMBOLS (CMIN->CMAX): -abcdefghijklmnopqrstuvwxyz+
(PID.TID 0000.0001) //                  0.0: .
(PID.TID 0000.0001) // RANGE I (Lo:Hi:Step):(    -3:    36:     1)
(PID.TID 0000.0001) // RANGE J (Lo:Hi:Step):(    36:    -3:    -1)
(PID.TID 0000.0001) // RANGE K (Lo:Hi:Step):(   1:   1:   1)
(PID.TID 0000.0001) // =======================================================
(PID.TID 0000.0001) // =======================================================
(PID.TID 0000.0001) // END OF FIELD                                          =
(PID.TID 0000.0001) // =======================================================
(PID.TID 0000.0001) 
(PID.TID 0000.0001) // =======================================================
(PID.TID 0000.0001) // Field hFacC at iteration          0
(PID.TID 0000.0001) // CMIN =          1.000000000000000E+00
(PID.TID 0000.0001) // CMAX =          1.000000000000000E+00
(PID.TID 0000.0001) // CINT =          0.000000000000000E+00
(PID.TID 0000.0001) // SYMBOLS (CMIN->CMAX): -abcdefghijklmnopqrstuvwxyz+
(PID.TID 0000.0001) //                  0.0: .
(PID.TID 0000.0001) // RANGE I (Lo:Hi:Step):(    -3:    36:     1)
(PID.TID 0000.0001) // RANGE J (Lo:Hi:Step):(    36:    -3:    -1)
(PID.TID 0000.0001) // RANGE K (Lo:Hi:Step):(   1:   1:   1)
(PID.TID 0000.0001) // =======================================================
(PID.TID 0000.0001) // =======================================================
(PID.TID 0000.0001) // END OF FIELD                                          =
(PID.TID 0000.0001) // =======================================================
(PID.TID 0000.0001) 
(PID.TID 0000.0001) // =======================================================
(PID.TID 0000.0001) // Field hFacW at iteration          0
(PID.TID 0000.0001) // CMIN =          1.000000000000000E+00
(PID.TID 0000.0001) // CMAX =          1.000000000000000E+00
(PID.TID 0000.0001) // CINT =          0.000000000000000E+00
(PID.TID 0000.0001) // SYMBOLS (CMIN->CMAX): -abcdefghijklmnopqrstuvwxyz+
(PID.TID 0000.0001) //                  0.0: .
(PID.TID 0000.0001) // RANGE I (Lo:Hi:Step):(    -3:    36:     1)
(PID.TID 0000.0001) // RANGE J (Lo:Hi:Step):(    36:    -3:    -1)
(PID.TID 0000.0001) // RANGE K (Lo:Hi:Step):(   1:   1:   1)
(PID.TID 0000.0001) // =======================================================
(PID.TID 0000.0001) // =======================================================
(PID.TID 0000.0001) // END OF FIELD                                          =
(PID.TID 0000.0001) // =======================================================
(PID.TID 0000.0001) 
(PID.TID 0000.0001) // =======================================================
(PID.TID 0000.0001) // Field hFacS at iteration          0
(PID.TID 0000.0001) // CMIN =          1.000000000000000E+00
(PID.TID 0000.0001) // CMAX =          1.000000000000000E+00
(PID.TID 0000.0001) // CINT =          0.000000000000000E+00
(PID.TID 0000.0001) // SYMBOLS (CMIN->CMAX): -abcdefghijklmnopqrstuvwxyz+
(PID.TID 0000.0001) //                  0.0: .
(PID.TID 0000.0001) // RANGE I (Lo:Hi:Step):(    -3:    36:     1)
(PID.TID 0000.0001) // RANGE J (Lo:Hi:Step):(    36:    -3:    -1)
(PID.TID 0000.0001) // RANGE K (Lo:Hi:Step):(   1:   1:   1)
(PID.TID 0000.0001) // =======================================================
(PID.TID 0000.0001) // =======================================================
(PID.TID 0000.0001) // END OF FIELD                                          =
(PID.TID 0000.0001) // =======================================================
(PID.TID 0000.0001) 
(PID.TID 0000.0001) GAD_INIT_FIXED: GAD_OlMinSize=  1  0  1
(PID.TID 0000.0001) 
(PID.TID 0000.0001) // ===================================
(PID.TID 0000.0001) // GAD parameters :
(PID.TID 0000.0001) // ===================================
(PID.TID 0000.0001) tempAdvScheme =   /* Temp. Horiz.Advection scheme selector */
(PID.TID 0000.0001)                       2
(PID.TID 0000.0001)     ;
(PID.TID 0000.0001) tempVertAdvScheme =   /* Temp. Vert. Advection scheme selector */
(PID.TID 0000.0001)                       2
(PID.TID 0000.0001)     ;
(PID.TID 0000.0001) tempMultiDimAdvec =   /* use Muti-Dim Advec method for Temp */
(PID.TID 0000.0001)                   F
(PID.TID 0000.0001)     ;
(PID.TID 0000.0001) tempSOM_Advection = /* use 2nd Order Moment Advection for Temp */
(PID.TID 0000.0001)                   F
(PID.TID 0000.0001)     ;
(PID.TID 0000.0001) AdamsBashforthGt = /* apply Adams-Bashforth extrapolation on Gt */
(PID.TID 0000.0001)                   T
(PID.TID 0000.0001)     ;
(PID.TID 0000.0001) AdamsBashforth_T = /* apply Adams-Bashforth extrapolation on Temp */
(PID.TID 0000.0001)                   F
(PID.TID 0000.0001)     ;
(PID.TID 0000.0001) saltAdvScheme =   /* Salt. Horiz.advection scheme selector */
(PID.TID 0000.0001)                       2
(PID.TID 0000.0001)     ;
(PID.TID 0000.0001) saltVertAdvScheme =   /* Salt. Vert. Advection scheme selector */
(PID.TID 0000.0001)                       2
(PID.TID 0000.0001)     ;
(PID.TID 0000.0001) saltMultiDimAdvec =   /* use Muti-Dim Advec method for Salt */
(PID.TID 0000.0001)                   F
(PID.TID 0000.0001)     ;
(PID.TID 0000.0001) saltSOM_Advection = /* use 2nd Order Moment Advection for Salt */
(PID.TID 0000.0001)                   F
(PID.TID 0000.0001)     ;
(PID.TID 0000.0001) AdamsBashforthGs = /* apply Adams-Bashforth extrapolation on Gs */
(PID.TID 0000.0001)                   T
(PID.TID 0000.0001)     ;
(PID.TID 0000.0001) AdamsBashforth_S = /* apply Adams-Bashforth extrapolation on Salt */
(PID.TID 0000.0001)                   F
(PID.TID 0000.0001)     ;
(PID.TID 0000.0001) // ===================================
(PID.TID 0000.0001) INI_GLOBAL_DOMAIN: Found  19 CS-corner Pts in the domain
(PID.TID 0000.0001) %MON fCori_max                    =   1.4535016908525E-04
(PID.TID 0000.0001) %MON fCori_min                    =  -1.4535016908525E-04
(PID.TID 0000.0001) %MON fCori_mean                   =   0.0000000000000E+00
(PID.TID 0000.0001) %MON fCori_sd                     =   8.3972192788621E-05
(PID.TID 0000.0001) %MON fCoriG_max                   =   1.4544410433286E-04
(PID.TID 0000.0001) %MON fCoriG_min                   =  -1.4544410433286E-04
(PID.TID 0000.0001) %MON fCoriG_mean                  =   0.0000000000000E+00
(PID.TID 0000.0001) %MON fCoriG_sd                    =   8.3972192788621E-05
(PID.TID 0000.0001) %MON fCoriCos_max                 =   1.4540341538469E-04
(PID.TID 0000.0001) %MON fCoriCos_min                 =   5.2264550201501E-06
(PID.TID 0000.0001) %MON fCoriCos_mean                =   1.1482595466044E-04
(PID.TID 0000.0001) %MON fCoriCos_sd                  =   3.0292878037194E-05
(PID.TID 0000.0001) INI_CG2D: CG2D normalisation factor =  1.9156564154949553E-04
(PID.TID 0000.0001) 
(PID.TID 0000.0001) // =======================================================
(PID.TID 0000.0001) // Model configuration
(PID.TID 0000.0001) // =======================================================
(PID.TID 0000.0001) //
(PID.TID 0000.0001) // "Physical" paramters ( PARM01 in namelist )
(PID.TID 0000.0001) //
(PID.TID 0000.0001) buoyancyRelation = /* Type of relation to get Buoyancy */
(PID.TID 0000.0001)               'OCEANIC'
(PID.TID 0000.0001)     ;
(PID.TID 0000.0001) fluidIsAir   =  /* fluid major constituent is Air */
(PID.TID 0000.0001)                   F
(PID.TID 0000.0001)     ;
(PID.TID 0000.0001) fluidIsWater =  /* fluid major constituent is Water */
(PID.TID 0000.0001)                   T
(PID.TID 0000.0001)     ;
(PID.TID 0000.0001) usingPCoords =  /* use p (or p*) vertical coordinate */
(PID.TID 0000.0001)                   F
(PID.TID 0000.0001)     ;
(PID.TID 0000.0001) usingZCoords =  /* use z (or z*) vertical coordinate */
(PID.TID 0000.0001)                   T
(PID.TID 0000.0001)     ;
(PID.TID 0000.0001) tRef =   /* Reference temperature profile ( oC or K ) */
(PID.TID 0000.0001)    15 @  2.000000000000000E+01              /* K =  1: 15 */
(PID.TID 0000.0001)     ;
(PID.TID 0000.0001) sRef =   /* Reference salinity profile ( psu ) */
(PID.TID 0000.0001)    15 @  3.500000000000000E+01              /* K =  1: 15 */
(PID.TID 0000.0001)     ;
(PID.TID 0000.0001) useStrainTensionVisc= /* Use StrainTension Form of Viscous Operator */
(PID.TID 0000.0001)                   F
(PID.TID 0000.0001)     ;
(PID.TID 0000.0001) useVariableVisc = /* Use variable horizontal viscosity */
(PID.TID 0000.0001)                   F
(PID.TID 0000.0001)     ;
(PID.TID 0000.0001) useHarmonicVisc = /* Use harmonic horizontal viscosity */
(PID.TID 0000.0001)                   T
(PID.TID 0000.0001)     ;
(PID.TID 0000.0001) useBiharmonicVisc= /* Use biharmonic horiz.  viscosity */
(PID.TID 0000.0001)                   F
(PID.TID 0000.0001)     ;
(PID.TID 0000.0001) useSmag3D = /* Use isotropic 3-D Smagorinsky viscosity */
(PID.TID 0000.0001)                   F
(PID.TID 0000.0001)     ;
(PID.TID 0000.0001) viscAh  =   /* Lateral harmonic viscosity ( m^2/s ) */
(PID.TID 0000.0001)                 3.000000000000000E+05
(PID.TID 0000.0001)     ;
(PID.TID 0000.0001) viscA4  =   /* Lateral biharmonic viscosity ( m^4/s ) */
(PID.TID 0000.0001)                 0.000000000000000E+00
(PID.TID 0000.0001)     ;
(PID.TID 0000.0001) no_slip_sides =  /* Viscous BCs: No-slip sides */
(PID.TID 0000.0001)                   T
(PID.TID 0000.0001)     ;
(PID.TID 0000.0001) sideDragFactor = /* side-drag scaling factor (non-dim) */
(PID.TID 0000.0001)                 2.000000000000000E+00
(PID.TID 0000.0001)     ;
(PID.TID 0000.0001) viscArNr = /* vertical profile of vertical viscosity ( m^2/s )*/
(PID.TID 0000.0001)    15 @  1.000000000000000E-03              /* K =  1: 15 */
(PID.TID 0000.0001)     ;
(PID.TID 0000.0001) no_slip_bottom =  /* Viscous BCs: No-slip bottom */
(PID.TID 0000.0001)                   T
(PID.TID 0000.0001)     ;
(PID.TID 0000.0001) bottomVisc_pCell = /* Partial-cell in bottom Visc. BC */
(PID.TID 0000.0001)                   F
(PID.TID 0000.0001)     ;
(PID.TID 0000.0001) bottomDragLinear = /* linear bottom-drag coefficient ( m/s ) */
(PID.TID 0000.0001)                 0.000000000000000E+00
(PID.TID 0000.0001)     ;
(PID.TID 0000.0001) bottomDragQuadratic = /* quadratic bottom-drag coefficient (-) */
(PID.TID 0000.0001)                 0.000000000000000E+00
(PID.TID 0000.0001)     ;
(PID.TID 0000.0001) selectBotDragQuadr = /* select quadratic bottom drag options */
(PID.TID 0000.0001)                      -1
(PID.TID 0000.0001)     ;
(PID.TID 0000.0001) diffKhT =   /* Laplacian diffusion of heat laterally ( m^2/s ) */
(PID.TID 0000.0001)                 0.000000000000000E+00
(PID.TID 0000.0001)     ;
(PID.TID 0000.0001) diffK4T =   /* Biharmonic diffusion of heat laterally ( m^4/s ) */
(PID.TID 0000.0001)                 0.000000000000000E+00
(PID.TID 0000.0001)     ;
(PID.TID 0000.0001) diffKhS =   /* Laplacian diffusion of salt laterally ( m^2/s ) */
(PID.TID 0000.0001)                 0.000000000000000E+00
(PID.TID 0000.0001)     ;
(PID.TID 0000.0001) diffK4S =   /* Biharmonic diffusion of salt laterally ( m^4/s ) */
(PID.TID 0000.0001)                 0.000000000000000E+00
(PID.TID 0000.0001)     ;
(PID.TID 0000.0001) diffKrNrT = /* vertical profile of vertical diffusion of Temp ( m^2/s )*/
(PID.TID 0000.0001)    15 @  3.000000000000000E-05              /* K =  1: 15 */
(PID.TID 0000.0001)     ;
(PID.TID 0000.0001) diffKrNrS = /* vertical profile of vertical diffusion of Salt ( m^2/s )*/
(PID.TID 0000.0001)    15 @  3.000000000000000E-05              /* K =  1: 15 */
(PID.TID 0000.0001)     ;
(PID.TID 0000.0001) diffKrBL79surf = /* Surface diffusion for Bryan and Lewis 79 ( m^2/s ) */
(PID.TID 0000.0001)                 0.000000000000000E+00
(PID.TID 0000.0001)     ;
(PID.TID 0000.0001) diffKrBL79deep = /* Deep diffusion for Bryan and Lewis 1979 ( m^2/s ) */
(PID.TID 0000.0001)                 0.000000000000000E+00
(PID.TID 0000.0001)     ;
(PID.TID 0000.0001) diffKrBL79scl = /* Depth scale for Bryan and Lewis 1979 ( m ) */
(PID.TID 0000.0001)                 2.000000000000000E+02
(PID.TID 0000.0001)     ;
(PID.TID 0000.0001) diffKrBL79Ho = /* Turning depth for Bryan and Lewis 1979 ( m ) */
(PID.TID 0000.0001)                -2.000000000000000E+03
(PID.TID 0000.0001)     ;
(PID.TID 0000.0001) ivdc_kappa = /* Implicit Vertical Diffusivity for Convection ( m^2/s) */
(PID.TID 0000.0001)                 1.000000000000000E+01
(PID.TID 0000.0001)     ;
(PID.TID 0000.0001) hMixCriteria=  /* Criteria for mixed-layer diagnostic */
(PID.TID 0000.0001)                -8.000000000000000E-01
(PID.TID 0000.0001)     ;
(PID.TID 0000.0001) dRhoSmall =  /* Parameter for mixed-layer diagnostic */
(PID.TID 0000.0001)                 1.000000000000000E-06
(PID.TID 0000.0001)     ;
(PID.TID 0000.0001) hMixSmooth=  /* Smoothing parameter for mixed-layer diagnostic */
(PID.TID 0000.0001)                 0.000000000000000E+00
(PID.TID 0000.0001)     ;
(PID.TID 0000.0001) eosType =  /* Type of Equation of State */
(PID.TID 0000.0001)               'JMD95Z'
(PID.TID 0000.0001)     ;
(PID.TID 0000.0001) selectP_inEOS_Zc = /* select pressure to use in EOS (0,1,2,3) */
(PID.TID 0000.0001)                       0
(PID.TID 0000.0001)     0= -g*rhoConst*z ; 1= pRef (from tRef,sRef); 2= Hyd P ; 3= Hyd+NH P
(PID.TID 0000.0001)     ;
(PID.TID 0000.0001) HeatCapacity_Cp =  /* Specific heat capacity ( J/kg/K ) */
(PID.TID 0000.0001)                 3.994000000000000E+03
(PID.TID 0000.0001)     ;
(PID.TID 0000.0001) celsius2K = /* 0 degree Celsius converted to Kelvin ( K ) */
(PID.TID 0000.0001)                 2.731500000000000E+02
(PID.TID 0000.0001)     ;
(PID.TID 0000.0001) rhoConst  = /* Reference density (Boussinesq)  ( kg/m^3 ) */
(PID.TID 0000.0001)                 1.035000000000000E+03
(PID.TID 0000.0001)     ;
(PID.TID 0000.0001) rhoFacC = /* normalized Reference density @ cell-Center (-) */
(PID.TID 0000.0001)    15 @  1.000000000000000E+00              /* K =  1: 15 */
(PID.TID 0000.0001)     ;
(PID.TID 0000.0001) rhoFacF = /* normalized Reference density @ W-Interface (-) */
(PID.TID 0000.0001)    16 @  1.000000000000000E+00              /* K =  1: 16 */
(PID.TID 0000.0001)     ;
(PID.TID 0000.0001) rhoConstFresh = /* Fresh-water reference density ( kg/m^3 ) */
(PID.TID 0000.0001)                 1.000000000000000E+03
(PID.TID 0000.0001)     ;
(PID.TID 0000.0001) gravity =   /* Gravitational acceleration ( m/s^2 ) */
(PID.TID 0000.0001)                 9.810000000000000E+00
(PID.TID 0000.0001)     ;
(PID.TID 0000.0001) gBaro =   /* Barotropic gravity ( m/s^2 ) */
(PID.TID 0000.0001)                 9.810000000000000E+00
(PID.TID 0000.0001)     ;
(PID.TID 0000.0001) gravFacC = /* gravity factor (vs surf.) @ cell-Center (-) */
(PID.TID 0000.0001)    15 @  1.000000000000000E+00              /* K =  1: 15 */
(PID.TID 0000.0001)     ;
(PID.TID 0000.0001) gravFacF = /* gravity factor (vs surf.) @ W-Interface (-) */
(PID.TID 0000.0001)    16 @  1.000000000000000E+00              /* K =  1: 16 */
(PID.TID 0000.0001)     ;
(PID.TID 0000.0001) rotationPeriod =   /* Rotation Period ( s ) */
(PID.TID 0000.0001)                 8.640000000000000E+04
(PID.TID 0000.0001)     ;
(PID.TID 0000.0001) omega =   /* Angular velocity ( rad/s ) */
(PID.TID 0000.0001)                 7.272205216643040E-05
(PID.TID 0000.0001)     ;
(PID.TID 0000.0001) f0 =   /* Reference coriolis parameter ( 1/s ) */
(PID.TID 0000.0001)                 1.000000000000000E-04
(PID.TID 0000.0001)     ;
(PID.TID 0000.0001) beta =   /* Beta ( 1/(m.s) ) */
(PID.TID 0000.0001)                 9.999999999999999E-12
(PID.TID 0000.0001)     ;
(PID.TID 0000.0001) fPrime =   /* Second coriolis parameter ( 1/s ) */
(PID.TID 0000.0001)                 0.000000000000000E+00
(PID.TID 0000.0001)     ;
(PID.TID 0000.0001) rigidLid =   /* Rigid lid on/off flag */
(PID.TID 0000.0001)                   F
(PID.TID 0000.0001)     ;
(PID.TID 0000.0001) implicitFreeSurface =   /* Implicit free surface on/off flag */
(PID.TID 0000.0001)                   T
(PID.TID 0000.0001)     ;
(PID.TID 0000.0001) freeSurfFac =   /* Implicit free surface factor */
(PID.TID 0000.0001)                 1.000000000000000E+00
(PID.TID 0000.0001)     ;
(PID.TID 0000.0001) implicSurfPress =  /* Surface Pressure implicit factor (0-1)*/
(PID.TID 0000.0001)                 1.000000000000000E+00
(PID.TID 0000.0001)     ;
(PID.TID 0000.0001) implicDiv2Dflow =  /* Barot. Flow Div. implicit factor (0-1)*/
(PID.TID 0000.0001)                 1.000000000000000E+00
(PID.TID 0000.0001)     ;
(PID.TID 0000.0001) uniformLin_PhiSurf = /* use uniform Bo_surf on/off flag*/
(PID.TID 0000.0001)                   T
(PID.TID 0000.0001)     ;
(PID.TID 0000.0001) uniformFreeSurfLev = /* free-surface level-index is uniform */
(PID.TID 0000.0001)                   T
(PID.TID 0000.0001)     ;
(PID.TID 0000.0001) hFacMin =   /* minimum partial cell factor (hFac) */
(PID.TID 0000.0001)                 1.000000000000000E-01
(PID.TID 0000.0001)     ;
(PID.TID 0000.0001) hFacMinDr = /* minimum partial cell thickness ( m) */
(PID.TID 0000.0001)                 2.000000000000000E+01
(PID.TID 0000.0001)     ;
(PID.TID 0000.0001) exactConserv =  /* Exact Volume Conservation on/off flag*/
(PID.TID 0000.0001)                   T
(PID.TID 0000.0001)     ;
(PID.TID 0000.0001) linFSConserveTr = /* Tracer correction for Lin Free Surface on/off flag*/
(PID.TID 0000.0001)                   F
(PID.TID 0000.0001)     ;
(PID.TID 0000.0001) nonlinFreeSurf = /* Non-linear Free Surf. options (-1,0,1,2,3)*/
(PID.TID 0000.0001)                       4
(PID.TID 0000.0001)      -1,0= Off ; 1,2,3= On, 2=+rescale gU,gV, 3=+update cg2d solv.
(PID.TID 0000.0001)     ;
(PID.TID 0000.0001) hFacInf =   /* lower threshold for hFac (nonlinFreeSurf only)*/
(PID.TID 0000.0001)                 2.000000000000000E-01
(PID.TID 0000.0001)     ;
(PID.TID 0000.0001) hFacSup =   /* upper threshold for hFac (nonlinFreeSurf only)*/
(PID.TID 0000.0001)                 2.000000000000000E+00
(PID.TID 0000.0001)     ;
(PID.TID 0000.0001) select_rStar = /* r* Vertical coord. options (=0 r coord.; >0 uses r*)*/
(PID.TID 0000.0001)                       2
(PID.TID 0000.0001)     ;
(PID.TID 0000.0001) useRealFreshWaterFlux = /* Real Fresh Water Flux on/off flag*/
(PID.TID 0000.0001)                   T
(PID.TID 0000.0001)     ;
(PID.TID 0000.0001) temp_EvPrRn = /* Temp. of Evap/Prec/R (UNSET=use local T)(oC)*/
(PID.TID 0000.0001)                 1.234567000000000E+05
(PID.TID 0000.0001)     ;
(PID.TID 0000.0001) salt_EvPrRn = /* Salin. of Evap/Prec/R (UNSET=use local S)(psu)*/
(PID.TID 0000.0001)                 0.000000000000000E+00
(PID.TID 0000.0001)     ;
(PID.TID 0000.0001) selectAddFluid = /* option for mass source/sink of fluid (=0: off) */
(PID.TID 0000.0001)                       0
(PID.TID 0000.0001)     ;
(PID.TID 0000.0001) temp_addMass = /* Temp. of addMass array (UNSET=use local T)(oC)*/
(PID.TID 0000.0001)                 1.234567000000000E+05
(PID.TID 0000.0001)     ;
(PID.TID 0000.0001) salt_addMass = /* Salin. of addMass array (UNSET=use local S)(psu)*/
(PID.TID 0000.0001)                 0.000000000000000E+00
(PID.TID 0000.0001)     ;
(PID.TID 0000.0001) use3Dsolver = /* use 3-D pressure solver on/off flag */
(PID.TID 0000.0001)                   F
(PID.TID 0000.0001)     ;
(PID.TID 0000.0001) nonHydrostatic =  /* Non-Hydrostatic on/off flag */
(PID.TID 0000.0001)                   F
(PID.TID 0000.0001)     ;
(PID.TID 0000.0001) nh_Am2 = /* Non-Hydrostatic terms scaling factor */
(PID.TID 0000.0001)                 1.000000000000000E+00
(PID.TID 0000.0001)     ;
(PID.TID 0000.0001) implicitNHPress = /* Non-Hyd Pressure implicit factor (0-1)*/
(PID.TID 0000.0001)                 1.000000000000000E+00
(PID.TID 0000.0001)     ;
(PID.TID 0000.0001) selectNHfreeSurf = /* Non-Hyd (free-)Surface option */
(PID.TID 0000.0001)                       0
(PID.TID 0000.0001)     ;
(PID.TID 0000.0001) quasiHydrostatic = /* Quasi-Hydrostatic on/off flag */
(PID.TID 0000.0001)                   F
(PID.TID 0000.0001)     ;
(PID.TID 0000.0001) calc_wVelocity = /* vertical velocity calculation on/off flag */
(PID.TID 0000.0001)                   T
(PID.TID 0000.0001)     ;
(PID.TID 0000.0001) momStepping =  /* Momentum equation on/off flag */
(PID.TID 0000.0001)                   T
(PID.TID 0000.0001)     ;
(PID.TID 0000.0001) vectorInvariantMomentum= /* Vector-Invariant Momentum on/off */
(PID.TID 0000.0001)                   T
(PID.TID 0000.0001)     ;
(PID.TID 0000.0001) momAdvection =  /* Momentum advection on/off flag */
(PID.TID 0000.0001)                   T
(PID.TID 0000.0001)     ;
(PID.TID 0000.0001) momViscosity =  /* Momentum viscosity on/off flag */
(PID.TID 0000.0001)                   T
(PID.TID 0000.0001)     ;
(PID.TID 0000.0001) momImplVertAdv= /* Momentum implicit vert. advection on/off*/
(PID.TID 0000.0001)                   F
(PID.TID 0000.0001)     ;
(PID.TID 0000.0001) implicitViscosity = /* Implicit viscosity on/off flag */
(PID.TID 0000.0001)                   F
(PID.TID 0000.0001)     ;
(PID.TID 0000.0001) implBottomFriction= /* Implicit bottom friction on/off flag */
(PID.TID 0000.0001)                   F
(PID.TID 0000.0001)     ;
(PID.TID 0000.0001) metricTerms =  /* metric-Terms on/off flag */
(PID.TID 0000.0001)                   F
(PID.TID 0000.0001)     ;
(PID.TID 0000.0001) useNHMTerms = /* Non-Hydrostatic Metric-Terms on/off */
(PID.TID 0000.0001)                   F
(PID.TID 0000.0001)     ;
(PID.TID 0000.0001) selectCoriMap = /* Coriolis Map options (0,1,2,3)*/
(PID.TID 0000.0001)                       2
(PID.TID 0000.0001)     0= f-Plane ; 1= Beta-Plane ; 2= Spherical ; 3= read from file
(PID.TID 0000.0001)     ;
(PID.TID 0000.0001) use3dCoriolis = /* 3-D Coriolis on/off flag */
(PID.TID 0000.0001)                   F
(PID.TID 0000.0001)     ;
(PID.TID 0000.0001) useCoriolis =  /* Coriolis on/off flag */
(PID.TID 0000.0001)                   T
(PID.TID 0000.0001)     ;
(PID.TID 0000.0001) useCDscheme =  /* CD scheme on/off flag */
(PID.TID 0000.0001)                   F
(PID.TID 0000.0001)     ;
(PID.TID 0000.0001) useEnergyConservingCoriolis= /* Flx-Form Coriolis scheme flag */
(PID.TID 0000.0001)                   F
(PID.TID 0000.0001)     ;
(PID.TID 0000.0001) useJamartWetPoints= /* Coriolis WetPoints method flag */
(PID.TID 0000.0001)                   F
(PID.TID 0000.0001)     ;
(PID.TID 0000.0001) useJamartMomAdv= /* V.I Non-linear terms Jamart flag */
(PID.TID 0000.0001)                   F
(PID.TID 0000.0001)     ;
(PID.TID 0000.0001) useAbsVorticity= /* V.I Works with f+zeta in Coriolis */
(PID.TID 0000.0001)                   F
(PID.TID 0000.0001)     ;
(PID.TID 0000.0001) selectVortScheme= /* V.I Scheme selector for Vorticity-Term */
(PID.TID 0000.0001)                       1
(PID.TID 0000.0001)    = 0 : enstrophy (Shallow-Water Eq.) conserving scheme by Sadourny, JAS 75
(PID.TID 0000.0001)    = 1 : same as 0 with modified hFac
(PID.TID 0000.0001)    = 2 : energy conserving scheme (used by Sadourny in JAS 75 paper)
(PID.TID 0000.0001)    = 3 : energy (general) and enstrophy (2D, nonDiv.) conserving scheme
(PID.TID 0000.0001)          from Sadourny (Burridge & Haseler, ECMWF Rep.4, 1977)
(PID.TID 0000.0001)     ;
(PID.TID 0000.0001) upwindVorticity= /* V.I Upwind bias vorticity flag */
(PID.TID 0000.0001)                   F
(PID.TID 0000.0001)     ;
(PID.TID 0000.0001) highOrderVorticity= /* V.I High order vort. advect. flag */
(PID.TID 0000.0001)                   F
(PID.TID 0000.0001)     ;
(PID.TID 0000.0001) upwindShear= /* V.I Upwind vertical Shear advection flag */
(PID.TID 0000.0001)                   F
(PID.TID 0000.0001)     ;
(PID.TID 0000.0001) selectKEscheme= /* V.I Kinetic Energy scheme selector */
(PID.TID 0000.0001)                       0
(PID.TID 0000.0001)     ;
(PID.TID 0000.0001) momForcing =  /* Momentum forcing on/off flag */
(PID.TID 0000.0001)                   T
(PID.TID 0000.0001)     ;
(PID.TID 0000.0001) momPressureForcing =  /* Momentum pressure term on/off flag */
(PID.TID 0000.0001)                   T
(PID.TID 0000.0001)     ;
(PID.TID 0000.0001) implicitIntGravWave= /* Implicit Internal Gravity Wave flag */
(PID.TID 0000.0001)                   F
(PID.TID 0000.0001)     ;
(PID.TID 0000.0001) staggerTimeStep =    /* Stagger time stepping on/off flag */
(PID.TID 0000.0001)                   T
(PID.TID 0000.0001)     ;
(PID.TID 0000.0001) doResetHFactors = /* reset thickness factors @ each time-step */
(PID.TID 0000.0001)                   F
(PID.TID 0000.0001)     ;
(PID.TID 0000.0001) multiDimAdvection =  /* enable/disable Multi-Dim Advection */
(PID.TID 0000.0001)                   T
(PID.TID 0000.0001)     ;
(PID.TID 0000.0001) useMultiDimAdvec =   /* Multi-Dim Advection is/is-not used */
(PID.TID 0000.0001)                   F
(PID.TID 0000.0001)     ;
(PID.TID 0000.0001) implicitDiffusion = /* Implicit Diffusion on/off flag */
(PID.TID 0000.0001)                   T
(PID.TID 0000.0001)     ;
(PID.TID 0000.0001) tempStepping =  /* Temperature equation on/off flag */
(PID.TID 0000.0001)                   T
(PID.TID 0000.0001)     ;
(PID.TID 0000.0001) tempAdvection = /* Temperature advection on/off flag */
(PID.TID 0000.0001)                   T
(PID.TID 0000.0001)     ;
(PID.TID 0000.0001) tempImplVertAdv = /* Temp. implicit vert. advection on/off */
(PID.TID 0000.0001)                   F
(PID.TID 0000.0001)     ;
(PID.TID 0000.0001) tempForcing  =  /* Temperature forcing on/off flag */
(PID.TID 0000.0001)                   T
(PID.TID 0000.0001)     ;
(PID.TID 0000.0001) balanceQnet  =  /* balance net heat-flux on/off flag */
(PID.TID 0000.0001)                   F
(PID.TID 0000.0001)     ;
(PID.TID 0000.0001) doThetaClimRelax = /* apply SST relaxation on/off flag */
(PID.TID 0000.0001)                   T
(PID.TID 0000.0001)     ;
(PID.TID 0000.0001) balanceThetaClimRelax= /* balance SST relaxation on/off flag */
(PID.TID 0000.0001)                   F
(PID.TID 0000.0001)     ;
(PID.TID 0000.0001) tempIsActiveTr = /* Temp. is a dynamically Active Tracer */
(PID.TID 0000.0001)                   T
(PID.TID 0000.0001)     ;
(PID.TID 0000.0001) saltStepping =  /* Salinity equation on/off flag */
(PID.TID 0000.0001)                   T
(PID.TID 0000.0001)     ;
(PID.TID 0000.0001) saltAdvection = /* Salinity advection on/off flag */
(PID.TID 0000.0001)                   T
(PID.TID 0000.0001)     ;
(PID.TID 0000.0001) saltImplVertAdv = /* Sali. implicit vert. advection on/off */
(PID.TID 0000.0001)                   F
(PID.TID 0000.0001)     ;
(PID.TID 0000.0001) saltForcing  =  /* Salinity forcing on/off flag */
(PID.TID 0000.0001)                   T
(PID.TID 0000.0001)     ;
(PID.TID 0000.0001) balanceEmPmR =  /* balance net fresh-water flux on/off flag */
(PID.TID 0000.0001)                   F
(PID.TID 0000.0001)     ;
(PID.TID 0000.0001) doSaltClimRelax = /* apply SSS relaxation on/off flag */
(PID.TID 0000.0001)                   T
(PID.TID 0000.0001)     ;
(PID.TID 0000.0001) balanceSaltClimRelax= /* balance SSS relaxation on/off flag */
(PID.TID 0000.0001)                   F
(PID.TID 0000.0001)     ;
(PID.TID 0000.0001) saltIsActiveTr = /* Salt  is a dynamically Active Tracer */
(PID.TID 0000.0001)                   T
(PID.TID 0000.0001)     ;
(PID.TID 0000.0001)  readBinaryPrec = /* Precision used for reading binary files */
(PID.TID 0000.0001)                      64
(PID.TID 0000.0001)     ;
(PID.TID 0000.0001) writeBinaryPrec = /* Precision used for writing binary files */
(PID.TID 0000.0001)                      32
(PID.TID 0000.0001)     ;
(PID.TID 0000.0001)  globalFiles = /* write "global" (=not per tile) files */
(PID.TID 0000.0001)                   F
(PID.TID 0000.0001)     ;
(PID.TID 0000.0001)  useSingleCpuIO = /* only master MPI process does I/O */
(PID.TID 0000.0001)                   T
(PID.TID 0000.0001)     ;
(PID.TID 0000.0001)  useSingleCpuInput = /* only master process reads input */
(PID.TID 0000.0001)                   T
(PID.TID 0000.0001)     ;
(PID.TID 0000.0001) /* debLev[*]  : level of debug & auxiliary message printing */
(PID.TID 0000.0001) debLevZero =  0 ; /* level of disabled aux. msg printing */
(PID.TID 0000.0001)    debLevA =  1 ; /* level of minimum  aux. msg printing */
(PID.TID 0000.0001)    debLevB =  2 ; /* level of low aux. print (report read-file opening)*/
(PID.TID 0000.0001)    debLevC =  3 ; /* level of moderate debug prt (most pkgs debug msg) */
(PID.TID 0000.0001)    debLevD =  4 ; /* level of enhanced debug prt (add DEBUG_STATS prt) */
(PID.TID 0000.0001)    debLevE =  5 ; /* level of extensive debug printing */
(PID.TID 0000.0001) debugLevel =  /* select debug printing level */
(PID.TID 0000.0001)                       2
(PID.TID 0000.0001)     ;
(PID.TID 0000.0001) //
(PID.TID 0000.0001) // Elliptic solver(s) paramters ( PARM02 in namelist )
(PID.TID 0000.0001) //
(PID.TID 0000.0001) cg2dMaxIters =   /* Upper limit on 2d con. grad iterations  */
(PID.TID 0000.0001)                     200
(PID.TID 0000.0001)     ;
(PID.TID 0000.0001) cg2dChkResFreq =   /* 2d con. grad convergence test frequency */
(PID.TID 0000.0001)                       1
(PID.TID 0000.0001)     ;
(PID.TID 0000.0001) cg2dUseMinResSol= /* use cg2d last-iter(=0) / min-resid.(=1) solution */
(PID.TID 0000.0001)                       0
(PID.TID 0000.0001)     ;
(PID.TID 0000.0001) cg2dTargetResidual =   /* 2d con. grad target residual  */
(PID.TID 0000.0001)                 1.000000000000000E-09
(PID.TID 0000.0001)     ;
(PID.TID 0000.0001) cg2dTargetResWunit =   /* CG2d target residual [W units] */
(PID.TID 0000.0001)                -1.000000000000000E+00
(PID.TID 0000.0001)     ;
(PID.TID 0000.0001) cg2dPreCondFreq =   /* Freq. for updating cg2d preconditioner */
(PID.TID 0000.0001)                       1
(PID.TID 0000.0001)     ;
(PID.TID 0000.0001) useSRCGSolver =  /* use single reduction CG solver(s) */
(PID.TID 0000.0001)                   F
(PID.TID 0000.0001)     ;
(PID.TID 0000.0001) printResidualFreq = /* Freq. for printing CG residual */
(PID.TID 0000.0001)                       0
(PID.TID 0000.0001)     ;
(PID.TID 0000.0001) //
(PID.TID 0000.0001) // Time stepping paramters ( PARM03 in namelist )
(PID.TID 0000.0001) //
(PID.TID 0000.0001) deltaTMom =   /* Momentum equation timestep ( s ) */
(PID.TID 0000.0001)                 1.200000000000000E+03
(PID.TID 0000.0001)     ;
(PID.TID 0000.0001) deltaTFreeSurf = /* FreeSurface equation timestep ( s ) */
(PID.TID 0000.0001)                 8.640000000000000E+04
(PID.TID 0000.0001)     ;
(PID.TID 0000.0001) dTtracerLev =  /* Tracer equation timestep ( s ) */
(PID.TID 0000.0001)    15 @  8.640000000000000E+04              /* K =  1: 15 */
(PID.TID 0000.0001)     ;
(PID.TID 0000.0001) deltaTClock  =   /* Model clock timestep ( s ) */
(PID.TID 0000.0001)                 8.640000000000000E+04
(PID.TID 0000.0001)     ;
(PID.TID 0000.0001) cAdjFreq =   /* Convective adjustment interval ( s ) */
(PID.TID 0000.0001)                 0.000000000000000E+00
(PID.TID 0000.0001)     ;
(PID.TID 0000.0001) momForcingOutAB = /* =1: take Momentum Forcing out of Adams-Bash. stepping */
(PID.TID 0000.0001)                       0
(PID.TID 0000.0001)     ;
(PID.TID 0000.0001) tracForcingOutAB = /* =1: take T,S,pTr Forcing out of Adams-Bash. stepping */
(PID.TID 0000.0001)                       1
(PID.TID 0000.0001)     ;
(PID.TID 0000.0001) momDissip_In_AB = /* put Dissipation Tendency in Adams-Bash. stepping */
(PID.TID 0000.0001)                   T
(PID.TID 0000.0001)     ;
(PID.TID 0000.0001) doAB_onGtGs = /* apply AB on Tendencies (rather than on T,S)*/
(PID.TID 0000.0001)                   T
(PID.TID 0000.0001)     ;
(PID.TID 0000.0001) abEps =   /* Adams-Bashforth-2 stabilizing weight */
(PID.TID 0000.0001)                 1.000000000000000E-01
(PID.TID 0000.0001)     ;
(PID.TID 0000.0001) applyExchUV_early = /* Apply EXCH to U,V earlier in time-step */
(PID.TID 0000.0001)                   F
(PID.TID 0000.0001)     ;
(PID.TID 0000.0001) pickupStrictlyMatch= /* stop if pickup do not strictly match */
(PID.TID 0000.0001)                   T
(PID.TID 0000.0001)     ;
(PID.TID 0000.0001) nIter0   =   /* Run starting timestep number */
(PID.TID 0000.0001)                   72000
(PID.TID 0000.0001)     ;
(PID.TID 0000.0001) nTimeSteps = /* Number of timesteps */
(PID.TID 0000.0001)                      20
(PID.TID 0000.0001)     ;
(PID.TID 0000.0001) nEndIter =   /* Run ending timestep number */
(PID.TID 0000.0001)                   72020
(PID.TID 0000.0001)     ;
(PID.TID 0000.0001) baseTime =   /* Model base time ( s ) */
(PID.TID 0000.0001)                 0.000000000000000E+00
(PID.TID 0000.0001)     ;
(PID.TID 0000.0001) startTime =  /* Run start time ( s ) */
(PID.TID 0000.0001)                 6.220800000000000E+09
(PID.TID 0000.0001)     ;
(PID.TID 0000.0001) endTime  =   /* Integration ending time ( s ) */
(PID.TID 0000.0001)                 6.222528000000000E+09
(PID.TID 0000.0001)     ;
(PID.TID 0000.0001) pChkPtFreq = /* Permanent restart/pickup file interval ( s ) */
(PID.TID 0000.0001)                 1.728000000000000E+06
(PID.TID 0000.0001)     ;
(PID.TID 0000.0001) chkPtFreq  = /* Rolling restart/pickup file interval ( s ) */
(PID.TID 0000.0001)                 0.000000000000000E+00
(PID.TID 0000.0001)     ;
(PID.TID 0000.0001) pickup_write_mdsio =   /* Model IO flag. */
(PID.TID 0000.0001)                   T
(PID.TID 0000.0001)     ;
(PID.TID 0000.0001) pickup_read_mdsio =   /* Model IO flag. */
(PID.TID 0000.0001)                   T
(PID.TID 0000.0001)     ;
(PID.TID 0000.0001) pickup_write_immed =   /* Model IO flag. */
(PID.TID 0000.0001)                   F
(PID.TID 0000.0001)     ;
(PID.TID 0000.0001) writePickupAtEnd =   /* Model IO flag. */
(PID.TID 0000.0001)                   T
(PID.TID 0000.0001)     ;
(PID.TID 0000.0001) dumpFreq =   /* Model state write out interval ( s ). */
(PID.TID 0000.0001)                 6.220800000000000E+08
(PID.TID 0000.0001)     ;
(PID.TID 0000.0001) dumpInitAndLast= /* write out Initial & Last iter. model state */
(PID.TID 0000.0001)                   T
(PID.TID 0000.0001)     ;
(PID.TID 0000.0001) snapshot_mdsio =   /* Model IO flag. */
(PID.TID 0000.0001)                   T
(PID.TID 0000.0001)     ;
(PID.TID 0000.0001) monitorFreq =   /* Monitor output interval ( s ). */
(PID.TID 0000.0001)                 1.000000000000000E+00
(PID.TID 0000.0001)     ;
(PID.TID 0000.0001) monitorSelect = /* select group of variables to monitor */
(PID.TID 0000.0001)                       3
(PID.TID 0000.0001)     ;
(PID.TID 0000.0001) monitor_stdio =   /* Model IO flag. */
(PID.TID 0000.0001)                   T
(PID.TID 0000.0001)     ;
(PID.TID 0000.0001) externForcingPeriod =   /* forcing period (s) */
(PID.TID 0000.0001)                 2.592000000000000E+06
(PID.TID 0000.0001)     ;
(PID.TID 0000.0001) externForcingCycle =   /* period of the cyle (s). */
(PID.TID 0000.0001)                 3.110400000000000E+07
(PID.TID 0000.0001)     ;
(PID.TID 0000.0001) tauThetaClimRelax =   /* relaxation time scale (s) */
(PID.TID 0000.0001)                 5.184000000000000E+06
(PID.TID 0000.0001)     ;
(PID.TID 0000.0001) tauSaltClimRelax =   /* relaxation time scale (s) */
(PID.TID 0000.0001)                 6.220800000000000E+07
(PID.TID 0000.0001)     ;
(PID.TID 0000.0001) latBandClimRelax =   /* max. Lat. where relaxation */
(PID.TID 0000.0001)                 1.800000000000000E+02
(PID.TID 0000.0001)     ;
(PID.TID 0000.0001) //
(PID.TID 0000.0001) // Gridding paramters ( PARM04 in namelist )
(PID.TID 0000.0001) //
(PID.TID 0000.0001) usingCartesianGrid = /* Cartesian coordinates flag ( True/False ) */
(PID.TID 0000.0001)                   F
(PID.TID 0000.0001)     ;
(PID.TID 0000.0001) usingCylindricalGrid = /* Cylindrical coordinates flag ( True/False ) */
(PID.TID 0000.0001)                   F
(PID.TID 0000.0001)     ;
(PID.TID 0000.0001) usingSphericalPolarGrid = /* Spherical coordinates flag ( True/False ) */
(PID.TID 0000.0001)                   F
(PID.TID 0000.0001)     ;
(PID.TID 0000.0001) usingCurvilinearGrid = /* Curvilinear coordinates flag ( True/False ) */
(PID.TID 0000.0001)                   T
(PID.TID 0000.0001)     ;
(PID.TID 0000.0001) selectSigmaCoord = /* Hybrid-Sigma Vert. Coordinate option */
(PID.TID 0000.0001)                       0
(PID.TID 0000.0001)     ;
(PID.TID 0000.0001) rSigmaBnd = /* r/sigma transition ( units of r ==  m ) */
(PID.TID 0000.0001)                 1.234567000000000E+05
(PID.TID 0000.0001)     ;
(PID.TID 0000.0001) rkSign =   /* index orientation relative to vertical coordinate */
(PID.TID 0000.0001)                -1.000000000000000E+00
(PID.TID 0000.0001)     ;
(PID.TID 0000.0001) gravitySign = /* gravity orientation relative to vertical coordinate */
(PID.TID 0000.0001)                -1.000000000000000E+00
(PID.TID 0000.0001)     ;
(PID.TID 0000.0001) seaLev_Z =  /* reference height of sea-level [m] */
(PID.TID 0000.0001)                 0.000000000000000E+00
(PID.TID 0000.0001)     ;
(PID.TID 0000.0001) top_Pres =  /* reference pressure at the top [Pa] */
(PID.TID 0000.0001)                 0.000000000000000E+00
(PID.TID 0000.0001)     ;
(PID.TID 0000.0001) mass2rUnit = /* convert mass per unit area [kg/m2] to r-units [m] */
(PID.TID 0000.0001)                 9.661835748792270E-04
(PID.TID 0000.0001)     ;
(PID.TID 0000.0001) rUnit2mass = /* convert r-units [m] to mass per unit area [kg/m2] */
(PID.TID 0000.0001)                 1.035000000000000E+03
(PID.TID 0000.0001)     ;
(PID.TID 0000.0001) drC =   /* C spacing ( units of r ) */
(PID.TID 0000.0001)                 2.500000000000000E+01,      /* K =  1 */
(PID.TID 0000.0001)                 6.000000000000000E+01,      /* K =  2 */
(PID.TID 0000.0001)                 8.500000000000000E+01,      /* K =  3 */
(PID.TID 0000.0001)                 1.200000000000000E+02,      /* K =  4 */
(PID.TID 0000.0001)                 1.650000000000000E+02,      /* K =  5 */
(PID.TID 0000.0001)                 2.150000000000000E+02,      /* K =  6 */
(PID.TID 0000.0001)                 2.650000000000000E+02,      /* K =  7 */
(PID.TID 0000.0001)                 3.150000000000000E+02,      /* K =  8 */
(PID.TID 0000.0001)                 3.650000000000000E+02,      /* K =  9 */
(PID.TID 0000.0001)                 4.150000000000000E+02,      /* K = 10 */
(PID.TID 0000.0001)                 4.650000000000000E+02,      /* K = 11 */
(PID.TID 0000.0001)                 5.150000000000000E+02,      /* K = 12 */
(PID.TID 0000.0001)                 5.650000000000000E+02,      /* K = 13 */
(PID.TID 0000.0001)                 6.150000000000000E+02,      /* K = 14 */
(PID.TID 0000.0001)                 6.650000000000000E+02,      /* K = 15 */
(PID.TID 0000.0001)                 3.450000000000000E+02       /* K = 16 */
(PID.TID 0000.0001)     ;
(PID.TID 0000.0001) drF =   /* W spacing ( units of r ) */
(PID.TID 0000.0001)                 5.000000000000000E+01,      /* K =  1 */
(PID.TID 0000.0001)                 7.000000000000000E+01,      /* K =  2 */
(PID.TID 0000.0001)                 1.000000000000000E+02,      /* K =  3 */
(PID.TID 0000.0001)                 1.400000000000000E+02,      /* K =  4 */
(PID.TID 0000.0001)                 1.900000000000000E+02,      /* K =  5 */
(PID.TID 0000.0001)                 2.400000000000000E+02,      /* K =  6 */
(PID.TID 0000.0001)                 2.900000000000000E+02,      /* K =  7 */
(PID.TID 0000.0001)                 3.400000000000000E+02,      /* K =  8 */
(PID.TID 0000.0001)                 3.900000000000000E+02,      /* K =  9 */
(PID.TID 0000.0001)                 4.400000000000000E+02,      /* K = 10 */
(PID.TID 0000.0001)                 4.900000000000000E+02,      /* K = 11 */
(PID.TID 0000.0001)                 5.400000000000000E+02,      /* K = 12 */
(PID.TID 0000.0001)                 5.900000000000000E+02,      /* K = 13 */
(PID.TID 0000.0001)                 6.400000000000000E+02,      /* K = 14 */
(PID.TID 0000.0001)                 6.900000000000000E+02       /* K = 15 */
(PID.TID 0000.0001)     ;
(PID.TID 0000.0001) radius_fromHorizGrid = /* sphere Radius of input horiz. grid */
(PID.TID 0000.0001)                 6.370000000000000E+06
(PID.TID 0000.0001)     ;
(PID.TID 0000.0001) rSphere =  /* Radius ( ignored - cartesian, m - spherical ) */
(PID.TID 0000.0001)                 6.370000000000000E+06
(PID.TID 0000.0001)     ;
(PID.TID 0000.0001) deepAtmosphere = /* Deep/Shallow Atmosphere flag (True/False) */
(PID.TID 0000.0001)                   F
(PID.TID 0000.0001)     ;
(PID.TID 0000.0001) xC =  /* xC(:,1,:,1) : P-point X coord ( deg. or m if cartesian) */
(PID.TID 0000.0001)                -4.439521994760536E+01,      /* I =  1 */
(PID.TID 0000.0001)                -4.295641272275883E+01,      /* I =  2 */
(PID.TID 0000.0001)                -4.122055553388957E+01,      /* I =  3 */
(PID.TID 0000.0001)                -3.923446288487304E+01,      /* I =  4 */
(PID.TID 0000.0001)                -3.702585158682200E+01,      /* I =  5 */
(PID.TID 0000.0001)                -3.461179367094151E+01,      /* I =  6 */
(PID.TID 0000.0001)                -3.200434569041793E+01,      /* I =  7 */
(PID.TID 0000.0001)                -2.921355965632675E+01,      /* I =  8 */
(PID.TID 0000.0001)                -2.624932223028290E+01,      /* I =  9 */
(PID.TID 0000.0001)                -2.312261250426344E+01,      /* I = 10 */
(PID.TID 0000.0001)                -1.984640717127058E+01,      /* I = 11 */
(PID.TID 0000.0001)                -1.643630800555134E+01,      /* I = 12 */
(PID.TID 0000.0001)                -1.291089806302069E+01,      /* I = 13 */
(PID.TID 0000.0001)                -9.291807802719402E+00,      /* I = 14 */
(PID.TID 0000.0001)                -5.603475335822332E+00,      /* I = 15 */
(PID.TID 0000.0001)                -1.872608513033445E+00,      /* I = 16 */
(PID.TID 0000.0001)                 1.872608513033445E+00,      /* I = 17 */
(PID.TID 0000.0001)                 5.603475335822332E+00,      /* I = 18 */
(PID.TID 0000.0001)                 9.291807802719402E+00,      /* I = 19 */
(PID.TID 0000.0001)                 1.291089806302069E+01,      /* I = 20 */
(PID.TID 0000.0001)                 1.643630800555134E+01,      /* I = 21 */
(PID.TID 0000.0001)                 1.984640717127058E+01,      /* I = 22 */
(PID.TID 0000.0001)                 2.312261250426344E+01,      /* I = 23 */
(PID.TID 0000.0001)                 2.624932223028290E+01,      /* I = 24 */
(PID.TID 0000.0001)                 2.921355965632675E+01,      /* I = 25 */
(PID.TID 0000.0001)                 3.200434569041793E+01,      /* I = 26 */
(PID.TID 0000.0001)                 3.461179367094151E+01,      /* I = 27 */
(PID.TID 0000.0001)                 3.702585158682200E+01,      /* I = 28 */
(PID.TID 0000.0001)                 3.923446288487304E+01,      /* I = 29 */
(PID.TID 0000.0001)                 4.122055553388957E+01,      /* I = 30 */
(PID.TID 0000.0001)                 4.295641272275883E+01,      /* I = 31 */
(PID.TID 0000.0001)                 4.439521994760536E+01       /* I = 32 */
(PID.TID 0000.0001)     ;
(PID.TID 0000.0001) yC =  /* yC(1,:,1,:) : P-point Y coord ( deg. or m if cartesian) */
(PID.TID 0000.0001)                -3.497677942598243E+01,      /* J =  1 */
(PID.TID 0000.0001)                -3.374005967394886E+01,      /* J =  2 */
(PID.TID 0000.0001)                -3.220655175667454E+01,      /* J =  3 */
(PID.TID 0000.0001)                -3.045756348838641E+01,      /* J =  4 */
(PID.TID 0000.0001)                -2.853728129852918E+01,      /* J =  5 */
(PID.TID 0000.0001)                -2.647426640173173E+01,      /* J =  6 */
(PID.TID 0000.0001)                -2.428936657094636E+01,      /* J =  7 */
(PID.TID 0000.0001)                -2.199915808312262E+01,      /* J =  8 */
(PID.TID 0000.0001)                -1.961768597440146E+01,      /* J =  9 */
(PID.TID 0000.0001)                -1.715743888281371E+01,      /* J = 10 */
(PID.TID 0000.0001)                -1.462993396899330E+01,      /* J = 11 */
(PID.TID 0000.0001)                -1.204608340464756E+01,      /* J = 12 */
(PID.TID 0000.0001)                -9.416429130284818E+00,      /* J = 13 */
(PID.TID 0000.0001)                -6.751293662992216E+00,      /* J = 14 */
(PID.TID 0000.0001)                -4.060875511835959E+00,      /* J = 15 */
(PID.TID 0000.0001)                -1.355307764409121E+00,      /* J = 16 */
(PID.TID 0000.0001)                 1.355307764409121E+00,      /* J = 17 */
(PID.TID 0000.0001)                 4.060875511835959E+00,      /* J = 18 */
(PID.TID 0000.0001)                 6.751293662992216E+00,      /* J = 19 */
(PID.TID 0000.0001)                 9.416429130284818E+00,      /* J = 20 */
(PID.TID 0000.0001)                 1.204608340464756E+01,      /* J = 21 */
(PID.TID 0000.0001)                 1.462993396899330E+01,      /* J = 22 */
(PID.TID 0000.0001)                 1.715743888281371E+01,      /* J = 23 */
(PID.TID 0000.0001)                 1.961768597440146E+01,      /* J = 24 */
(PID.TID 0000.0001)                 2.199915808312262E+01,      /* J = 25 */
(PID.TID 0000.0001)                 2.428936657094636E+01,      /* J = 26 */
(PID.TID 0000.0001)                 2.647426640173173E+01,      /* J = 27 */
(PID.TID 0000.0001)                 2.853728129852918E+01,      /* J = 28 */
(PID.TID 0000.0001)                 3.045756348838641E+01,      /* J = 29 */
(PID.TID 0000.0001)                 3.220655175667454E+01,      /* J = 30 */
(PID.TID 0000.0001)                 3.374005967394886E+01,      /* J = 31 */
(PID.TID 0000.0001)                 3.497677942598243E+01       /* J = 32 */
(PID.TID 0000.0001)     ;
(PID.TID 0000.0001) rcoord = /* P-point R coordinate (  units of r ) */
(PID.TID 0000.0001)                -2.500000000000000E+01,      /* K =  1 */
(PID.TID 0000.0001)                -8.500000000000000E+01,      /* K =  2 */
(PID.TID 0000.0001)                -1.700000000000000E+02,      /* K =  3 */
(PID.TID 0000.0001)                -2.900000000000000E+02,      /* K =  4 */
(PID.TID 0000.0001)                -4.550000000000000E+02,      /* K =  5 */
(PID.TID 0000.0001)                -6.700000000000000E+02,      /* K =  6 */
(PID.TID 0000.0001)                -9.350000000000000E+02,      /* K =  7 */
(PID.TID 0000.0001)                -1.250000000000000E+03,      /* K =  8 */
(PID.TID 0000.0001)                -1.615000000000000E+03,      /* K =  9 */
(PID.TID 0000.0001)                -2.030000000000000E+03,      /* K = 10 */
(PID.TID 0000.0001)                -2.495000000000000E+03,      /* K = 11 */
(PID.TID 0000.0001)                -3.010000000000000E+03,      /* K = 12 */
(PID.TID 0000.0001)                -3.575000000000000E+03,      /* K = 13 */
(PID.TID 0000.0001)                -4.190000000000000E+03,      /* K = 14 */
(PID.TID 0000.0001)                -4.855000000000000E+03       /* K = 15 */
(PID.TID 0000.0001)     ;
(PID.TID 0000.0001) rF =   /* W-Interf. R coordinate (  units of r ) */
(PID.TID 0000.0001)                 0.000000000000000E+00,      /* K =  1 */
(PID.TID 0000.0001)                -5.000000000000000E+01,      /* K =  2 */
(PID.TID 0000.0001)                -1.200000000000000E+02,      /* K =  3 */
(PID.TID 0000.0001)                -2.200000000000000E+02,      /* K =  4 */
(PID.TID 0000.0001)                -3.600000000000000E+02,      /* K =  5 */
(PID.TID 0000.0001)                -5.500000000000000E+02,      /* K =  6 */
(PID.TID 0000.0001)                -7.900000000000000E+02,      /* K =  7 */
(PID.TID 0000.0001)                -1.080000000000000E+03,      /* K =  8 */
(PID.TID 0000.0001)                -1.420000000000000E+03,      /* K =  9 */
(PID.TID 0000.0001)                -1.810000000000000E+03,      /* K = 10 */
(PID.TID 0000.0001)                -2.250000000000000E+03,      /* K = 11 */
(PID.TID 0000.0001)                -2.740000000000000E+03,      /* K = 12 */
(PID.TID 0000.0001)                -3.280000000000000E+03,      /* K = 13 */
(PID.TID 0000.0001)                -3.870000000000000E+03,      /* K = 14 */
(PID.TID 0000.0001)                -4.510000000000000E+03,      /* K = 15 */
(PID.TID 0000.0001)                -5.200000000000000E+03       /* K = 16 */
(PID.TID 0000.0001)     ;
(PID.TID 0000.0001) deepFacC = /* deep-model grid factor @ cell-Center (-) */
(PID.TID 0000.0001)    15 @  1.000000000000000E+00              /* K =  1: 15 */
(PID.TID 0000.0001)     ;
(PID.TID 0000.0001) deepFacF = /* deep-model grid factor @ W-Interface (-) */
(PID.TID 0000.0001)    16 @  1.000000000000000E+00              /* K =  1: 16 */
(PID.TID 0000.0001)     ;
(PID.TID 0000.0001) rVel2wUnit = /* convert units: rVel -> wSpeed (=1 if z-coord)*/
(PID.TID 0000.0001)    16 @  1.000000000000000E+00              /* K =  1: 16 */
(PID.TID 0000.0001)     ;
(PID.TID 0000.0001) wUnit2rVel = /* convert units: wSpeed -> rVel (=1 if z-coord)*/
(PID.TID 0000.0001)    16 @  1.000000000000000E+00              /* K =  1: 16 */
(PID.TID 0000.0001)     ;
(PID.TID 0000.0001) dBdrRef = /* Vertical grad. of reference buoyancy [(m/s/r)^2] */
(PID.TID 0000.0001)    15 @  0.000000000000000E+00              /* K =  1: 15 */
(PID.TID 0000.0001)     ;
(PID.TID 0000.0001) rotateGrid = /* use rotated grid ( True/False ) */
(PID.TID 0000.0001)                   F
(PID.TID 0000.0001)     ;
(PID.TID 0000.0001) phiEuler = /* Euler angle, rotation about original z-coordinate [rad] */
(PID.TID 0000.0001)                 0.000000000000000E+00
(PID.TID 0000.0001)     ;
(PID.TID 0000.0001) thetaEuler = /* Euler angle, rotation about new x-coordinate [rad] */
(PID.TID 0000.0001)                 0.000000000000000E+00
(PID.TID 0000.0001)     ;
(PID.TID 0000.0001) psiEuler = /* Euler angle, rotation about new z-coordinate [rad] */
(PID.TID 0000.0001)                 0.000000000000000E+00
(PID.TID 0000.0001)     ;
(PID.TID 0000.0001) dxF =  /* dxF(:,1,:,1) ( units: m ) */
(PID.TID 0000.0001)                 1.202082051331828E+05,      /* I =  1 */
(PID.TID 0000.0001)                 1.563594089971120E+05,      /* I =  2 */
(PID.TID 0000.0001)                 1.835530058121492E+05,      /* I =  3 */
(PID.TID 0000.0001)                 2.045883481718707E+05,      /* I =  4 */
(PID.TID 0000.0001)                 2.218350349844185E+05,      /* I =  5 */
(PID.TID 0000.0001)                 2.364352994647058E+05,      /* I =  6 */
(PID.TID 0000.0001)                 2.490022710862746E+05,      /* I =  7 */
(PID.TID 0000.0001)                 2.598919724358304E+05,      /* I =  8 */
(PID.TID 0000.0001)                 2.693210245495156E+05,      /* I =  9 */
(PID.TID 0000.0001)                 2.774243179696503E+05,      /* I = 10 */
(PID.TID 0000.0001)                 2.842862532064524E+05,      /* I = 11 */
(PID.TID 0000.0001)                 2.899590699694043E+05,      /* I = 12 */
(PID.TID 0000.0001)                 2.944742915095688E+05,      /* I = 13 */
(PID.TID 0000.0001)                 2.978501920522794E+05,      /* I = 14 */
(PID.TID 0000.0001)                 3.000967749619962E+05,      /* I = 15 */
(PID.TID 0000.0001)     2 @  3.012190981969055E+05,             /* I = 16: 17 */
(PID.TID 0000.0001)                 3.000967749619962E+05,      /* I = 18 */
(PID.TID 0000.0001)                 2.978501920522794E+05,      /* I = 19 */
(PID.TID 0000.0001)                 2.944742915095688E+05,      /* I = 20 */
(PID.TID 0000.0001)                 2.899590699694043E+05,      /* I = 21 */
(PID.TID 0000.0001)                 2.842862532064524E+05,      /* I = 22 */
(PID.TID 0000.0001)                 2.774243179696503E+05,      /* I = 23 */
(PID.TID 0000.0001)                 2.693210245495156E+05,      /* I = 24 */
(PID.TID 0000.0001)                 2.598919724358304E+05,      /* I = 25 */
(PID.TID 0000.0001)                 2.490022710862746E+05,      /* I = 26 */
(PID.TID 0000.0001)                 2.364352994647058E+05,      /* I = 27 */
(PID.TID 0000.0001)                 2.218350349844185E+05,      /* I = 28 */
(PID.TID 0000.0001)                 2.045883481718707E+05,      /* I = 29 */
(PID.TID 0000.0001)                 1.835530058121492E+05,      /* I = 30 */
(PID.TID 0000.0001)                 1.563594089971120E+05,      /* I = 31 */
(PID.TID 0000.0001)                 1.202082051331828E+05       /* I = 32 */
(PID.TID 0000.0001)     ;
(PID.TID 0000.0001) dxF =  /* dxF(1,:,1,:) ( units: m ) */
(PID.TID 0000.0001)                 1.202082051331828E+05,      /* J =  1 */
(PID.TID 0000.0001)                 1.572908084538706E+05,      /* J =  2 */
(PID.TID 0000.0001)                 1.840412227747703E+05,      /* J =  3 */
(PID.TID 0000.0001)                 2.048868197919576E+05,      /* J =  4 */
(PID.TID 0000.0001)                 2.220405216043041E+05,      /* J =  5 */
(PID.TID 0000.0001)                 2.365892017348392E+05,      /* J =  6 */
(PID.TID 0000.0001)                 2.491250781852558E+05,      /* J =  7 */
(PID.TID 0000.0001)                 2.599949918261881E+05,      /* J =  8 */
(PID.TID 0000.0001)                 2.694110134598581E+05,      /* J =  9 */
(PID.TID 0000.0001)                 2.775055554645015E+05,      /* J = 10 */
(PID.TID 0000.0001)                 2.843615645344775E+05,      /* J = 11 */
(PID.TID 0000.0001)                 2.900303768613599E+05,      /* J = 12 */
(PID.TID 0000.0001)                 2.945429307892709E+05,      /* J = 13 */
(PID.TID 0000.0001)                 2.979171143158405E+05,      /* J = 14 */
(PID.TID 0000.0001)                 3.001626787528886E+05,      /* J = 15 */
(PID.TID 0000.0001)     2 @  3.012844832048790E+05,             /* J = 16: 17 */
(PID.TID 0000.0001)                 3.001626787528886E+05,      /* J = 18 */
(PID.TID 0000.0001)                 2.979171143158405E+05,      /* J = 19 */
(PID.TID 0000.0001)                 2.945429307892709E+05,      /* J = 20 */
(PID.TID 0000.0001)                 2.900303768613599E+05,      /* J = 21 */
(PID.TID 0000.0001)                 2.843615645344775E+05,      /* J = 22 */
(PID.TID 0000.0001)                 2.775055554645015E+05,      /* J = 23 */
(PID.TID 0000.0001)                 2.694110134598581E+05,      /* J = 24 */
(PID.TID 0000.0001)                 2.599949918261881E+05,      /* J = 25 */
(PID.TID 0000.0001)                 2.491250781852558E+05,      /* J = 26 */
(PID.TID 0000.0001)                 2.365892017348392E+05,      /* J = 27 */
(PID.TID 0000.0001)                 2.220405216043041E+05,      /* J = 28 */
(PID.TID 0000.0001)                 2.048868197919576E+05,      /* J = 29 */
(PID.TID 0000.0001)                 1.840412227747703E+05,      /* J = 30 */
(PID.TID 0000.0001)                 1.572908084538706E+05,      /* J = 31 */
(PID.TID 0000.0001)                 1.202082051331828E+05       /* J = 32 */
(PID.TID 0000.0001)     ;
(PID.TID 0000.0001) dyF =  /* dyF(:,1,:,1) ( units: m ) */
(PID.TID 0000.0001)                 1.202082051331828E+05,      /* I =  1 */
(PID.TID 0000.0001)                 1.572908084538706E+05,      /* I =  2 */
(PID.TID 0000.0001)                 1.840412227747703E+05,      /* I =  3 */
(PID.TID 0000.0001)                 2.048868197919576E+05,      /* I =  4 */
(PID.TID 0000.0001)                 2.220405216043041E+05,      /* I =  5 */
(PID.TID 0000.0001)                 2.365892017348392E+05,      /* I =  6 */
(PID.TID 0000.0001)                 2.491250781852558E+05,      /* I =  7 */
(PID.TID 0000.0001)                 2.599949918261881E+05,      /* I =  8 */
(PID.TID 0000.0001)                 2.694110134598581E+05,      /* I =  9 */
(PID.TID 0000.0001)                 2.775055554645015E+05,      /* I = 10 */
(PID.TID 0000.0001)                 2.843615645344775E+05,      /* I = 11 */
(PID.TID 0000.0001)                 2.900303768613599E+05,      /* I = 12 */
(PID.TID 0000.0001)                 2.945429307892709E+05,      /* I = 13 */
(PID.TID 0000.0001)                 2.979171143158405E+05,      /* I = 14 */
(PID.TID 0000.0001)                 3.001626787528886E+05,      /* I = 15 */
(PID.TID 0000.0001)     2 @  3.012844832048790E+05,             /* I = 16: 17 */
(PID.TID 0000.0001)                 3.001626787528886E+05,      /* I = 18 */
(PID.TID 0000.0001)                 2.979171143158405E+05,      /* I = 19 */
(PID.TID 0000.0001)                 2.945429307892709E+05,      /* I = 20 */
(PID.TID 0000.0001)                 2.900303768613599E+05,      /* I = 21 */
(PID.TID 0000.0001)                 2.843615645344775E+05,      /* I = 22 */
(PID.TID 0000.0001)                 2.775055554645015E+05,      /* I = 23 */
(PID.TID 0000.0001)                 2.694110134598581E+05,      /* I = 24 */
(PID.TID 0000.0001)                 2.599949918261881E+05,      /* I = 25 */
(PID.TID 0000.0001)                 2.491250781852558E+05,      /* I = 26 */
(PID.TID 0000.0001)                 2.365892017348392E+05,      /* I = 27 */
(PID.TID 0000.0001)                 2.220405216043041E+05,      /* I = 28 */
(PID.TID 0000.0001)                 2.048868197919576E+05,      /* I = 29 */
(PID.TID 0000.0001)                 1.840412227747703E+05,      /* I = 30 */
(PID.TID 0000.0001)                 1.572908084538706E+05,      /* I = 31 */
(PID.TID 0000.0001)                 1.202082051331828E+05       /* I = 32 */
(PID.TID 0000.0001)     ;
(PID.TID 0000.0001) dyF =  /* dyF(1,:,1,:) ( units: m ) */
(PID.TID 0000.0001)                 1.202082051331828E+05,      /* J =  1 */
(PID.TID 0000.0001)                 1.563594089971120E+05,      /* J =  2 */
(PID.TID 0000.0001)                 1.835530058121492E+05,      /* J =  3 */
(PID.TID 0000.0001)                 2.045883481718707E+05,      /* J =  4 */
(PID.TID 0000.0001)                 2.218350349844185E+05,      /* J =  5 */
(PID.TID 0000.0001)                 2.364352994647058E+05,      /* J =  6 */
(PID.TID 0000.0001)                 2.490022710862746E+05,      /* J =  7 */
(PID.TID 0000.0001)                 2.598919724358304E+05,      /* J =  8 */
(PID.TID 0000.0001)                 2.693210245495156E+05,      /* J =  9 */
(PID.TID 0000.0001)                 2.774243179696503E+05,      /* J = 10 */
(PID.TID 0000.0001)                 2.842862532064524E+05,      /* J = 11 */
(PID.TID 0000.0001)                 2.899590699694043E+05,      /* J = 12 */
(PID.TID 0000.0001)                 2.944742915095688E+05,      /* J = 13 */
(PID.TID 0000.0001)                 2.978501920522794E+05,      /* J = 14 */
(PID.TID 0000.0001)                 3.000967749619962E+05,      /* J = 15 */
(PID.TID 0000.0001)     2 @  3.012190981969055E+05,             /* J = 16: 17 */
(PID.TID 0000.0001)                 3.000967749619962E+05,      /* J = 18 */
(PID.TID 0000.0001)                 2.978501920522794E+05,      /* J = 19 */
(PID.TID 0000.0001)                 2.944742915095688E+05,      /* J = 20 */
(PID.TID 0000.0001)                 2.899590699694043E+05,      /* J = 21 */
(PID.TID 0000.0001)                 2.842862532064524E+05,      /* J = 22 */
(PID.TID 0000.0001)                 2.774243179696503E+05,      /* J = 23 */
(PID.TID 0000.0001)                 2.693210245495156E+05,      /* J = 24 */
(PID.TID 0000.0001)                 2.598919724358304E+05,      /* J = 25 */
(PID.TID 0000.0001)                 2.490022710862746E+05,      /* J = 26 */
(PID.TID 0000.0001)                 2.364352994647058E+05,      /* J = 27 */
(PID.TID 0000.0001)                 2.218350349844185E+05,      /* J = 28 */
(PID.TID 0000.0001)                 2.045883481718707E+05,      /* J = 29 */
(PID.TID 0000.0001)                 1.835530058121492E+05,      /* J = 30 */
(PID.TID 0000.0001)                 1.563594089971120E+05,      /* J = 31 */
(PID.TID 0000.0001)                 1.202082051331828E+05       /* J = 32 */
(PID.TID 0000.0001)     ;
(PID.TID 0000.0001) dxG =  /* dxG(:,1,:,1) ( units: m ) */
(PID.TID 0000.0001)                 1.009837800879055E+05,      /* I =  1 */
(PID.TID 0000.0001)                 1.534505834330338E+05,      /* I =  2 */
(PID.TID 0000.0001)                 1.823321598773926E+05,      /* I =  3 */
(PID.TID 0000.0001)                 2.038999045536999E+05,      /* I =  4 */
(PID.TID 0000.0001)                 2.213884732245467E+05,      /* I =  5 */
(PID.TID 0000.0001)                 2.361211699596122E+05,      /* I =  6 */
(PID.TID 0000.0001)                 2.487693460283865E+05,      /* I =  7 */
(PID.TID 0000.0001)                 2.597126963772147E+05,      /* I =  8 */
(PID.TID 0000.0001)                 2.691790288994575E+05,      /* I =  9 */
(PID.TID 0000.0001)                 2.773091043277394E+05,      /* I = 10 */
(PID.TID 0000.0001)                 2.841906470085516E+05,      /* I = 11 */
(PID.TID 0000.0001)                 2.898778860929753E+05,      /* I = 12 */
(PID.TID 0000.0001)                 2.944035815526416E+05,      /* I = 13 */
(PID.TID 0000.0001)                 2.977867909042096E+05,      /* I = 14 */
(PID.TID 0000.0001)                 3.000380090330854E+05,      /* I = 15 */
(PID.TID 0000.0001)     2 @  3.011625828699101E+05,             /* I = 16: 17 */
(PID.TID 0000.0001)                 3.000380090330854E+05,      /* I = 18 */
(PID.TID 0000.0001)                 2.977867909042096E+05,      /* I = 19 */
(PID.TID 0000.0001)                 2.944035815526416E+05,      /* I = 20 */
(PID.TID 0000.0001)                 2.898778860929753E+05,      /* I = 21 */
(PID.TID 0000.0001)                 2.841906470085516E+05,      /* I = 22 */
(PID.TID 0000.0001)                 2.773091043277394E+05,      /* I = 23 */
(PID.TID 0000.0001)                 2.691790288994575E+05,      /* I = 24 */
(PID.TID 0000.0001)                 2.597126963772147E+05,      /* I = 25 */
(PID.TID 0000.0001)                 2.487693460283865E+05,      /* I = 26 */
(PID.TID 0000.0001)                 2.361211699596122E+05,      /* I = 27 */
(PID.TID 0000.0001)                 2.213884732245467E+05,      /* I = 28 */
(PID.TID 0000.0001)                 2.038999045536999E+05,      /* I = 29 */
(PID.TID 0000.0001)                 1.823321598773926E+05,      /* I = 30 */
(PID.TID 0000.0001)                 1.534505834330338E+05,      /* I = 31 */
(PID.TID 0000.0001)                 1.009837800879055E+05       /* I = 32 */
(PID.TID 0000.0001)     ;
(PID.TID 0000.0001) dxG =  /* dxG(1,:,1,:) ( units: m ) */
(PID.TID 0000.0001)                 1.009837800879055E+05,      /* J =  1 */
(PID.TID 0000.0001)                 1.403701524205398E+05,      /* J =  2 */
(PID.TID 0000.0001)                 1.716197227386011E+05,      /* J =  3 */
(PID.TID 0000.0001)                 1.950254041626018E+05,      /* J =  4 */
(PID.TID 0000.0001)                 2.138410773065497E+05,      /* J =  5 */
(PID.TID 0000.0001)                 2.295958105911512E+05,      /* J =  6 */
(PID.TID 0000.0001)                 2.430829951739083E+05,      /* J =  7 */
(PID.TID 0000.0001)                 2.547526806712889E+05,      /* J =  8 */
(PID.TID 0000.0001)                 2.648750305193301E+05,      /* J =  9 */
(PID.TID 0000.0001)                 2.736173771018112E+05,      /* J = 10 */
(PID.TID 0000.0001)                 2.810845823202647E+05,      /* J = 11 */
(PID.TID 0000.0001)                 2.873420591008078E+05,      /* J = 12 */
(PID.TID 0000.0001)                 2.924298293668651E+05,      /* J = 13 */
(PID.TID 0000.0001)                 2.963715635865306E+05,      /* J = 14 */
(PID.TID 0000.0001)                 2.991805843171258E+05,      /* J = 15 */
(PID.TID 0000.0001)                 3.008638765647886E+05,      /* J = 16 */
(PID.TID 0000.0001)                 3.014246674484008E+05,      /* J = 17 */
(PID.TID 0000.0001)                 3.008638765647886E+05,      /* J = 18 */
(PID.TID 0000.0001)                 2.991805843171258E+05,      /* J = 19 */
(PID.TID 0000.0001)                 2.963715635865306E+05,      /* J = 20 */
(PID.TID 0000.0001)                 2.924298293668651E+05,      /* J = 21 */
(PID.TID 0000.0001)                 2.873420591008078E+05,      /* J = 22 */
(PID.TID 0000.0001)                 2.810845823202647E+05,      /* J = 23 */
(PID.TID 0000.0001)                 2.736173771018112E+05,      /* J = 24 */
(PID.TID 0000.0001)                 2.648750305193301E+05,      /* J = 25 */
(PID.TID 0000.0001)                 2.547526806712889E+05,      /* J = 26 */
(PID.TID 0000.0001)                 2.430829951739083E+05,      /* J = 27 */
(PID.TID 0000.0001)                 2.295958105911512E+05,      /* J = 28 */
(PID.TID 0000.0001)                 2.138410773065497E+05,      /* J = 29 */
(PID.TID 0000.0001)                 1.950254041626018E+05,      /* J = 30 */
(PID.TID 0000.0001)                 1.716197227386011E+05,      /* J = 31 */
(PID.TID 0000.0001)                 1.403701524205398E+05       /* J = 32 */
(PID.TID 0000.0001)     ;
(PID.TID 0000.0001) dyG =  /* dyG(:,1,:,1) ( units: m ) */
(PID.TID 0000.0001)                 1.009837800879055E+05,      /* I =  1 */
(PID.TID 0000.0001)                 1.403701524205398E+05,      /* I =  2 */
(PID.TID 0000.0001)                 1.716197227386011E+05,      /* I =  3 */
(PID.TID 0000.0001)                 1.950254041626018E+05,      /* I =  4 */
(PID.TID 0000.0001)                 2.138410773065497E+05,      /* I =  5 */
(PID.TID 0000.0001)                 2.295958105911512E+05,      /* I =  6 */
(PID.TID 0000.0001)                 2.430829951739083E+05,      /* I =  7 */
(PID.TID 0000.0001)                 2.547526806712889E+05,      /* I =  8 */
(PID.TID 0000.0001)                 2.648750305193301E+05,      /* I =  9 */
(PID.TID 0000.0001)                 2.736173771018112E+05,      /* I = 10 */
(PID.TID 0000.0001)                 2.810845823202647E+05,      /* I = 11 */
(PID.TID 0000.0001)                 2.873420591008078E+05,      /* I = 12 */
(PID.TID 0000.0001)                 2.924298293668651E+05,      /* I = 13 */
(PID.TID 0000.0001)                 2.963715635865306E+05,      /* I = 14 */
(PID.TID 0000.0001)                 2.991805843171258E+05,      /* I = 15 */
(PID.TID 0000.0001)                 3.008638765647886E+05,      /* I = 16 */
(PID.TID 0000.0001)                 3.014246674484008E+05,      /* I = 17 */
(PID.TID 0000.0001)                 3.008638765647886E+05,      /* I = 18 */
(PID.TID 0000.0001)                 2.991805843171258E+05,      /* I = 19 */
(PID.TID 0000.0001)                 2.963715635865306E+05,      /* I = 20 */
(PID.TID 0000.0001)                 2.924298293668651E+05,      /* I = 21 */
(PID.TID 0000.0001)                 2.873420591008078E+05,      /* I = 22 */
(PID.TID 0000.0001)                 2.810845823202647E+05,      /* I = 23 */
(PID.TID 0000.0001)                 2.736173771018112E+05,      /* I = 24 */
(PID.TID 0000.0001)                 2.648750305193301E+05,      /* I = 25 */
(PID.TID 0000.0001)                 2.547526806712889E+05,      /* I = 26 */
(PID.TID 0000.0001)                 2.430829951739083E+05,      /* I = 27 */
(PID.TID 0000.0001)                 2.295958105911512E+05,      /* I = 28 */
(PID.TID 0000.0001)                 2.138410773065497E+05,      /* I = 29 */
(PID.TID 0000.0001)                 1.950254041626018E+05,      /* I = 30 */
(PID.TID 0000.0001)                 1.716197227386011E+05,      /* I = 31 */
(PID.TID 0000.0001)                 1.403701524205398E+05       /* I = 32 */
(PID.TID 0000.0001)     ;
(PID.TID 0000.0001) dyG =  /* dyG(1,:,1,:) ( units: m ) */
(PID.TID 0000.0001)                 1.009837800879055E+05,      /* J =  1 */
(PID.TID 0000.0001)                 1.534505834330338E+05,      /* J =  2 */
(PID.TID 0000.0001)                 1.823321598773926E+05,      /* J =  3 */
(PID.TID 0000.0001)                 2.038999045536999E+05,      /* J =  4 */
(PID.TID 0000.0001)                 2.213884732245467E+05,      /* J =  5 */
(PID.TID 0000.0001)                 2.361211699596122E+05,      /* J =  6 */
(PID.TID 0000.0001)                 2.487693460283865E+05,      /* J =  7 */
(PID.TID 0000.0001)                 2.597126963772147E+05,      /* J =  8 */
(PID.TID 0000.0001)                 2.691790288994575E+05,      /* J =  9 */
(PID.TID 0000.0001)                 2.773091043277394E+05,      /* J = 10 */
(PID.TID 0000.0001)                 2.841906470085516E+05,      /* J = 11 */
(PID.TID 0000.0001)                 2.898778860929753E+05,      /* J = 12 */
(PID.TID 0000.0001)                 2.944035815526416E+05,      /* J = 13 */
(PID.TID 0000.0001)                 2.977867909042096E+05,      /* J = 14 */
(PID.TID 0000.0001)                 3.000380090330854E+05,      /* J = 15 */
(PID.TID 0000.0001)     2 @  3.011625828699101E+05,             /* J = 16: 17 */
(PID.TID 0000.0001)                 3.000380090330854E+05,      /* J = 18 */
(PID.TID 0000.0001)                 2.977867909042096E+05,      /* J = 19 */
(PID.TID 0000.0001)                 2.944035815526416E+05,      /* J = 20 */
(PID.TID 0000.0001)                 2.898778860929753E+05,      /* J = 21 */
(PID.TID 0000.0001)                 2.841906470085516E+05,      /* J = 22 */
(PID.TID 0000.0001)                 2.773091043277394E+05,      /* J = 23 */
(PID.TID 0000.0001)                 2.691790288994575E+05,      /* J = 24 */
(PID.TID 0000.0001)                 2.597126963772147E+05,      /* J = 25 */
(PID.TID 0000.0001)                 2.487693460283865E+05,      /* J = 26 */
(PID.TID 0000.0001)                 2.361211699596122E+05,      /* J = 27 */
(PID.TID 0000.0001)                 2.213884732245467E+05,      /* J = 28 */
(PID.TID 0000.0001)                 2.038999045536999E+05,      /* J = 29 */
(PID.TID 0000.0001)                 1.823321598773926E+05,      /* J = 30 */
(PID.TID 0000.0001)                 1.534505834330338E+05,      /* J = 31 */
(PID.TID 0000.0001)                 1.009837800879055E+05       /* J = 32 */
(PID.TID 0000.0001)     ;
(PID.TID 0000.0001) dxC =  /* dxC(:,1,:,1) ( units: m ) */
(PID.TID 0000.0001)                 1.114203141013064E+05,      /* I =  1 */
(PID.TID 0000.0001)                 1.391343389937106E+05,      /* I =  2 */
(PID.TID 0000.0001)                 1.709574999026266E+05,      /* I =  3 */
(PID.TID 0000.0001)                 1.946503699269892E+05,      /* I =  4 */
(PID.TID 0000.0001)                 2.135964483342134E+05,      /* I =  5 */
(PID.TID 0000.0001)                 2.294195678257306E+05,      /* I =  6 */
(PID.TID 0000.0001)                 2.429464709770498E+05,      /* I =  7 */
(PID.TID 0000.0001)                 2.546408290696998E+05,      /* I =  8 */
(PID.TID 0000.0001)                 2.647791839299727E+05,      /* I =  9 */
(PID.TID 0000.0001)                 2.735321911346108E+05,      /* I = 10 */
(PID.TID 0000.0001)                 2.810065951609633E+05,      /* I = 11 */
(PID.TID 0000.0001)                 2.872689479506990E+05,      /* I = 12 */
(PID.TID 0000.0001)                 2.923599955312932E+05,      /* I = 13 */
(PID.TID 0000.0001)                 2.963038832565530E+05,      /* I = 14 */
(PID.TID 0000.0001)                 2.991142470004740E+05,      /* I = 15 */
(PID.TID 0000.0001)                 3.007982711627968E+05,      /* I = 16 */
(PID.TID 0000.0001)                 3.013593857228136E+05,      /* I = 17 */
(PID.TID 0000.0001)                 3.007982711627968E+05,      /* I = 18 */
(PID.TID 0000.0001)                 2.991142470004740E+05,      /* I = 19 */
(PID.TID 0000.0001)                 2.963038832565530E+05,      /* I = 20 */
(PID.TID 0000.0001)                 2.923599955312932E+05,      /* I = 21 */
(PID.TID 0000.0001)                 2.872689479506990E+05,      /* I = 22 */
(PID.TID 0000.0001)                 2.810065951609633E+05,      /* I = 23 */
(PID.TID 0000.0001)                 2.735321911346108E+05,      /* I = 24 */
(PID.TID 0000.0001)                 2.647791839299727E+05,      /* I = 25 */
(PID.TID 0000.0001)                 2.546408290696998E+05,      /* I = 26 */
(PID.TID 0000.0001)                 2.429464709770498E+05,      /* I = 27 */
(PID.TID 0000.0001)                 2.294195678257306E+05,      /* I = 28 */
(PID.TID 0000.0001)                 2.135964483342134E+05,      /* I = 29 */
(PID.TID 0000.0001)                 1.946503699269892E+05,      /* I = 30 */
(PID.TID 0000.0001)                 1.709574999026266E+05,      /* I = 31 */
(PID.TID 0000.0001)                 1.391343389937106E+05       /* I = 32 */
(PID.TID 0000.0001)     ;
(PID.TID 0000.0001) dxC =  /* dxC(1,:,1,:) ( units: m ) */
(PID.TID 0000.0001)                 1.114203141013064E+05,      /* J =  1 */
(PID.TID 0000.0001)                 1.549545757850771E+05,      /* J =  2 */
(PID.TID 0000.0001)                 1.829777599966776E+05,      /* J =  3 */
(PID.TID 0000.0001)                 2.042717761866506E+05,      /* J =  4 */
(PID.TID 0000.0001)                 2.216367828252819E+05,      /* J =  5 */
(PID.TID 0000.0001)                 2.363029564123586E+05,      /* J =  6 */
(PID.TID 0000.0001)                 2.489113743322025E+05,      /* J =  7 */
(PID.TID 0000.0001)                 2.598293319150326E+05,      /* J =  8 */
(PID.TID 0000.0001)                 2.692787333338535E+05,      /* J =  9 */
(PID.TID 0000.0001)                 2.773972106720365E+05,      /* J = 10 */
(PID.TID 0000.0001)                 2.842706922224557E+05,      /* J = 11 */
(PID.TID 0000.0001)                 2.899523122489403E+05,      /* J = 12 */
(PID.TID 0000.0001)                 2.944741346384699E+05,      /* J = 13 */
(PID.TID 0000.0001)                 2.978547649292580E+05,      /* J = 14 */
(PID.TID 0000.0001)                 3.001044073506459E+05,      /* J = 15 */
(PID.TID 0000.0001)     2 @  3.012281885409289E+05,             /* J = 16: 17 */
(PID.TID 0000.0001)                 3.001044073506459E+05,      /* J = 18 */
(PID.TID 0000.0001)                 2.978547649292580E+05,      /* J = 19 */
(PID.TID 0000.0001)                 2.944741346384699E+05,      /* J = 20 */
(PID.TID 0000.0001)                 2.899523122489403E+05,      /* J = 21 */
(PID.TID 0000.0001)                 2.842706922224557E+05,      /* J = 22 */
(PID.TID 0000.0001)                 2.773972106720365E+05,      /* J = 23 */
(PID.TID 0000.0001)                 2.692787333338535E+05,      /* J = 24 */
(PID.TID 0000.0001)                 2.598293319150326E+05,      /* J = 25 */
(PID.TID 0000.0001)                 2.489113743322025E+05,      /* J = 26 */
(PID.TID 0000.0001)                 2.363029564123586E+05,      /* J = 27 */
(PID.TID 0000.0001)                 2.216367828252819E+05,      /* J = 28 */
(PID.TID 0000.0001)                 2.042717761866506E+05,      /* J = 29 */
(PID.TID 0000.0001)                 1.829777599966776E+05,      /* J = 30 */
(PID.TID 0000.0001)                 1.549545757850771E+05,      /* J = 31 */
(PID.TID 0000.0001)                 1.114203141013064E+05       /* J = 32 */
(PID.TID 0000.0001)     ;
(PID.TID 0000.0001) dyC =  /* dyC(:,1,:,1) ( units: m ) */
(PID.TID 0000.0001)                 1.114203141013064E+05,      /* I =  1 */
(PID.TID 0000.0001)                 1.549545757850771E+05,      /* I =  2 */
(PID.TID 0000.0001)                 1.829777599966776E+05,      /* I =  3 */
(PID.TID 0000.0001)                 2.042717761866506E+05,      /* I =  4 */
(PID.TID 0000.0001)                 2.216367828252819E+05,      /* I =  5 */
(PID.TID 0000.0001)                 2.363029564123586E+05,      /* I =  6 */
(PID.TID 0000.0001)                 2.489113743322025E+05,      /* I =  7 */
(PID.TID 0000.0001)                 2.598293319150326E+05,      /* I =  8 */
(PID.TID 0000.0001)                 2.692787333338535E+05,      /* I =  9 */
(PID.TID 0000.0001)                 2.773972106720365E+05,      /* I = 10 */
(PID.TID 0000.0001)                 2.842706922224557E+05,      /* I = 11 */
(PID.TID 0000.0001)                 2.899523122489403E+05,      /* I = 12 */
(PID.TID 0000.0001)                 2.944741346384699E+05,      /* I = 13 */
(PID.TID 0000.0001)                 2.978547649292580E+05,      /* I = 14 */
(PID.TID 0000.0001)                 3.001044073506459E+05,      /* I = 15 */
(PID.TID 0000.0001)     2 @  3.012281885409289E+05,             /* I = 16: 17 */
(PID.TID 0000.0001)                 3.001044073506459E+05,      /* I = 18 */
(PID.TID 0000.0001)                 2.978547649292580E+05,      /* I = 19 */
(PID.TID 0000.0001)                 2.944741346384699E+05,      /* I = 20 */
(PID.TID 0000.0001)                 2.899523122489403E+05,      /* I = 21 */
(PID.TID 0000.0001)                 2.842706922224557E+05,      /* I = 22 */
(PID.TID 0000.0001)                 2.773972106720365E+05,      /* I = 23 */
(PID.TID 0000.0001)                 2.692787333338535E+05,      /* I = 24 */
(PID.TID 0000.0001)                 2.598293319150326E+05,      /* I = 25 */
(PID.TID 0000.0001)                 2.489113743322025E+05,      /* I = 26 */
(PID.TID 0000.0001)                 2.363029564123586E+05,      /* I = 27 */
(PID.TID 0000.0001)                 2.216367828252819E+05,      /* I = 28 */
(PID.TID 0000.0001)                 2.042717761866506E+05,      /* I = 29 */
(PID.TID 0000.0001)                 1.829777599966776E+05,      /* I = 30 */
(PID.TID 0000.0001)                 1.549545757850771E+05,      /* I = 31 */
(PID.TID 0000.0001)                 1.114203141013064E+05       /* I = 32 */
(PID.TID 0000.0001)     ;
(PID.TID 0000.0001) dyC =  /* dyC(1,:,1,:) ( units: m ) */
(PID.TID 0000.0001)                 1.114203141013064E+05,      /* J =  1 */
(PID.TID 0000.0001)                 1.391343389937106E+05,      /* J =  2 */
(PID.TID 0000.0001)                 1.709574999026266E+05,      /* J =  3 */
(PID.TID 0000.0001)                 1.946503699269892E+05,      /* J =  4 */
(PID.TID 0000.0001)                 2.135964483342134E+05,      /* J =  5 */
(PID.TID 0000.0001)                 2.294195678257306E+05,      /* J =  6 */
(PID.TID 0000.0001)                 2.429464709770498E+05,      /* J =  7 */
(PID.TID 0000.0001)                 2.546408290696998E+05,      /* J =  8 */
(PID.TID 0000.0001)                 2.647791839299727E+05,      /* J =  9 */
(PID.TID 0000.0001)                 2.735321911346108E+05,      /* J = 10 */
(PID.TID 0000.0001)                 2.810065951609633E+05,      /* J = 11 */
(PID.TID 0000.0001)                 2.872689479506990E+05,      /* J = 12 */
(PID.TID 0000.0001)                 2.923599955312932E+05,      /* J = 13 */
(PID.TID 0000.0001)                 2.963038832565530E+05,      /* J = 14 */
(PID.TID 0000.0001)                 2.991142470004740E+05,      /* J = 15 */
(PID.TID 0000.0001)                 3.007982711627968E+05,      /* J = 16 */
(PID.TID 0000.0001)                 3.013593857228136E+05,      /* J = 17 */
(PID.TID 0000.0001)                 3.007982711627968E+05,      /* J = 18 */
(PID.TID 0000.0001)                 2.991142470004740E+05,      /* J = 19 */
(PID.TID 0000.0001)                 2.963038832565530E+05,      /* J = 20 */
(PID.TID 0000.0001)                 2.923599955312932E+05,      /* J = 21 */
(PID.TID 0000.0001)                 2.872689479506990E+05,      /* J = 22 */
(PID.TID 0000.0001)                 2.810065951609633E+05,      /* J = 23 */
(PID.TID 0000.0001)                 2.735321911346108E+05,      /* J = 24 */
(PID.TID 0000.0001)                 2.647791839299727E+05,      /* J = 25 */
(PID.TID 0000.0001)                 2.546408290696998E+05,      /* J = 26 */
(PID.TID 0000.0001)                 2.429464709770498E+05,      /* J = 27 */
(PID.TID 0000.0001)                 2.294195678257306E+05,      /* J = 28 */
(PID.TID 0000.0001)                 2.135964483342134E+05,      /* J = 29 */
(PID.TID 0000.0001)                 1.946503699269892E+05,      /* J = 30 */
(PID.TID 0000.0001)                 1.709574999026266E+05,      /* J = 31 */
(PID.TID 0000.0001)                 1.391343389937106E+05       /* J = 32 */
(PID.TID 0000.0001)     ;
(PID.TID 0000.0001) dxV =  /* dxV(:,1,:,1) ( units: m ) */
(PID.TID 0000.0001)                 8.015229982413632E+04,      /* I =  1 */
(PID.TID 0000.0001)                 1.333130744933864E+05,      /* I =  2 */
(PID.TID 0000.0001)                 1.691744868129062E+05,      /* I =  3 */
(PID.TID 0000.0001)                 1.937548202849060E+05,      /* I =  4 */
(PID.TID 0000.0001)                 2.130490056267208E+05,      /* I =  5 */
(PID.TID 0000.0001)                 2.290479919481738E+05,      /* I =  6 */
(PID.TID 0000.0001)                 2.426774358027003E+05,      /* I =  7 */
(PID.TID 0000.0001)                 2.544372984215561E+05,      /* I =  8 */
(PID.TID 0000.0001)                 2.646201463834826E+05,      /* I =  9 */
(PID.TID 0000.0001)                 2.734046499619031E+05,      /* I = 10 */
(PID.TID 0000.0001)                 2.809019351693761E+05,      /* I = 11 */
(PID.TID 0000.0001)                 2.871811105274442E+05,      /* I = 12 */
(PID.TID 0000.0001)                 2.922844849381675E+05,      /* I = 13 */
(PID.TID 0000.0001)                 2.962371870847826E+05,      /* I = 14 */
(PID.TID 0000.0001)                 2.990534755671296E+05,      /* I = 15 */
(PID.TID 0000.0001)                 3.007409169495504E+05,      /* I = 16 */
(PID.TID 0000.0001)                 3.013031486919771E+05,      /* I = 17 */
(PID.TID 0000.0001)                 3.007409169495504E+05,      /* I = 18 */
(PID.TID 0000.0001)                 2.990534755671296E+05,      /* I = 19 */
(PID.TID 0000.0001)                 2.962371870847826E+05,      /* I = 20 */
(PID.TID 0000.0001)                 2.922844849381675E+05,      /* I = 21 */
(PID.TID 0000.0001)                 2.871811105274442E+05,      /* I = 22 */
(PID.TID 0000.0001)                 2.809019351693761E+05,      /* I = 23 */
(PID.TID 0000.0001)                 2.734046499619031E+05,      /* I = 24 */
(PID.TID 0000.0001)                 2.646201463834826E+05,      /* I = 25 */
(PID.TID 0000.0001)                 2.544372984215561E+05,      /* I = 26 */
(PID.TID 0000.0001)                 2.426774358027003E+05,      /* I = 27 */
(PID.TID 0000.0001)                 2.290479919481738E+05,      /* I = 28 */
(PID.TID 0000.0001)                 2.130490056267208E+05,      /* I = 29 */
(PID.TID 0000.0001)                 1.937548202849060E+05,      /* I = 30 */
(PID.TID 0000.0001)                 1.691744868129062E+05,      /* I = 31 */
(PID.TID 0000.0001)                 1.333130744933864E+05       /* I = 32 */
(PID.TID 0000.0001)     ;
(PID.TID 0000.0001) dxV =  /* dxV(1,:,1,:) ( units: m ) */
(PID.TID 0000.0001)                 8.015229982413632E+04,      /* J =  1 */
(PID.TID 0000.0001)                 1.362652340208229E+05,      /* J =  2 */
(PID.TID 0000.0001)                 1.701080315742101E+05,      /* J =  3 */
(PID.TID 0000.0001)                 1.942331448101592E+05,      /* J =  4 */
(PID.TID 0000.0001)                 2.133486626971531E+05,      /* J =  5 */
(PID.TID 0000.0001)                 2.292584591272880E+05,      /* J =  6 */
(PID.TID 0000.0001)                 2.428369969078989E+05,      /* J =  7 */
(PID.TID 0000.0001)                 2.545652950875683E+05,      /* J =  8 */
(PID.TID 0000.0001)                 2.647274964828301E+05,      /* J =  9 */
(PID.TID 0000.0001)                 2.734980225206389E+05,      /* J = 10 */
(PID.TID 0000.0001)                 2.809856491525217E+05,      /* J = 11 */
(PID.TID 0000.0001)                 2.872580915202295E+05,      /* J = 12 */
(PID.TID 0000.0001)                 2.923567890694162E+05,      /* J = 13 */
(PID.TID 0000.0001)                 2.963063101754721E+05,      /* J = 14 */
(PID.TID 0000.0001)                 2.991205495886625E+05,      /* J = 15 */
(PID.TID 0000.0001)                 3.008068453676764E+05,      /* J = 16 */
(PID.TID 0000.0001)                 3.013686170436881E+05,      /* J = 17 */
(PID.TID 0000.0001)                 3.008068453676764E+05,      /* J = 18 */
(PID.TID 0000.0001)                 2.991205495886625E+05,      /* J = 19 */
(PID.TID 0000.0001)                 2.963063101754721E+05,      /* J = 20 */
(PID.TID 0000.0001)                 2.923567890694162E+05,      /* J = 21 */
(PID.TID 0000.0001)                 2.872580915202295E+05,      /* J = 22 */
(PID.TID 0000.0001)                 2.809856491525217E+05,      /* J = 23 */
(PID.TID 0000.0001)                 2.734980225206389E+05,      /* J = 24 */
(PID.TID 0000.0001)                 2.647274964828301E+05,      /* J = 25 */
(PID.TID 0000.0001)                 2.545652950875683E+05,      /* J = 26 */
(PID.TID 0000.0001)                 2.428369969078989E+05,      /* J = 27 */
(PID.TID 0000.0001)                 2.292584591272880E+05,      /* J = 28 */
(PID.TID 0000.0001)                 2.133486626971531E+05,      /* J = 29 */
(PID.TID 0000.0001)                 1.942331448101592E+05,      /* J = 30 */
(PID.TID 0000.0001)                 1.701080315742101E+05,      /* J = 31 */
(PID.TID 0000.0001)                 1.362652340208229E+05       /* J = 32 */
(PID.TID 0000.0001)     ;
(PID.TID 0000.0001) dyU =  /* dyU(:,1,:,1) ( units: m ) */
(PID.TID 0000.0001)                 8.015229982413632E+04,      /* I =  1 */
(PID.TID 0000.0001)                 1.362652340208229E+05,      /* I =  2 */
(PID.TID 0000.0001)                 1.701080315742101E+05,      /* I =  3 */
(PID.TID 0000.0001)                 1.942331448101592E+05,      /* I =  4 */
(PID.TID 0000.0001)                 2.133486626971531E+05,      /* I =  5 */
(PID.TID 0000.0001)                 2.292584591272880E+05,      /* I =  6 */
(PID.TID 0000.0001)                 2.428369969078989E+05,      /* I =  7 */
(PID.TID 0000.0001)                 2.545652950875683E+05,      /* I =  8 */
(PID.TID 0000.0001)                 2.647274964828301E+05,      /* I =  9 */
(PID.TID 0000.0001)                 2.734980225206389E+05,      /* I = 10 */
(PID.TID 0000.0001)                 2.809856491525217E+05,      /* I = 11 */
(PID.TID 0000.0001)                 2.872580915202295E+05,      /* I = 12 */
(PID.TID 0000.0001)                 2.923567890694162E+05,      /* I = 13 */
(PID.TID 0000.0001)                 2.963063101754721E+05,      /* I = 14 */
(PID.TID 0000.0001)                 2.991205495886625E+05,      /* I = 15 */
(PID.TID 0000.0001)                 3.008068453676764E+05,      /* I = 16 */
(PID.TID 0000.0001)                 3.013686170436881E+05,      /* I = 17 */
(PID.TID 0000.0001)                 3.008068453676764E+05,      /* I = 18 */
(PID.TID 0000.0001)                 2.991205495886625E+05,      /* I = 19 */
(PID.TID 0000.0001)                 2.963063101754721E+05,      /* I = 20 */
(PID.TID 0000.0001)                 2.923567890694162E+05,      /* I = 21 */
(PID.TID 0000.0001)                 2.872580915202295E+05,      /* I = 22 */
(PID.TID 0000.0001)                 2.809856491525217E+05,      /* I = 23 */
(PID.TID 0000.0001)                 2.734980225206389E+05,      /* I = 24 */
(PID.TID 0000.0001)                 2.647274964828301E+05,      /* I = 25 */
(PID.TID 0000.0001)                 2.545652950875683E+05,      /* I = 26 */
(PID.TID 0000.0001)                 2.428369969078989E+05,      /* I = 27 */
(PID.TID 0000.0001)                 2.292584591272880E+05,      /* I = 28 */
(PID.TID 0000.0001)                 2.133486626971531E+05,      /* I = 29 */
(PID.TID 0000.0001)                 1.942331448101592E+05,      /* I = 30 */
(PID.TID 0000.0001)                 1.701080315742101E+05,      /* I = 31 */
(PID.TID 0000.0001)                 1.362652340208229E+05       /* I = 32 */
(PID.TID 0000.0001)     ;
(PID.TID 0000.0001) dyU =  /* dyU(1,:,1,:) ( units: m ) */
(PID.TID 0000.0001)                 8.015229982413632E+04,      /* J =  1 */
(PID.TID 0000.0001)                 1.333130744933864E+05,      /* J =  2 */
(PID.TID 0000.0001)                 1.691744868129062E+05,      /* J =  3 */
(PID.TID 0000.0001)                 1.937548202849060E+05,      /* J =  4 */
(PID.TID 0000.0001)                 2.130490056267208E+05,      /* J =  5 */
(PID.TID 0000.0001)                 2.290479919481738E+05,      /* J =  6 */
(PID.TID 0000.0001)                 2.426774358027003E+05,      /* J =  7 */
(PID.TID 0000.0001)                 2.544372984215561E+05,      /* J =  8 */
(PID.TID 0000.0001)                 2.646201463834826E+05,      /* J =  9 */
(PID.TID 0000.0001)                 2.734046499619031E+05,      /* J = 10 */
(PID.TID 0000.0001)                 2.809019351693761E+05,      /* J = 11 */
(PID.TID 0000.0001)                 2.871811105274442E+05,      /* J = 12 */
(PID.TID 0000.0001)                 2.922844849381675E+05,      /* J = 13 */
(PID.TID 0000.0001)                 2.962371870847826E+05,      /* J = 14 */
(PID.TID 0000.0001)                 2.990534755671296E+05,      /* J = 15 */
(PID.TID 0000.0001)                 3.007409169495504E+05,      /* J = 16 */
(PID.TID 0000.0001)                 3.013031486919771E+05,      /* J = 17 */
(PID.TID 0000.0001)                 3.007409169495504E+05,      /* J = 18 */
(PID.TID 0000.0001)                 2.990534755671296E+05,      /* J = 19 */
(PID.TID 0000.0001)                 2.962371870847826E+05,      /* J = 20 */
(PID.TID 0000.0001)                 2.922844849381675E+05,      /* J = 21 */
(PID.TID 0000.0001)                 2.871811105274442E+05,      /* J = 22 */
(PID.TID 0000.0001)                 2.809019351693761E+05,      /* J = 23 */
(PID.TID 0000.0001)                 2.734046499619031E+05,      /* J = 24 */
(PID.TID 0000.0001)                 2.646201463834826E+05,      /* J = 25 */
(PID.TID 0000.0001)                 2.544372984215561E+05,      /* J = 26 */
(PID.TID 0000.0001)                 2.426774358027003E+05,      /* J = 27 */
(PID.TID 0000.0001)                 2.290479919481738E+05,      /* J = 28 */
(PID.TID 0000.0001)                 2.130490056267208E+05,      /* J = 29 */
(PID.TID 0000.0001)                 1.937548202849060E+05,      /* J = 30 */
(PID.TID 0000.0001)                 1.691744868129062E+05,      /* J = 31 */
(PID.TID 0000.0001)                 1.333130744933864E+05       /* J = 32 */
(PID.TID 0000.0001)     ;
(PID.TID 0000.0001) rA  =  /* rA (:,1,:,1) ( units: m^2 ) */
(PID.TID 0000.0001)                 1.401900702255611E+10,      /* I =  1 */
(PID.TID 0000.0001)                 2.459906945574446E+10,      /* I =  2 */
(PID.TID 0000.0001)                 3.378518544307869E+10,      /* I =  3 */
(PID.TID 0000.0001)                 4.192037169898667E+10,      /* I =  4 */
(PID.TID 0000.0001)                 4.925938996118163E+10,      /* I =  5 */
(PID.TID 0000.0001)                 5.594154126607553E+10,      /* I =  6 */
(PID.TID 0000.0001)                 6.203683527772523E+10,      /* I =  7 */
(PID.TID 0000.0001)                 6.757541173817516E+10,      /* I =  8 */
(PID.TID 0000.0001)                 7.256353271748119E+10,      /* I =  9 */
(PID.TID 0000.0001)                 7.699293007098555E+10,      /* I = 10 */
(PID.TID 0000.0001)                 8.084683449728902E+10,      /* I = 11 */
(PID.TID 0000.0001)                 8.410423102796223E+10,      /* I = 12 */
(PID.TID 0000.0001)                 8.674306976737517E+10,      /* I = 13 */
(PID.TID 0000.0001)                 8.874277443041928E+10,      /* I = 14 */
(PID.TID 0000.0001)                 9.008620045350865E+10,      /* I = 15 */
(PID.TID 0000.0001)                 9.076111290418457E+10,      /* I = 16 */
(PID.TID 0000.0001)                 9.076111290422060E+10,      /* I = 17 */
(PID.TID 0000.0001)                 9.008620045354469E+10,      /* I = 18 */
(PID.TID 0000.0001)                 8.874277443041928E+10,      /* I = 19 */
(PID.TID 0000.0001)                 8.674306976741121E+10,      /* I = 20 */
(PID.TID 0000.0001)                 8.410423102799828E+10,      /* I = 21 */
(PID.TID 0000.0001)                 8.084683449728902E+10,      /* I = 22 */
(PID.TID 0000.0001)                 7.699293007098555E+10,      /* I = 23 */
(PID.TID 0000.0001)                 7.256353271748119E+10,      /* I = 24 */
(PID.TID 0000.0001)                 6.757541173817516E+10,      /* I = 25 */
(PID.TID 0000.0001)                 6.203683527772523E+10,      /* I = 26 */
(PID.TID 0000.0001)                 5.594154126611156E+10,      /* I = 27 */
(PID.TID 0000.0001)                 4.925938996118163E+10,      /* I = 28 */
(PID.TID 0000.0001)                 4.192037169898667E+10,      /* I = 29 */
(PID.TID 0000.0001)                 3.378518544304265E+10,      /* I = 30 */
(PID.TID 0000.0001)                 2.459906945574446E+10,      /* I = 31 */
(PID.TID 0000.0001)                 1.401900702259215E+10       /* I = 32 */
(PID.TID 0000.0001)     ;
(PID.TID 0000.0001) rA  =  /* rA (1,:,1,:) ( units: m^2 ) */
(PID.TID 0000.0001)                 1.401900702255611E+10,      /* J =  1 */
(PID.TID 0000.0001)                 2.459906945574446E+10,      /* J =  2 */
(PID.TID 0000.0001)                 3.378518544307869E+10,      /* J =  3 */
(PID.TID 0000.0001)                 4.192037169898667E+10,      /* J =  4 */
(PID.TID 0000.0001)                 4.925938996118163E+10,      /* J =  5 */
(PID.TID 0000.0001)                 5.594154126607553E+10,      /* J =  6 */
(PID.TID 0000.0001)                 6.203683527776127E+10,      /* J =  7 */
(PID.TID 0000.0001)                 6.757541173817516E+10,      /* J =  8 */
(PID.TID 0000.0001)                 7.256353271748119E+10,      /* J =  9 */
(PID.TID 0000.0001)                 7.699293007098555E+10,      /* J = 10 */
(PID.TID 0000.0001)                 8.084683449728902E+10,      /* J = 11 */
(PID.TID 0000.0001)                 8.410423102799828E+10,      /* J = 12 */
(PID.TID 0000.0001)                 8.674306976737517E+10,      /* J = 13 */
(PID.TID 0000.0001)                 8.874277443041928E+10,      /* J = 14 */
(PID.TID 0000.0001)                 9.008620045350865E+10,      /* J = 15 */
(PID.TID 0000.0001)                 9.076111290418457E+10,      /* J = 16 */
(PID.TID 0000.0001)                 9.076111290422060E+10,      /* J = 17 */
(PID.TID 0000.0001)                 9.008620045354469E+10,      /* J = 18 */
(PID.TID 0000.0001)                 8.874277443041928E+10,      /* J = 19 */
(PID.TID 0000.0001)                 8.674306976737517E+10,      /* J = 20 */
(PID.TID 0000.0001)                 8.410423102799828E+10,      /* J = 21 */
(PID.TID 0000.0001)                 8.084683449728902E+10,      /* J = 22 */
(PID.TID 0000.0001)                 7.699293007098555E+10,      /* J = 23 */
(PID.TID 0000.0001)                 7.256353271748119E+10,      /* J = 24 */
(PID.TID 0000.0001)                 6.757541173817516E+10,      /* J = 25 */
(PID.TID 0000.0001)                 6.203683527772523E+10,      /* J = 26 */
(PID.TID 0000.0001)                 5.594154126607553E+10,      /* J = 27 */
(PID.TID 0000.0001)                 4.925938996118163E+10,      /* J = 28 */
(PID.TID 0000.0001)                 4.192037169898667E+10,      /* J = 29 */
(PID.TID 0000.0001)                 3.378518544307869E+10,      /* J = 30 */
(PID.TID 0000.0001)                 2.459906945574446E+10,      /* J = 31 */
(PID.TID 0000.0001)                 1.401900702259215E+10       /* J = 32 */
(PID.TID 0000.0001)     ;
(PID.TID 0000.0001) rAw =  /* rAw(:,1,:,1) ( units: m^2 ) */
(PID.TID 0000.0001)                 1.216690346714270E+10,      /* I =  1 */
(PID.TID 0000.0001)                 1.974052138506315E+10,      /* I =  2 */
(PID.TID 0000.0001)                 2.943712825252015E+10,      /* I =  3 */
(PID.TID 0000.0001)                 3.801790263324359E+10,      /* I =  4 */
(PID.TID 0000.0001)                 4.571243814189866E+10,      /* I =  5 */
(PID.TID 0000.0001)                 5.269930713599979E+10,      /* I =  6 */
(PID.TID 0000.0001)                 5.907428494299063E+10,      /* I =  7 */
(PID.TID 0000.0001)                 6.488320895111514E+10,      /* I =  8 */
(PID.TID 0000.0001)                 7.014205907741882E+10,      /* I =  9 */
(PID.TID 0000.0001)                 7.484854821847499E+10,      /* I = 10 */
(PID.TID 0000.0001)                 7.898934631431560E+10,      /* I = 11 */
(PID.TID 0000.0001)                 8.254500894894537E+10,      /* I = 12 */
(PID.TID 0000.0001)                 8.549360686473492E+10,      /* I = 13 */
(PID.TID 0000.0001)                 8.781353403175085E+10,      /* I = 14 */
(PID.TID 0000.0001)                 8.948571540392021E+10,      /* I = 15 */
(PID.TID 0000.0001)                 9.049530583086168E+10,      /* I = 16 */
(PID.TID 0000.0001)                 9.083293515008307E+10,      /* I = 17 */
(PID.TID 0000.0001)                 9.049530583087070E+10,      /* I = 18 */
(PID.TID 0000.0001)                 8.948571540391121E+10,      /* I = 19 */
(PID.TID 0000.0001)                 8.781353403174185E+10,      /* I = 20 */
(PID.TID 0000.0001)                 8.549360686467184E+10,      /* I = 21 */
(PID.TID 0000.0001)                 8.254500894890933E+10,      /* I = 22 */
(PID.TID 0000.0001)                 7.898934631434262E+10,      /* I = 23 */
(PID.TID 0000.0001)                 7.484854821844795E+10,      /* I = 24 */
(PID.TID 0000.0001)                 7.014205907742783E+10,      /* I = 25 */
(PID.TID 0000.0001)                 6.488320895111514E+10,      /* I = 26 */
(PID.TID 0000.0001)                 5.907428494299063E+10,      /* I = 27 */
(PID.TID 0000.0001)                 5.269930713599078E+10,      /* I = 28 */
(PID.TID 0000.0001)                 4.571243814190767E+10,      /* I = 29 */
(PID.TID 0000.0001)                 3.801790263325260E+10,      /* I = 30 */
(PID.TID 0000.0001)                 2.943712825251114E+10,      /* I = 31 */
(PID.TID 0000.0001)                 1.974052138509018E+10       /* I = 32 */
(PID.TID 0000.0001)     ;
(PID.TID 0000.0001) rAw =  /* rAw(1,:,1,:) ( units: m^2 ) */
(PID.TID 0000.0001)                 1.216690346714270E+10,      /* J =  1 */
(PID.TID 0000.0001)                 2.390126200743558E+10,      /* J =  2 */
(PID.TID 0000.0001)                 3.341968103208270E+10,      /* J =  3 */
(PID.TID 0000.0001)                 4.168532893152940E+10,      /* J =  4 */
(PID.TID 0000.0001)                 4.909074590409593E+10,      /* J =  5 */
(PID.TID 0000.0001)                 5.581203765722643E+10,      /* J =  6 */
(PID.TID 0000.0001)                 6.193257577506788E+10,      /* J =  7 */
(PID.TID 0000.0001)                 6.748840226738273E+10,      /* J =  8 */
(PID.TID 0000.0001)                 7.248875782324815E+10,      /* J =  9 */
(PID.TID 0000.0001)                 7.692702995909871E+10,      /* J = 10 */
(PID.TID 0000.0001)                 8.078743937057304E+10,      /* J = 11 */
(PID.TID 0000.0001)                 8.404959656062837E+10,      /* J = 12 */
(PID.TID 0000.0001)                 8.669186205742538E+10,      /* J = 13 */
(PID.TID 0000.0001)                 8.869393350723613E+10,      /* J = 14 */
(PID.TID 0000.0001)                 9.003884657168852E+10,      /* J = 15 */
(PID.TID 0000.0001)     2 @  9.071447638299399E+10,             /* J = 16: 17 */
(PID.TID 0000.0001)                 9.003884657168852E+10,      /* J = 18 */
(PID.TID 0000.0001)                 8.869393350723613E+10,      /* J = 19 */
(PID.TID 0000.0001)                 8.669186205742538E+10,      /* J = 20 */
(PID.TID 0000.0001)                 8.404959656062837E+10,      /* J = 21 */
(PID.TID 0000.0001)                 8.078743937057304E+10,      /* J = 22 */
(PID.TID 0000.0001)                 7.692702995909871E+10,      /* J = 23 */
(PID.TID 0000.0001)                 7.248875782324815E+10,      /* J = 24 */
(PID.TID 0000.0001)                 6.748840226738273E+10,      /* J = 25 */
(PID.TID 0000.0001)                 6.193257577506788E+10,      /* J = 26 */
(PID.TID 0000.0001)                 5.581203765722643E+10,      /* J = 27 */
(PID.TID 0000.0001)                 4.909074590409593E+10,      /* J = 28 */
(PID.TID 0000.0001)                 4.168532893152940E+10,      /* J = 29 */
(PID.TID 0000.0001)                 3.341968103208270E+10,      /* J = 30 */
(PID.TID 0000.0001)                 2.390126200743558E+10,      /* J = 31 */
(PID.TID 0000.0001)                 1.216690346714270E+10       /* J = 32 */
(PID.TID 0000.0001)     ;
(PID.TID 0000.0001) rAs =  /* rAs(:,1,:,1) ( units: m^2 ) */
(PID.TID 0000.0001)                 1.216690346714270E+10,      /* I =  1 */
(PID.TID 0000.0001)                 2.390126200743558E+10,      /* I =  2 */
(PID.TID 0000.0001)                 3.341968103208270E+10,      /* I =  3 */
(PID.TID 0000.0001)                 4.168532893152940E+10,      /* I =  4 */
(PID.TID 0000.0001)                 4.909074590409593E+10,      /* I =  5 */
(PID.TID 0000.0001)                 5.581203765722643E+10,      /* I =  6 */
(PID.TID 0000.0001)                 6.193257577506788E+10,      /* I =  7 */
(PID.TID 0000.0001)                 6.748840226738273E+10,      /* I =  8 */
(PID.TID 0000.0001)                 7.248875782324815E+10,      /* I =  9 */
(PID.TID 0000.0001)                 7.692702995909871E+10,      /* I = 10 */
(PID.TID 0000.0001)                 8.078743937057304E+10,      /* I = 11 */
(PID.TID 0000.0001)                 8.404959656062837E+10,      /* I = 12 */
(PID.TID 0000.0001)                 8.669186205742538E+10,      /* I = 13 */
(PID.TID 0000.0001)                 8.869393350723613E+10,      /* I = 14 */
(PID.TID 0000.0001)                 9.003884657168852E+10,      /* I = 15 */
(PID.TID 0000.0001)     2 @  9.071447638299399E+10,             /* I = 16: 17 */
(PID.TID 0000.0001)                 9.003884657168852E+10,      /* I = 18 */
(PID.TID 0000.0001)                 8.869393350723613E+10,      /* I = 19 */
(PID.TID 0000.0001)                 8.669186205742538E+10,      /* I = 20 */
(PID.TID 0000.0001)                 8.404959656062837E+10,      /* I = 21 */
(PID.TID 0000.0001)                 8.078743937057304E+10,      /* I = 22 */
(PID.TID 0000.0001)                 7.692702995909871E+10,      /* I = 23 */
(PID.TID 0000.0001)                 7.248875782324815E+10,      /* I = 24 */
(PID.TID 0000.0001)                 6.748840226738273E+10,      /* I = 25 */
(PID.TID 0000.0001)                 6.193257577506788E+10,      /* I = 26 */
(PID.TID 0000.0001)                 5.581203765722643E+10,      /* I = 27 */
(PID.TID 0000.0001)                 4.909074590409593E+10,      /* I = 28 */
(PID.TID 0000.0001)                 4.168532893152940E+10,      /* I = 29 */
(PID.TID 0000.0001)                 3.341968103208270E+10,      /* I = 30 */
(PID.TID 0000.0001)                 2.390126200743558E+10,      /* I = 31 */
(PID.TID 0000.0001)                 1.216690346714270E+10       /* I = 32 */
(PID.TID 0000.0001)     ;
(PID.TID 0000.0001) rAs =  /* rAs(1,:,1,:) ( units: m^2 ) */
(PID.TID 0000.0001)                 1.216690346714270E+10,      /* J =  1 */
(PID.TID 0000.0001)                 1.974052138506315E+10,      /* J =  2 */
(PID.TID 0000.0001)                 2.943712825252015E+10,      /* J =  3 */
(PID.TID 0000.0001)                 3.801790263324359E+10,      /* J =  4 */
(PID.TID 0000.0001)                 4.571243814189866E+10,      /* J =  5 */
(PID.TID 0000.0001)                 5.269930713599979E+10,      /* J =  6 */
(PID.TID 0000.0001)                 5.907428494299063E+10,      /* J =  7 */
(PID.TID 0000.0001)                 6.488320895111514E+10,      /* J =  8 */
(PID.TID 0000.0001)                 7.014205907741882E+10,      /* J =  9 */
(PID.TID 0000.0001)                 7.484854821847499E+10,      /* J = 10 */
(PID.TID 0000.0001)                 7.898934631431560E+10,      /* J = 11 */
(PID.TID 0000.0001)                 8.254500894894537E+10,      /* J = 12 */
(PID.TID 0000.0001)                 8.549360686473492E+10,      /* J = 13 */
(PID.TID 0000.0001)                 8.781353403175085E+10,      /* J = 14 */
(PID.TID 0000.0001)                 8.948571540392021E+10,      /* J = 15 */
(PID.TID 0000.0001)                 9.049530583086168E+10,      /* J = 16 */
(PID.TID 0000.0001)                 9.083293515008307E+10,      /* J = 17 */
(PID.TID 0000.0001)                 9.049530583087070E+10,      /* J = 18 */
(PID.TID 0000.0001)                 8.948571540391121E+10,      /* J = 19 */
(PID.TID 0000.0001)                 8.781353403174185E+10,      /* J = 20 */
(PID.TID 0000.0001)                 8.549360686467184E+10,      /* J = 21 */
(PID.TID 0000.0001)                 8.254500894890933E+10,      /* J = 22 */
(PID.TID 0000.0001)                 7.898934631434262E+10,      /* J = 23 */
(PID.TID 0000.0001)                 7.484854821844795E+10,      /* J = 24 */
(PID.TID 0000.0001)                 7.014205907742783E+10,      /* J = 25 */
(PID.TID 0000.0001)                 6.488320895111514E+10,      /* J = 26 */
(PID.TID 0000.0001)                 5.907428494299063E+10,      /* J = 27 */
(PID.TID 0000.0001)                 5.269930713599078E+10,      /* J = 28 */
(PID.TID 0000.0001)                 4.571243814190767E+10,      /* J = 29 */
(PID.TID 0000.0001)                 3.801790263325260E+10,      /* J = 30 */
(PID.TID 0000.0001)                 2.943712825251114E+10,      /* J = 31 */
(PID.TID 0000.0001)                 1.974052138509018E+10       /* J = 32 */
(PID.TID 0000.0001)     ;
(PID.TID 0000.0001) globalArea = /* Integrated horizontal Area (m^2) */
(PID.TID 0000.0001)                 3.638867375081598E+14
(PID.TID 0000.0001)     ;
(PID.TID 0000.0001) hasWetCSCorners = /* Domain contains CS corners (True/False) */
(PID.TID 0000.0001)                   T
(PID.TID 0000.0001)     ;
(PID.TID 0000.0001) // =======================================================
(PID.TID 0000.0001) // End of Model config. summary
(PID.TID 0000.0001) // =======================================================
(PID.TID 0000.0001) 
(PID.TID 0000.0001) == Packages configuration : Check & print summary ==
(PID.TID 0000.0001) 
(PID.TID 0000.0001) GMREDI_CHECK: #define GMREDI
(PID.TID 0000.0001) GM_AdvForm =     /* if FALSE => use SkewFlux Form */
(PID.TID 0000.0001)                   F
(PID.TID 0000.0001)     ;
(PID.TID 0000.0001) GM_InMomAsStress = /* if TRUE => apply as Eddy Stress */
(PID.TID 0000.0001)                   F
(PID.TID 0000.0001)     ;
(PID.TID 0000.0001) GM_AdvSeparate = /* Calc Bolus & Euler Adv. separately */
(PID.TID 0000.0001)                   F
(PID.TID 0000.0001)     ;
(PID.TID 0000.0001) GM_ExtraDiag =   /* Tensor Extra Diag (line 1&2) non 0 */
(PID.TID 0000.0001)                   F
(PID.TID 0000.0001)     ;
(PID.TID 0000.0001) GM_isopycK =    /* Background Isopyc. Diffusivity [m^2/s] */
(PID.TID 0000.0001)                 8.000000000000000E+02
(PID.TID 0000.0001)     ;
(PID.TID 0000.0001) GM_skewflx*K =  /* Background GM_SkewFlx Diffusivity [m^2/s] */
(PID.TID 0000.0001)                 8.000000000000000E+02
(PID.TID 0000.0001)     ;
(PID.TID 0000.0001) GM_advec*K =    /* Backg. GM-Advec(=Bolus) Diffusivity [m^2/s]*/
(PID.TID 0000.0001)                 0.000000000000000E+00
(PID.TID 0000.0001)     ;
(PID.TID 0000.0001) GM_Kmin_horiz = /* Minimum Horizontal Diffusivity [m^2/s] */
(PID.TID 0000.0001)                 5.000000000000000E+01
(PID.TID 0000.0001)     ;
(PID.TID 0000.0001) GM_Visbeck_alpha = /* Visbeck alpha coeff. [-] */
(PID.TID 0000.0001)                 0.000000000000000E+00
(PID.TID 0000.0001)     ;
(PID.TID 0000.0001) GM_Small_Number =  /* epsilon used in slope calc */
(PID.TID 0000.0001)                 9.999999999999999E-21
(PID.TID 0000.0001)     ;
(PID.TID 0000.0001) GM_slopeSqCutoff = /* Slope^2 cut-off value */
(PID.TID 0000.0001)                 1.000000000000000E+48
(PID.TID 0000.0001)     ;
(PID.TID 0000.0001) GM_taper_scheme =  /* Type of Tapering/Clipping scheme */
(PID.TID 0000.0001)               'gkw91                                   '
(PID.TID 0000.0001)     ;
(PID.TID 0000.0001) GM_maxSlope =  /* Maximum Slope (Tapering/Clipping) */
(PID.TID 0000.0001)                 1.000000000000000E-02
(PID.TID 0000.0001)     ;
(PID.TID 0000.0001) GM_facTrL2dz = /* Minimum Trans.Layer Thick. (factor of dz) */
(PID.TID 0000.0001)                 1.000000000000000E+00
(PID.TID 0000.0001)     ;
(PID.TID 0000.0001) GM_facTrL2ML = /* Max.Trans.Layer Thick. (factor of MxL Depth)*/
(PID.TID 0000.0001)                 5.000000000000000E+00
(PID.TID 0000.0001)     ;
(PID.TID 0000.0001) GM_maxTransLay = /* Maximum Transition Layer Thickness [m] */
(PID.TID 0000.0001)                 5.000000000000000E+02
(PID.TID 0000.0001)     ;
(PID.TID 0000.0001) GM_UseBVP = /* if TRUE => use bvp a la Ferrari et al. (2010) */
(PID.TID 0000.0001)                   F
(PID.TID 0000.0001)     ;
(PID.TID 0000.0001) GM_BVP_ModeNumber = /* Vertical mode number for BVP wave speed */
(PID.TID 0000.0001)                       1
(PID.TID 0000.0001)     ;
(PID.TID 0000.0001) GM_BVP_cMin = /* Minimum wave speed for BVP [m/s] */
(PID.TID 0000.0001)                 1.000000000000000E-01
(PID.TID 0000.0001)     ;
(PID.TID 0000.0001) GM_useSubMeso = /* if TRUE => use Sub-Meso param. (B.Fox-Kemper) */
(PID.TID 0000.0001)                   F
(PID.TID 0000.0001)     ;
(PID.TID 0000.0001) subMeso_Ceff = /* efficiency coeff. of Mixed-Layer Eddies [-] */
(PID.TID 0000.0001)                 7.000000000000001E-02
(PID.TID 0000.0001)     ;
(PID.TID 0000.0001) subMeso_invTau = /* inverse of Sub-Meso mixing time-scale [/s] */
(PID.TID 0000.0001)                 2.000000000000000E-06
(PID.TID 0000.0001)     ;
(PID.TID 0000.0001) subMeso_LfMin = /* minimum length-scale "Lf" [m] */
(PID.TID 0000.0001)                 1.000000000000000E+03
(PID.TID 0000.0001)     ;
(PID.TID 0000.0001) subMeso_Lmax = /* maximum grid-scale length [m] */
(PID.TID 0000.0001)                 1.100000000000000E+05
(PID.TID 0000.0001)     ;
(PID.TID 0000.0001) GAD_CHECK: #define ALLOW_GENERIC_ADVDIFF
(PID.TID 0000.0001) // =======================================================
(PID.TID 0000.0001) // Check Model config. (CONFIG_CHECK):
(PID.TID 0000.0001) // CONFIG_CHECK : Normal End
(PID.TID 0000.0001) // =======================================================
(PID.TID 0000.0001) 
(PID.TID 0000.0001)  MDS_READ_META: opening file: pickup.0000072000.meta
(PID.TID 0000.0001)  nRecords = 123 ; filePrec =  64 ; fileIter =     72000
(PID.TID 0000.0001)     nDims =   2 , dims:
(PID.TID 0000.0001)    1: 192   1 192
(PID.TID 0000.0001)    2:  32   1  32
(PID.TID 0000.0001)     nFlds =  11 , nFl3D =   8 , fields:
(PID.TID 0000.0001)  >Uvel    < >GuNm1   < >Vvel    < >GvNm1   < >Theta   < >GtNm1   < >Salt    < >GsNm1   < >EtaN    < >dEtaHdt < >EtaH    <
(PID.TID 0000.0001) missingVal=  1.00000000000000E+00 ; nTimRec =   0 , timeList:
(PID.TID 0000.0001) READ_MFLDS_3D_RL: read field: "Uvel    ", #   1 in fldList, rec=   1
(PID.TID 0000.0001)  MDS_READ_FIELD: opening global file: pickup.0000072000
(PID.TID 0000.0001) READ_MFLDS_3D_RL: read field: "Vvel    ", #   3 in fldList, rec=   3
(PID.TID 0000.0001)  MDS_READ_FIELD: opening global file: pickup.0000072000
(PID.TID 0000.0001) READ_MFLDS_3D_RL: read field: "Theta   ", #   5 in fldList, rec=   5
(PID.TID 0000.0001)  MDS_READ_FIELD: opening global file: pickup.0000072000
(PID.TID 0000.0001) READ_MFLDS_3D_RL: read field: "Salt    ", #   7 in fldList, rec=   7
(PID.TID 0000.0001)  MDS_READ_FIELD: opening global file: pickup.0000072000
(PID.TID 0000.0001) READ_MFLDS_3D_RL: read field: "GuNm1   ", #   2 in fldList, rec=   2
(PID.TID 0000.0001)  MDS_READ_FIELD: opening global file: pickup.0000072000
(PID.TID 0000.0001) READ_MFLDS_3D_RL: read field: "GvNm1   ", #   4 in fldList, rec=   4
(PID.TID 0000.0001)  MDS_READ_FIELD: opening global file: pickup.0000072000
(PID.TID 0000.0001) READ_MFLDS_3D_RL: read field: "GtNm1   ", #   6 in fldList, rec=   6
(PID.TID 0000.0001)  MDS_READ_FIELD: opening global file: pickup.0000072000
(PID.TID 0000.0001) READ_MFLDS_3D_RL: read field: "GsNm1   ", #   8 in fldList, rec=   8
(PID.TID 0000.0001)  MDS_READ_FIELD: opening global file: pickup.0000072000
(PID.TID 0000.0001) READ_MFLDS_3D_RL: read field: "EtaN    ", #   9 in fldList, rec= 121
(PID.TID 0000.0001)  MDS_READ_FIELD: opening global file: pickup.0000072000
(PID.TID 0000.0001) READ_MFLDS_3D_RL: read field: "dEtaHdt ", #  10 in fldList, rec= 122
(PID.TID 0000.0001)  MDS_READ_FIELD: opening global file: pickup.0000072000
(PID.TID 0000.0001) READ_MFLDS_3D_RL: read field: "EtaH    ", #  11 in fldList, rec= 123
(PID.TID 0000.0001)  MDS_READ_FIELD: opening global file: pickup.0000072000
(PID.TID 0000.0001) READ_MFLDS_CHECK: - normal end ; reset MFLDS file-name: pickup.0000072000
(PID.TID 0000.0001)  MDS_READ_FIELD: opening global file: trenberth_taux.bin
(PID.TID 0000.0001)  MDS_READ_FIELD: opening global file: trenberth_tauy.bin
(PID.TID 0000.0001)  MDS_READ_FIELD: opening global file: shiQnet_cs32.bin
(PID.TID 0000.0001)  MDS_READ_FIELD: opening global file: shiEmPR_cs32.bin
(PID.TID 0000.0001)  MDS_READ_FIELD: opening global file: lev_surfT_cs_12m.bin
(PID.TID 0000.0001)  MDS_READ_FIELD: opening global file: lev_surfS_cs_12m.bin
(PID.TID 0000.0001) // =======================================================
(PID.TID 0000.0001) // Model current state
(PID.TID 0000.0001) // =======================================================
(PID.TID 0000.0001) 
(PID.TID 0000.0001) // =======================================================
(PID.TID 0000.0001) // Begin MONITOR dynamic field statistics
(PID.TID 0000.0001) // =======================================================
(PID.TID 0000.0001) %MON time_tsnumber                =                 72000
(PID.TID 0000.0001) %MON time_secondsf                =   6.2208000000000E+09
(PID.TID 0000.0001) %MON dynstat_eta_max              =   9.2249308874653E-01
(PID.TID 0000.0001) %MON dynstat_eta_min              =  -1.6181619580030E+00
(PID.TID 0000.0001) %MON dynstat_eta_mean             =   1.4427566214562E-14
(PID.TID 0000.0001) %MON dynstat_eta_sd               =   5.9907976973986E-01
(PID.TID 0000.0001) %MON dynstat_eta_del2             =   7.8581345364806E-04
(PID.TID 0000.0001) %MON dynstat_uvel_max             =   1.8639442347386E-01
(PID.TID 0000.0001) %MON dynstat_uvel_min             =  -2.8803502100767E-01
(PID.TID 0000.0001) %MON dynstat_uvel_mean            =  -4.8914430325890E-04
(PID.TID 0000.0001) %MON dynstat_uvel_sd              =   1.2021379389426E-02
(PID.TID 0000.0001) %MON dynstat_uvel_del2            =   5.1214215649781E-05
(PID.TID 0000.0001) %MON dynstat_vvel_max             =   1.7346247050018E-01
(PID.TID 0000.0001) %MON dynstat_vvel_min             =  -2.2519444280963E-01
(PID.TID 0000.0001) %MON dynstat_vvel_mean            =  -4.0398186384005E-04
(PID.TID 0000.0001) %MON dynstat_vvel_sd              =   1.2638380334010E-02
(PID.TID 0000.0001) %MON dynstat_vvel_del2            =   5.0639130168720E-05
(PID.TID 0000.0001) %MON dynstat_wvel_max             =   1.0315548206230E-04
(PID.TID 0000.0001) %MON dynstat_wvel_min             =  -2.0412092606640E-04
(PID.TID 0000.0001) %MON dynstat_wvel_mean            =   1.3594270097552E-10
(PID.TID 0000.0001) %MON dynstat_wvel_sd              =   3.8382293649569E-06
(PID.TID 0000.0001) %MON dynstat_wvel_del2            =   2.6457320450043E-08
(PID.TID 0000.0001) %MON dynstat_theta_max            =   3.0925958904704E+01
(PID.TID 0000.0001) %MON dynstat_theta_min            =  -3.0175293673864E+00
(PID.TID 0000.0001) %MON dynstat_theta_mean           =   3.9091304559860E+00
(PID.TID 0000.0001) %MON dynstat_theta_sd             =   4.5711443147581E+00
(PID.TID 0000.0001) %MON dynstat_theta_del2           =   2.6590891135791E-03
(PID.TID 0000.0001) %MON dynstat_salt_max             =   4.1386265990462E+01
(PID.TID 0000.0001) %MON dynstat_salt_min             =   1.8383410676806E+01
(PID.TID 0000.0001) %MON dynstat_salt_mean            =   3.4772068623474E+01
(PID.TID 0000.0001) %MON dynstat_salt_sd              =   5.3145226117181E-01
(PID.TID 0000.0001) %MON dynstat_salt_del2            =   8.0693627005698E-04
(PID.TID 0000.0001) %MON dynstat_sst_max              =   3.0925958904704E+01
(PID.TID 0000.0001) %MON dynstat_sst_min              =  -1.9648692042086E+00
(PID.TID 0000.0001) %MON dynstat_sst_mean             =   1.8113137824165E+01
(PID.TID 0000.0001) %MON dynstat_sst_sd               =   9.7982972159706E+00
(PID.TID 0000.0001) %MON dynstat_sst_del2             =   1.5454157826167E-02
(PID.TID 0000.0001) %MON dynstat_sss_max              =   4.1386265990462E+01
(PID.TID 0000.0001) %MON dynstat_sss_min              =   1.8383410676806E+01
(PID.TID 0000.0001) %MON dynstat_sss_mean             =   3.4632078412677E+01
(PID.TID 0000.0001) %MON dynstat_sss_sd               =   1.4684189495322E+00
(PID.TID 0000.0001) %MON dynstat_sss_del2             =   8.0812048509615E-03
(PID.TID 0000.0001) %MON forcing_qnet_max             =   4.6211611868841E+02
(PID.TID 0000.0001) %MON forcing_qnet_min             =  -2.0410376912710E+02
(PID.TID 0000.0001) %MON forcing_qnet_mean            =  -1.2329247921290E+01
(PID.TID 0000.0001) %MON forcing_qnet_sd              =   1.1327998988989E+02
(PID.TID 0000.0001) %MON forcing_qnet_del2            =   4.4323506322358E-01
(PID.TID 0000.0001) %MON forcing_qsw_max              =   0.0000000000000E+00
(PID.TID 0000.0001) %MON forcing_qsw_min              =   0.0000000000000E+00
(PID.TID 0000.0001) %MON forcing_qsw_mean             =   0.0000000000000E+00
(PID.TID 0000.0001) %MON forcing_qsw_sd               =   0.0000000000000E+00
(PID.TID 0000.0001) %MON forcing_qsw_del2             =   0.0000000000000E+00
(PID.TID 0000.0001) %MON forcing_empmr_max            =   7.6494447208479E-05
(PID.TID 0000.0001) %MON forcing_empmr_min            =  -1.5362614137596E-04
(PID.TID 0000.0001) %MON forcing_empmr_mean           =   4.1932798010144E-22
(PID.TID 0000.0001) %MON forcing_empmr_sd             =   2.4051723601802E-05
(PID.TID 0000.0001) %MON forcing_empmr_del2           =   1.2276157049243E-07
(PID.TID 0000.0001) %MON forcing_fu_max               =   2.4892781143428E-01
(PID.TID 0000.0001) %MON forcing_fu_min               =  -2.5159107438040E-01
(PID.TID 0000.0001) %MON forcing_fu_mean              =  -3.8956966288612E-03
(PID.TID 0000.0001) %MON forcing_fu_sd                =   6.5480383395885E-02
(PID.TID 0000.0001) %MON forcing_fu_del2              =   2.3114393556995E-04
(PID.TID 0000.0001) %MON forcing_fv_max               =   2.9305960402537E-01
(PID.TID 0000.0001) %MON forcing_fv_min               =  -3.3950131228473E-01
(PID.TID 0000.0001) %MON forcing_fv_mean              =  -1.3743384707768E-02
(PID.TID 0000.0001) %MON forcing_fv_sd                =   7.6816469815204E-02
(PID.TID 0000.0001) %MON forcing_fv_del2              =   2.5671701728584E-04
(PID.TID 0000.0001) %MON trAdv_CFL_u_max              =   0.0000000000000E+00
(PID.TID 0000.0001) %MON trAdv_CFL_v_max              =   0.0000000000000E+00
(PID.TID 0000.0001) %MON trAdv_CFL_w_max              =   0.0000000000000E+00
(PID.TID 0000.0001) %MON advcfl_uvel_max              =   8.1692195603793E-02
(PID.TID 0000.0001) %MON advcfl_vvel_max              =   7.5609847114589E-02
(PID.TID 0000.0001) %MON advcfl_wvel_max              =   6.6551124574102E-02
(PID.TID 0000.0001) %MON advcfl_W_hf_max              =   7.3510960005834E-02
(PID.TID 0000.0001) %MON pe_b_mean                    =   4.7811655460464E-04
(PID.TID 0000.0001) %MON ke_max                       =   4.0700637549387E-02
(PID.TID 0000.0001) %MON ke_mean                      =   1.4067882101803E-04
(PID.TID 0000.0001) %MON ke_vol                       =   1.3398024453628E+18
(PID.TID 0000.0001) %MON vort_r_min                   =  -1.1843904755479E-06
(PID.TID 0000.0001) %MON vort_r_max                   =   1.2148454936551E-06
(PID.TID 0000.0001) %MON vort_a_mean                  =  -2.0493733748264E-05
(PID.TID 0000.0001) %MON vort_a_sd                    =   7.5053947910691E-05
(PID.TID 0000.0001) %MON vort_p_mean                  =  -2.4715773639925E-05
(PID.TID 0000.0001) %MON vort_p_sd                    =   1.2777078256013E-04
(PID.TID 0000.0001) %MON surfExpan_theta_mean         =   4.6885453665042E-08
(PID.TID 0000.0001) %MON surfExpan_salt_mean          =   1.4400775280522E-08
(PID.TID 0000.0001) // =======================================================
(PID.TID 0000.0001) // End MONITOR dynamic field statistics
(PID.TID 0000.0001) // =======================================================
 Done DRIVER_INIT
 Calling DRIVER_Get_ExportState
 DRIVER_GET_EXPORT_STATE_3D:MASK : Associated & shape =          32          32          15
 Done DRIVER_Get_ExportState
 Done MIT_PlugInit
   Integer*4 Resource Parameter INTERPOLATE_SST:           0
   Integer*4 Resource Parameter BYPASS_OGCM:           0

 EXPSRC:Heracles-5_3
 EXPID: TEST
 Descr: TEST
 DisableSubVmChecks: F
 BlockSize:           10
 MarkDone:             0
 PrePost:              1

 Reading HISTORY RC Files:
 -------------------------
 NOT using buffer I/O for file: HISTORY.rc
 NOT using buffer I/O for file: geosgcm_prog.rcx
 NOT using buffer I/O for file: geosgcm_surf.rcx
 NOT using buffer I/O for file: mit_ocn.rcx

 NOT using buffer I/O for file: tile.bin
 NOT using buffer I/O for file: tile.bin
 Freq: 060000  Dur: 060000  TM:   -1  Collection: geosgcm_prog
 Freq: 030000  Dur: 030000  TM:   -1  Collection: geosgcm_surf
 Freq: 010000  Dur: 010000  TM:   -1  Collection: mit_ocn

 Independent Output Export States:
 ---------------------------------
           1 AGCM
           2 DYN
           3 MOIST
           4 CHEMISTRY
           5 TURBULENCE
           6 SURFACE
           7 SOLAR
           8 RADIATION
           9 IRRAD
          10 MIT

 Initializing Output Stream: geosgcm_prog
 --------------------------- 
       Format: CFIO
         Mode: instantaneous
        Nbits:          100
       Slices:          483
      Deflate:            0
    Frequency:        60000
     Ref_Date:     20000414
     Ref_Time:            0
     Duration:        60000
  Output RSLV:           48          25
    XY-offset:            0   (DcPc: Dateline Center, Pole Center)
      Fields: PHIS SLP U V T PS H OMEGA QV QI QL RH O3 PLE 
    Vert Interp  Var: log(PLE)
    Vertical    Unit: hPa
    Vertical Scaling:    100.000000    
    Vertical  Levels:    1000.00000       975.000000       950.000000       925.000000       900.000000       875.000000       850.000000       825.000000       800.000000       775.000000       750.000000       725.000000       700.000000       650.000000       600.000000       550.000000       500.000000       450.000000       400.000000       350.000000       300.000000       250.000000       200.000000       150.000000       100.000000       70.0000000       50.0000000       40.0000000       30.0000000       20.0000000       10.0000000       7.00000000       5.00000000       4.00000000       3.00000000       2.00000000       1.00000000      0.699999988      0.500000000      0.400000006      0.300000012      0.200000003      0.100000001       7.00000003E-02   5.00000007E-02   3.99999991E-02   2.99999993E-02   1.99999996E-02


 Initializing Output Stream: geosgcm_surf
 --------------------------- 
       Format: CFIO
         Mode: time-averaged
        Nbits:          100
       Slices:          147
      Deflate:            0
    Frequency:        30000
 Acc_Interval:        30000
     Ref_Date:     20000414
     Ref_Time:       210000
     Duration:        30000
  Output RSLV:           48          25
    XY-offset:            0   (DcPc: Dateline Center, Pole Center)
      Fields: PHIS SGH VARFLT TROPPV TROPPT TROPPB TROPT TROPQ QVFILL OXFILL TA QA US VS PS SPEED PBLH TS QS THAT QHAT RASTIME RASPBLQ CNPRCP LSPRCP ANPRCP SNO PLS PCU LWP CCWP TAUTT TAULO TAUMD TAUHI CLDTT CLDLO CLDMD CLDHI SPLAND SPWATR RUNOFF BASEFLOW EMIS CT CQ CN CM RISFC LAI GRN SNOMAS VEGTYPE WET1 WET2 WET3 TSOIL1 TSOIL2 FRLAND FRLANDICE FRLAKE FRSEAICE FROCEAN USTAR Z0 Z0H LHFX SHFX EVAP TAUX TAUY RHOS U2M V2M T2M Q2M U10N V10N U10M V10M T10M Q10M U50M V50M GUST VENT ASNOW RADSRF FLNS FLNSC FLNSCNA OLR OLRC OLRCNA LWS LWSC LWSCNA SFCEM SWCLDTMP SWCLDPRS OSR OSRCLR SWTNET SWTNETC SWTNETCNA SWTNETNA RADSWT SWGDWN SWGDWNC SWGNET SWGNETC SWGNETNA SWGNETCNA ALBEDO ALBVR ALBVF ALBNR ALBNF EVLAND LHLAND SHLAND SWLAND LWLAND GHLAND SMLAND TWLAND TELAND EVAPOUT COSZ DCOOL DWARM DELT_COOL BULK_SST TDEL BCOOL LCOOL TBAR USTARW SWCOOL QCOOL DELTS QWARM SWWARM LANGM PHIW TAUTW ZETA_W 


 Initializing Output Stream: mit_ocn
 --------------------------- 
       Format: CFIO
         Mode: instantaneous
        Nbits:          100
       Slices:           40
      Deflate:            0
    Frequency:        10000
     Ref_Date:     20000414
     Ref_Time:            0
     Duration:        10000
  Output RSLV:           48          25
    XY-offset:            0   (DcPc: Dateline Center, Pole Center)
      Fields: US VS TS SS MASK TAUX TAUY PS SWHEAT QFLX HFLX SFLX 


 EXTDATA::Initialize_: ACTIVE

 ************************************************
 ** Variables to be provided by the ExtData Component **
 ************************************************
 ----            1 : WSUB_NATURE
 ----            2 : climBCDP001
 ----            3 : climBCDP002
 ----            4 : climBCWT001
 ----            5 : climBCWT002
 ----            6 : climBCphilic
 ----            7 : climBCphobic
 ----            8 : climDMS
 ----            9 : climDUDP001
 ----           10 : climDUDP002
 ----           11 : climDUDP003
 ----           12 : climDUDP004
 ----           13 : climDUDP005
 ----           14 : climDUSD001
 ----           15 : climDUSD002
 ----           16 : climDUSD003
 ----           17 : climDUSD004
 ----           18 : climDUSD005
 ----           19 : climDUWT001
 ----           20 : climDUWT002
 ----           21 : climDUWT003
 ----           22 : climDUWT004
 ----           23 : climDUWT005
 ----           24 : climMSA
 ----           25 : climOCDP001
 ----           26 : climOCDP002
 ----           27 : climOCWT001
 ----           28 : climOCWT002
 ----           29 : climOCphilic
 ----           30 : climOCphobic
 ----           31 : climSO2
 ----           32 : climSO4
 ----           33 : climdu001
 ----           34 : climdu002
 ----           35 : climdu003
 ----           36 : climdu004
 ----           37 : climdu005
 ----           38 : climss001
 ----           39 : climss002
 ----           40 : climss003
 ----           41 : climss004
 ----           42 : climss005
 ************************************************

 CFIO: Reading ExtData/PIESA/L72/aero_clm/dR_MERRA-AA-r2.aer_Nv.2003_2014.2008clm.nc4 at     20080316        120000
 CFIO: Reading ExtData/PIESA/L72/aero_clm/dR_MERRA-AA-r2.aer_Nv.2003_2014.2008clm.nc4 at     20080416             0
 CFIO: Reading ExtData/PIESA/L72/aero_clm/dR_MERRA-AA-r2.aer_Nv.2003_2014.2008clm.nc4 at     20080316        120000
 CFIO: Reading ExtData/PIESA/L72/aero_clm/dR_MERRA-AA-r2.aer_Nv.2003_2014.2008clm.nc4 at     20080416             0
 CFIO: Reading ExtData/PIESA/L72/aero_clm/dR_MERRA-AA-r2.aer_Nv.2003_2014.2008clm.nc4 at     20080316        120000
 CFIO: Reading ExtData/PIESA/L72/aero_clm/dR_MERRA-AA-r2.aer_Nv.2003_2014.2008clm.nc4 at     20080416             0
 CFIO: Reading ExtData/PIESA/L72/aero_clm/dR_MERRA-AA-r2.aer_Nv.2003_2014.2008clm.nc4 at     20080316        120000
 CFIO: Reading ExtData/PIESA/L72/aero_clm/dR_MERRA-AA-r2.aer_Nv.2003_2014.2008clm.nc4 at     20080416             0
 CFIO: Reading ExtData/PIESA/L72/aero_clm/dR_MERRA-AA-r2.aer_Nv.2003_2014.2008clm.nc4 at     20080316        120000
 CFIO: Reading ExtData/PIESA/L72/aero_clm/dR_MERRA-AA-r2.aer_Nv.2003_2014.2008clm.nc4 at     20080416             0
 CFIO: Reading ExtData/PIESA/L72/aero_clm/dR_MERRA-AA-r2.aer_Nv.2003_2014.2008clm.nc4 at     20080316        120000
 CFIO: Reading ExtData/PIESA/L72/aero_clm/dR_MERRA-AA-r2.aer_Nv.2003_2014.2008clm.nc4 at     20080416             0
 CFIO: Reading ExtData/PIESA/L72/aero_clm/dR_MERRA-AA-r2.aer_Nv.2003_2014.2008clm.nc4 at     20080316        120000
 CFIO: Reading ExtData/PIESA/L72/aero_clm/dR_MERRA-AA-r2.aer_Nv.2003_2014.2008clm.nc4 at     20080416             0
 CFIO: Reading ExtData/PIESA/L72/aero_clm/dR_MERRA-AA-r2.aer_Nv.2003_2014.2008clm.nc4 at     20080316        120000
 CFIO: Reading ExtData/PIESA/L72/aero_clm/dR_MERRA-AA-r2.aer_Nv.2003_2014.2008clm.nc4 at     20080416             0
 CFIO: Reading ExtData/PIESA/L72/aero_clm/dR_MERRA-AA-r2.aer_Nv.2003_2014.2008clm.nc4 at     20080316        120000
 CFIO: Reading ExtData/PIESA/L72/aero_clm/dR_MERRA-AA-r2.aer_Nv.2003_2014.2008clm.nc4 at     20080416             0
 CFIO: Reading ExtData/PIESA/L72/aero_clm/dR_MERRA-AA-r2.aer_Nv.2003_2014.2008clm.nc4 at     20080316        120000
 CFIO: Reading ExtData/PIESA/L72/aero_clm/dR_MERRA-AA-r2.aer_Nv.2003_2014.2008clm.nc4 at     20080416             0
 CFIO: Reading ExtData/PIESA/L72/aero_clm/dR_MERRA-AA-r2.aer_Nv.2003_2014.2008clm.nc4 at     20080316        120000
 CFIO: Reading ExtData/PIESA/L72/aero_clm/dR_MERRA-AA-r2.aer_Nv.2003_2014.2008clm.nc4 at     20080416             0
 CFIO: Reading ExtData/PIESA/L72/aero_clm/dR_MERRA-AA-r2.aer_Nv.2003_2014.2008clm.nc4 at     20080316        120000
 CFIO: Reading ExtData/PIESA/L72/aero_clm/dR_MERRA-AA-r2.aer_Nv.2003_2014.2008clm.nc4 at     20080416             0
 CFIO: Reading ExtData/PIESA/L72/aero_clm/dR_MERRA-AA-r2.aer_Nv.2003_2014.2008clm.nc4 at     20080316        120000
 CFIO: Reading ExtData/PIESA/L72/aero_clm/dR_MERRA-AA-r2.aer_Nv.2003_2014.2008clm.nc4 at     20080416             0
 CFIO: Reading ExtData/PIESA/L72/aero_clm/dR_MERRA-AA-r2.aer_Nv.2003_2014.2008clm.nc4 at     20080316        120000
 CFIO: Reading ExtData/PIESA/L72/aero_clm/dR_MERRA-AA-r2.aer_Nv.2003_2014.2008clm.nc4 at     20080416             0
 CFIO: Reading ExtData/PIESA/L72/aero_clm/dR_MERRA-AA-r2.aer_Nv.2003_2014.2008clm.nc4 at     20080316        120000
 CFIO: Reading ExtData/PIESA/L72/aero_clm/dR_MERRA-AA-r2.aer_Nv.2003_2014.2008clm.nc4 at     20080416             0
 CFIO: Reading ExtData/PIESA/sfc/aero_clm/dR_MERRA-AA-r2.aer_Nx.2003_2014.2008clm.nc4 at     20080316        120000
 CFIO: Reading ExtData/PIESA/sfc/aero_clm/dR_MERRA-AA-r2.aer_Nx.2003_2014.2008clm.nc4 at     20080416             0
 CFIO: Reading ExtData/PIESA/sfc/aero_clm/dR_MERRA-AA-r2.aer_Nx.2003_2014.2008clm.nc4 at     20080316        120000
 CFIO: Reading ExtData/PIESA/sfc/aero_clm/dR_MERRA-AA-r2.aer_Nx.2003_2014.2008clm.nc4 at     20080416             0
 CFIO: Reading ExtData/PIESA/sfc/aero_clm/dR_MERRA-AA-r2.aer_Nx.2003_2014.2008clm.nc4 at     20080316        120000
 CFIO: Reading ExtData/PIESA/sfc/aero_clm/dR_MERRA-AA-r2.aer_Nx.2003_2014.2008clm.nc4 at     20080416             0
 CFIO: Reading ExtData/PIESA/sfc/aero_clm/dR_MERRA-AA-r2.aer_Nx.2003_2014.2008clm.nc4 at     20080316        120000
 CFIO: Reading ExtData/PIESA/sfc/aero_clm/dR_MERRA-AA-r2.aer_Nx.2003_2014.2008clm.nc4 at     20080416             0
 CFIO: Reading ExtData/PIESA/sfc/aero_clm/dR_MERRA-AA-r2.aer_Nx.2003_2014.2008clm.nc4 at     20080316        120000
 CFIO: Reading ExtData/PIESA/sfc/aero_clm/dR_MERRA-AA-r2.aer_Nx.2003_2014.2008clm.nc4 at     20080416             0
 CFIO: Reading ExtData/PIESA/sfc/aero_clm/dR_MERRA-AA-r2.aer_Nx.2003_2014.2008clm.nc4 at     20080316        120000
 CFIO: Reading ExtData/PIESA/sfc/aero_clm/dR_MERRA-AA-r2.aer_Nx.2003_2014.2008clm.nc4 at     20080416             0
 CFIO: Reading ExtData/PIESA/sfc/aero_clm/dR_MERRA-AA-r2.aer_Nx.2003_2014.2008clm.nc4 at     20080316        120000
 CFIO: Reading ExtData/PIESA/sfc/aero_clm/dR_MERRA-AA-r2.aer_Nx.2003_2014.2008clm.nc4 at     20080416             0
 CFIO: Reading ExtData/PIESA/sfc/aero_clm/dR_MERRA-AA-r2.aer_Nx.2003_2014.2008clm.nc4 at     20080316        120000
 CFIO: Reading ExtData/PIESA/sfc/aero_clm/dR_MERRA-AA-r2.aer_Nx.2003_2014.2008clm.nc4 at     20080416             0
 CFIO: Reading ExtData/PIESA/sfc/aero_clm/dR_MERRA-AA-r2.aer_Nx.2003_2014.2008clm.nc4 at     20080316        120000
 CFIO: Reading ExtData/PIESA/sfc/aero_clm/dR_MERRA-AA-r2.aer_Nx.2003_2014.2008clm.nc4 at     20080416             0
 CFIO: Reading ExtData/PIESA/sfc/aero_clm/dR_MERRA-AA-r2.aer_Nx.2003_2014.2008clm.nc4 at     20080316        120000
 CFIO: Reading ExtData/PIESA/sfc/aero_clm/dR_MERRA-AA-r2.aer_Nx.2003_2014.2008clm.nc4 at     20080416             0
 CFIO: Reading ExtData/PIESA/sfc/aero_clm/dR_MERRA-AA-r2.aer_Nx.2003_2014.2008clm.nc4 at     20080316        120000
 CFIO: Reading ExtData/PIESA/sfc/aero_clm/dR_MERRA-AA-r2.aer_Nx.2003_2014.2008clm.nc4 at     20080416             0
 CFIO: Reading ExtData/PIESA/sfc/aero_clm/dR_MERRA-AA-r2.aer_Nx.2003_2014.2008clm.nc4 at     20080316        120000
 CFIO: Reading ExtData/PIESA/sfc/aero_clm/dR_MERRA-AA-r2.aer_Nx.2003_2014.2008clm.nc4 at     20080416             0
 CFIO: Reading ExtData/PIESA/sfc/aero_clm/dR_MERRA-AA-r2.aer_Nx.2003_2014.2008clm.nc4 at     20080316        120000
 CFIO: Reading ExtData/PIESA/sfc/aero_clm/dR_MERRA-AA-r2.aer_Nx.2003_2014.2008clm.nc4 at     20080416             0
 CFIO: Reading ExtData/PIESA/sfc/aero_clm/dR_MERRA-AA-r2.aer_Nx.2003_2014.2008clm.nc4 at     20080316        120000
 CFIO: Reading ExtData/PIESA/sfc/aero_clm/dR_MERRA-AA-r2.aer_Nx.2003_2014.2008clm.nc4 at     20080416             0
 CFIO: Reading ExtData/PIESA/sfc/aero_clm/dR_MERRA-AA-r2.aer_Nx.2003_2014.2008clm.nc4 at     20080316        120000
 CFIO: Reading ExtData/PIESA/sfc/aero_clm/dR_MERRA-AA-r2.aer_Nx.2003_2014.2008clm.nc4 at     20080416             0
 CFIO: Reading ExtData/PIESA/sfc/aero_clm/dR_MERRA-AA-r2.aer_Nx.2003_2014.2008clm.nc4 at     20080316        120000
 CFIO: Reading ExtData/PIESA/sfc/aero_clm/dR_MERRA-AA-r2.aer_Nx.2003_2014.2008clm.nc4 at     20080416             0
 CFIO: Reading ExtData/PIESA/sfc/aero_clm/dR_MERRA-AA-r2.aer_Nx.2003_2014.2008clm.nc4 at     20080316        120000
 CFIO: Reading ExtData/PIESA/sfc/aero_clm/dR_MERRA-AA-r2.aer_Nx.2003_2014.2008clm.nc4 at     20080416             0
 CFIO: Reading ExtData/PIESA/sfc/aero_clm/dR_MERRA-AA-r2.aer_Nx.2003_2014.2008clm.nc4 at     20080316        120000
 CFIO: Reading ExtData/PIESA/sfc/aero_clm/dR_MERRA-AA-r2.aer_Nx.2003_2014.2008clm.nc4 at     20080416             0
 CFIO: Reading ExtData/PIESA/sfc/aero_clm/dR_MERRA-AA-r2.aer_Nx.2003_2014.2008clm.nc4 at     20080316        120000
 CFIO: Reading ExtData/PIESA/sfc/aero_clm/dR_MERRA-AA-r2.aer_Nx.2003_2014.2008clm.nc4 at     20080416             0
 CFIO: Reading ExtData/PIESA/sfc/aero_clm/dR_MERRA-AA-r2.aer_Nx.2003_2014.2008clm.nc4 at     20080316        120000
 CFIO: Reading ExtData/PIESA/sfc/aero_clm/dR_MERRA-AA-r2.aer_Nx.2003_2014.2008clm.nc4 at     20080416             0
 CFIO: Reading ExtData/PIESA/sfc/aero_clm/dR_MERRA-AA-r2.aer_Nx.2003_2014.2008clm.nc4 at     20080316        120000
 CFIO: Reading ExtData/PIESA/sfc/aero_clm/dR_MERRA-AA-r2.aer_Nx.2003_2014.2008clm.nc4 at     20080416             0
 CFIO: Reading ExtData/PIESA/sfc/aero_clm/dR_MERRA-AA-r2.aer_Nx.2003_2014.2008clm.nc4 at     20080316        120000
 CFIO: Reading ExtData/PIESA/sfc/aero_clm/dR_MERRA-AA-r2.aer_Nx.2003_2014.2008clm.nc4 at     20080416             0
 CFIO: Reading ExtData/PIESA/sfc/aero_clm/dR_MERRA-AA-r2.aer_Nx.2003_2014.2008clm.nc4 at     20080316        120000
 CFIO: Reading ExtData/PIESA/sfc/aero_clm/dR_MERRA-AA-r2.aer_Nx.2003_2014.2008clm.nc4 at     20080416             0
 CFIO: Reading ExtData/g5gcm/moist/L72/Wvar_positive_05hrdeg_200604.nc4 at     20060401             0
 CFIO: Reading ExtData/g5gcm/moist/L72/Wvar_positive_05hrdeg_200605.nc4 at     20060501             0
      Real*4 Resource Parameter ALPHA:    0.00000    
      Real*4 Resource Parameter BETA:    1.00000    
      Real*4 Resource Parameter ALPHAQ:    0.00000    
      Real*4 Resource Parameter BETAQ:    1.00000    
      Real*4 Resource Parameter ALPHAO:    0.00000    
      Real*4 Resource Parameter BETAO:    1.00000    
      Real*4 Resource Parameter TAUANL:    21600.0    
   Integer*4 Resource Parameter IS_FCST:           0
   Integer*4 Resource Parameter CONSTRAIN_DAS:           1
   Character Resource Parameter ANA_IS_WEIGHTED: NO
 Advecting the following    16 tracers in FV:
 CFC11
 CFC12
 CH4
 CLCN
 CLLS
 HCFC22
 N2O
 NCPI
 NCPL
 OX
 Q
 QICN
 QILS
 QLCN
 QLLS
 QW
   Integer*4 Resource Parameter CONSV:           1
   Integer*4 Resource Parameter FILL:           0
 Global Area=   510064471909797.81     
   Character Resource Parameter DPEDT_PHYS: YES
      Real*4 Resource Parameter DOPHYSICS:    1.00000    
   Integer*4 Resource Parameter PGWV:           4
      Real*4 Resource Parameter EFFGWORO:   0.250000    
      Real*4 Resource Parameter EFFGWBKG:   0.125000    
      Real*4 Resource Parameter EFFORONH:    1.00000    
      Real*4 Resource Parameter EFFOROSH:    2.50000    
      Real*4 Resource Parameter RAYLEIGH_Z1:    75000.0    
      Real*4 Resource Parameter RAYLEIGH_TAU1:    172800.    
      Real*4 Resource Parameter RAYLEIGH_H0:    7000.00    
      Real*4 Resource Parameter RAYLEIGH_HH:    7500.00    
   Integer*4 Resource Parameter CLEANUP_RH:           1
      Real*4 Resource Parameter CUFRICFAC:    1.00000    
      Real*4 Resource Parameter SHR_LAMBDA_FAC:   0.500000E-01
      Real*4 Resource Parameter AUTOC_CN:   0.250000E-02
      Real*4 Resource Parameter AUTO_CNV:    1.00000    
      Real*4 Resource Parameter LCCIRRUS:    500.000    
      Real*4 Resource Parameter UISCALE:    1.00000    
      Real*4 Resource Parameter OVERSHOOT_FRAC:    0.00000    
      Real*4 Resource Parameter LIU_MU:    2.00000    
      Real*4 Resource Parameter NPRE_FRAC:    1.00000    
      Real*4 Resource Parameter LTS_LOW:    12.0000    
      Real*4 Resource Parameter LTS_UP:    22.0000    
      Real*4 Resource Parameter MIN_EXP:    1.00000    
      Real*4 Resource Parameter DCRIT_DRIZZLE:    1.00000    
      Real*4 Resource Parameter USE_AV_V:    0.00000    
      Real*4 Resource Parameter TS_AUTO_ICE:    1.50000    
      Real*4 Resource Parameter TMAXLL:    296.000    
      Real*4 Resource Parameter CCNPARAM:    2.00000    
      Real*4 Resource Parameter INPARAM:    5.00000    
      Real*4 Resource Parameter FDROP_DUST:   0.500000    
      Real*4 Resource Parameter FDROP_SOOT:   0.100000E-01
      Real*4 Resource Parameter SIGMA_NUC:   0.280000    
      Real*4 Resource Parameter SS_SCALE:    14.0000    
      Real*4 Resource Parameter MIN_ALH:    300.000    
      Real*4 Resource Parameter USE_NAT_WSUB:    1.00000    
      Real*4 Resource Parameter BKG_TAU:   0.150000E-01
      Real*4 Resource Parameter DCS:   0.350000E-03
      Real*4 Resource Parameter QC_CRIT_CN:   0.800000E-03
      Real*4 Resource Parameter RASAL1:    1800.00    
      Real*4 Resource Parameter RASAL2:    43200.0    
      Real*4 Resource Parameter RASNCL:   -300.000    
      Real*4 Resource Parameter LAMBDA_FAC:    4.00000    
      Real*4 Resource Parameter LAMBMX_FAC:    0.00000    
      Real*4 Resource Parameter MIN_DIAMETER:    200.000    
      Real*4 Resource Parameter CUFRICLAMBDA:   0.750000E-03
      Real*4 Resource Parameter RDTLEXPON:    1.00000    
      Real*4 Resource Parameter STRAPPING:   -1.00000    
      Real*4 Resource Parameter SDQV2:    1.30000    
      Real*4 Resource Parameter SDQV3:    1.30000    
      Real*4 Resource Parameter SDQVT1:    263.000    
      Real*4 Resource Parameter ACRITFAC:   0.500000    
      Real*4 Resource Parameter HMINTRIGGER:    1.00000    
      Real*4 Resource Parameter LLDISAGGXP:    0.00000    
      Real*4 Resource Parameter PBLFRAC:   0.100000    
      Real*4 Resource Parameter RASAUTORAMPB:   0.800000    
      Real*4 Resource Parameter PMIN_DET    3000.00    
      Real*4 Resource Parameter PMIN_CBL    50000.0    
      Real*4 Resource Parameter AUTOC_CN_LAND:   0.250000E-02
      Real*4 Resource Parameter AUTOC_CN_ZDEP:    1.00000    
      Real*4 Resource Parameter MAXDALLOWED_S:    4000.00    
      Real*4 Resource Parameter MAXDALLOWED_D:    2000.00    
      Real*4 Resource Parameter RAS_RHMIN:   0.500000    
      Real*4 Resource Parameter RAS_RHFULL:   0.650000    
   Integer*4 Resource Parameter CBL_METHOD:           6
      Real*4 Resource Parameter CBL_TPERT:    1.00000    
      Real*4 Resource Parameter CBL_QPERT:    0.00000    
      Real*4 Resource Parameter CBL_TPERT_MXOCN:    2.00000    
      Real*4 Resource Parameter CBL_TPERT_MXLND:    4.00000    
      Real*4 Resource Parameter CNV_Q600_MIN:   0.250000E-02
      Real*4 Resource Parameter CNV_Q600_MAX:   0.250000E-02
      Real*4 Resource Parameter CNV_BETA:    10.0000    
      Real*4 Resource Parameter ANV_BETA:    4.00000    
      Real*4 Resource Parameter LS_BETA:    4.00000    
      Real*4 Resource Parameter RH_CRIT:    1.00000    
      Real*4 Resource Parameter AUTOC_LS:   0.200000E-02
      Real*4 Resource Parameter QC_CRIT_LS:   0.800000E-03
      Real*4 Resource Parameter ACCRETION:    2.00000    
      Real*4 Resource Parameter RAIN_REVAP_FAC:    1.00000    
      Real*4 Resource Parameter VOL_TO_FRAC:   -1.00000    
      Real*4 Resource Parameter SUPERSAT:    0.00000    
      Real*4 Resource Parameter SHEAR_EVAP_FAC:    1.30000    
      Real*4 Resource Parameter MIN_ALLOW_CCW:   0.100000E-08
      Real*4 Resource Parameter CCW_EVAP_EFF:   0.330000E-03
      Real*4 Resource Parameter NSUB_AUTOCONV:    20.0000    
      Real*4 Resource Parameter LS_SUND_INTER:    4.80000    
      Real*4 Resource Parameter LS_SUND_COLD:    4.80000    
      Real*4 Resource Parameter LS_SUND_TEMP1:    230.000    
      Real*4 Resource Parameter ANV_SUND_INTER:    1.00000    
      Real*4 Resource Parameter ANV_SUND_COLD:    1.00000    
      Real*4 Resource Parameter ANV_SUND_TEMP1:    230.000    
      Real*4 Resource Parameter ANV_TO_LS_TIME:    14400.0    
      Real*4 Resource Parameter NCCN_WARM:    50.0000    
      Real*4 Resource Parameter NCCN_ICE:   0.100000E-01
      Real*4 Resource Parameter NCCN_ANVIL:   0.100000    
      Real*4 Resource Parameter NCCN_PBL:    200.000    
      Real*4 Resource Parameter DISABLE_RAD:    0.00000    
      Real*4 Resource Parameter ICE_SETTLE:    0.00000    
      Real*4 Resource Parameter ANV_ICEFALL:   0.500000    
      Real*4 Resource Parameter LS_ICEFALL:   0.500000    
      Real*4 Resource Parameter REVAP_OFF_P:    2000.00    
      Real*4 Resource Parameter WRHODEP:   0.500000    
      Real*4 Resource Parameter ICE_RAMP:   -40.0000    
      Real*4 Resource Parameter CNV_ICEPARAM:    1.00000    
      Real*4 Resource Parameter CNV_ICEFRPWR:    4.00000    
      Real*4 Resource Parameter CNV_DDRF:    0.00000    
      Real*4 Resource Parameter ANV_DDRF:    0.00000    
      Real*4 Resource Parameter LS_DDRF:    0.00000    
      Real*4 Resource Parameter AUTOC_ANV:   0.100000E-02
      Real*4 Resource Parameter QC_CRIT_ANV:   0.800000E-03
      Real*4 Resource Parameter TANHRHCRIT:    1.00000    
      Real*4 Resource Parameter MINRHCRIT:   0.800000    
      Real*4 Resource Parameter MAXRHCRIT:    1.00000    
      Real*4 Resource Parameter PRECIPRAD:    0.00000    
      Real*4 Resource Parameter MAXRHCRITLAND:   0.810000    
      Real*4 Resource Parameter SNOW_REVAP_FAC:    1.00000    
      Real*4 Resource Parameter CNV_ENVF:   0.800000    
      Real*4 Resource Parameter SCLMFDFR:    1.00000    
      Real*4 Resource Parameter TURNRHCRIT:    750.000    
      Real*4 Resource Parameter MOVE2RAS:    1.00000    
      Real*4 Resource Parameter FR_LS_WAT:    1.00000    
      Real*4 Resource Parameter FR_LS_ICE:    1.00000    
      Real*4 Resource Parameter FR_AN_WAT:    0.00000    
      Real*4 Resource Parameter FR_AN_ICE:    0.00000    
      Real*4 Resource Parameter MIN_RL:   0.100000E-04
      Real*4 Resource Parameter MIN_RI:   0.200000E-04
      Real*4 Resource Parameter MAX_RL:   0.210000E-04
      Real*4 Resource Parameter MAX_RI:   0.400000E-04
      Real*4 Resource Parameter RI_ANV:   0.300000E-04
      Real*4 Resource Parameter PDFSHAPE:    1.00000    
      Real*4 Resource Parameter TURNRHCRIT_UP:    300.000    
      Real*4 Resource Parameter RSUB_RADIUS:   0.100000E-02
      Real*4 Resource Parameter MARINE_A0:   0.139868E-01
      Real*4 Resource Parameter MARINE_A1:   0.358764E-01
      Real*4 Resource Parameter MARINE_A2:  -0.610214E-01
      Real*4 Resource Parameter MARINE_A3:  -0.102320E-01
      Real*4 Resource Parameter MARINE_A4:   0.313520E-02
      Real*4 Resource Parameter MARINE_A5:   0.346241E-01
      Real*4 Resource Parameter CONTINENT_A0:  -0.183172E-01
      Real*4 Resource Parameter CONTINENT_A1:  -0.562338E-01
      Real*4 Resource Parameter CONTINENT_A2:   0.186274    
      Real*4 Resource Parameter CONTINENT_A3:  -0.233630E-02
      Real*4 Resource Parameter CONTINENT_A4:  -0.138380E-02
      Real*4 Resource Parameter CONTINENT_A5:   0.114759E-01
      Real*4 Resource Parameter X1_DIVISOR:    4.36000    
      Real*4 Resource Parameter X2_DIVISOR:    9.27000    
      Real*4 Resource Parameter X3_DIVISOR:    34.4000    
      Real*4 Resource Parameter X4_DIVISOR:    21.4000    
      Real*4 Resource Parameter X5_DIVISOR:    14600.0    
      Real*4 Resource Parameter X5_EXPONENT:    3.00000    
      Real*4 Resource Parameter SFC_T_LIMIT:    273.000    
      Real*4 Resource Parameter AIR_T_LIMIT:    263.000    
      Real*4 Resource Parameter CLOUD_TOP_LIMIT:    500.000    
   Integer*4 Resource Parameter CHOOSEMOSFC:           1
   Integer*4 Resource Parameter INTERPOLATE_ATMLM:           0
   Integer*4 Resource Parameter CHOOSEZ0:           3
      Real*4 Resource Parameter OCEANICEZ0:   0.100000E-02
      Real*4 Resource Parameter OCEANZ0:   0.100000E-02
      Real*4 Resource Parameter ICEZ0:   0.500000E-03
   Character Resource Parameter LAI_FILE: lai.data
   Character Resource Parameter GREEN_FILE: green.data
 NOT using buffer I/O for file: lai.data
   Integer*4 Resource Parameter PARALLEL_READFORCING:           1
 Using parallel IO for file: lai.data
 Using parallel IO for file: lai.data
 NOT using buffer I/O for file: green.data
 Using parallel IO for file: green.data
 Using parallel IO for file: green.data
      Real*4 Resource Parameter SCALE4Z0:    2.00000    
      Real*4 Resource Parameter TURBULENCE_LOUIS:    5.00000    
      Real*4 Resource Parameter TURBULENCE_LAMBDAM:    160.000    
      Real*4 Resource Parameter TURBULENCE_LAMBDAM2:    1.00000    
      Real*4 Resource Parameter TURBULENCE_LAMBDAH:    160.000    
      Real*4 Resource Parameter TURBULENCE_LAMBDAH2:    1.00000    
      Real*4 Resource Parameter TURBULENCE_ZKMENV:    3000.00    
      Real*4 Resource Parameter TURBULENCE_ZKHENV:    3000.00    
      Real*4 Resource Parameter TURBULENCE_MINTHICK:   0.100000    
      Real*4 Resource Parameter TURBULENCE_MINSHEAR:   0.300000E-02
      Real*4 Resource Parameter TURBULENCE_C_B:   0.102000E-06
      Real*4 Resource Parameter TURBULENCE_LAMBDA_B:    1500.00    
      Real*4 Resource Parameter TURBULENCE_AKHMMAX:    500.000    
   Integer*4 Resource Parameter TURBULENCE_LOCK_ON:           1
      Real*4 Resource Parameter TURBULENCE_PRANDTLSFC:    1.00000    
      Real*4 Resource Parameter TURBULENCE_PRANDTLRAD:   0.750000    
      Real*4 Resource Parameter TURBULENCE_BETA_RAD:   0.500000    
      Real*4 Resource Parameter TURBULENCE_BETA_SURF:   0.250000    
      Real*4 Resource Parameter TURBULENCE_KHRADFAC:   0.850000    
      Real*4 Resource Parameter TURBULENCE_KHSFCFAC:   0.450000    
      Real*4 Resource Parameter TURBULENCE_TPFAC_SURF:    20.0000    
      Real*4 Resource Parameter TURBULENCE_ENTRATE_SURF:   0.150000E-02
      Real*4 Resource Parameter TURBULENCE_PCEFF_SURF:   0.500000    
      Real*4 Resource Parameter TURBULENCE_LOUIS_MEMORY:   -999.000    
   Integer*4 Resource Parameter TURBULENCE_PBLHT_OPTION:           4
      Real*4 Resource Parameter ECCENTRICITY:   0.167000E-01
      Real*4 Resource Parameter OBLIQUITY:    23.4500    
      Real*4 Resource Parameter PERIHELION:    102.000    
   Integer*4 Resource Parameter EQUINOX:          80
   Character Resource Parameter PRECIP_FILE: null
      Real*4 Resource Parameter SOLAR_CONSTANT:   -1.00000    
   Integer*4 Resource Parameter INTERPOLATE_ATMTAU:           0
      Real*4 Resource Parameter LANDICEEMISS:   0.999990    
      Real*4 Resource Parameter LANDICEALBEDO:   0.580000    
      Real*4 Resource Parameter LANDICEDEPTH:   0.700000E-01
      Real*4 Resource Parameter LANDICECOND:    1.20000    
      Real*4 Resource Parameter LANDICETDEEP:    230.000    
      Real*4 Resource Parameter SURFLAY:    50.0000    
   Character Resource Parameter VISDF_FILE: visdf.dat
   Character Resource Parameter NIRDF_FILE: nirdf.dat
 NOT using buffer I/O for file: visdf.dat
 Previous time forVISDFs is:
           1           4           7           0           0           0           1           4          15           0           0           0
 Using parallel IO for file: visdf.dat
 Using parallel IO for file: visdf.dat
 NOT using buffer I/O for file: nirdf.dat
 Previous time forNIRDFs is:
           1           4           7           0           0           0           1           4          15           0           0           0
 Using parallel IO for file: nirdf.dat
 Using parallel IO for file: nirdf.dat
      Real*4 Resource Parameter MAX_SEAICE_DEPTH:   0.700000E-01
      Real*4 Resource Parameter MIN_SEAICE_DEPTH:   0.700000E-01
   Integer*4 Resource Parameter USE_SKIN_LAYER:           0
      Real*4 Resource Parameter MAX_WATER_DEPTH:    20.0000    
      Real*4 Resource Parameter MIN_WATER_DEPTH:   0.500000    
      Real*4 Resource Parameter MU_SKIN:   0.200000    
      Real*4 Resource Parameter STOKES_VELOCITY:   0.100000E-01
   Integer*4 Resource Parameter USE_KPAR:           1
      Real*4 Resource Parameter CICE_EMSICE:   0.999990    
      Real*4 Resource Parameter MAX_SALINITY:    40.0000    
      Real*4 Resource Parameter MIN_SALINITY:    5.00000    
   Integer*4 Resource Parameter CICE_DO_POND:           0
   Integer*4 Resource Parameter COOL_SKIN_LAYER_ITERATIONS           3
      Real*4 Resource Parameter THRESHOLD_ICE_FR_SST:    0.00000    
      Real*4 Resource Parameter SHVC_EFFECT:    0.00000    
  
 PCHEM::Run: Indices selected from climatology are           15          16
  
      Real*4 Resource Parameter CH4_FIXED_VALUE:   -1.00000    
      Real*4 Resource Parameter CH4_RELAXTIME:    259200.    
      Real*4 Resource Parameter CH4_DELP:    5000.00    
      Real*4 Resource Parameter CH4_PCRIT:   0.100000E+17
      Real*4 Resource Parameter N2O_FIXED_VALUE:   -1.00000    
      Real*4 Resource Parameter N2O_RELAXTIME:    259200.    
      Real*4 Resource Parameter N2O_DELP:    5000.00    
      Real*4 Resource Parameter N2O_PCRIT:   0.100000E+17
      Real*4 Resource Parameter CFC11_FIXED_VALUE:   -1.00000    
      Real*4 Resource Parameter CFC11_RELAXTIME:    259200.    
      Real*4 Resource Parameter CFC11_DELP:    5000.00    
      Real*4 Resource Parameter CFC11_PCRIT:   0.100000E+17
      Real*4 Resource Parameter CFC12_FIXED_VALUE:   -1.00000    
      Real*4 Resource Parameter CFC12_RELAXTIME:    259200.    
      Real*4 Resource Parameter CFC12_DELP:    5000.00    
      Real*4 Resource Parameter CFC12_PCRIT:   0.100000E+17
      Real*4 Resource Parameter HCFC22_FIXED_VALUE:   -1.00000    
      Real*4 Resource Parameter HCFC22_RELAXTIME:    259200.    
      Real*4 Resource Parameter HCFC22_DELP:    5000.00    
      Real*4 Resource Parameter HCFC22_PCRIT:   0.100000E+17
      Real*4 Resource Parameter OX_FIXED_VALUE:   -1.00000    
      Real*4 Resource Parameter OX_RELAXTIME:    259200.    
      Real*4 Resource Parameter OX_DELP:    5000.00    
      Real*4 Resource Parameter OX_PCRIT:   0.100000E+17
      Real*4 Resource Parameter H2O_RELAXTIME:    259200.    
      Real*4 Resource Parameter H2O_DELP:    5000.00    
      Real*4 Resource Parameter H2O_PCRIT:    20000.0    
      Real*4 Resource Parameter PRS_LOW_MID_CLOUDS:    70000.0    
      Real*4 Resource Parameter PRS_MID_HIGH_CLOUDS:    40000.0    
      Real*4 Resource Parameter CO2:   -1.00000    
   Integer*4 Resource Parameter SUN_FLAG:           0
   Integer*4 Resource Parameter SOLAR_LOAD_BALANCE:           1

 Updated CO2 in solar for year/day 2000/105 is  0.36854E-03


 Updated Solar Constant for year/day 2000/105 is  0.13618E+04

   Integer*4 Resource Parameter CALLED_LAST:           1
      Real*4 Resource Parameter TAUCRIT:   0.100000    
   Character Resource Parameter KPAR_FILE: SEAWIFS_KPAR_mon_clim.data
 NOT using buffer I/O for file: SEAWIFS_KPAR_mon_clim.data
 Using parallel IO for file: SEAWIFS_KPAR_mon_clim.data
 Using parallel IO for file: SEAWIFS_KPAR_mon_clim.data
   Character Resource Parameter DATA_FRT_FILE: fraci.data
      Real*4 Resource Parameter TAU_SIT:    86400.0    
      Real*4 Resource Parameter CTB:   0.100000E-03
 NOT using buffer I/O for file: fraci.data
 Previous time forFRTs is:
        2000           4           9           0           0           0        2000           4          16           0           0           0
 Using parallel IO for file: fraci.data
 Using parallel IO for file: fraci.data
      Real*4 Resource Parameter MIT_TAU_MIN:    7200.00    
      Real*4 Resource Parameter MIT_TAU_MAX:    7200.00    
      Real*4 Resource Parameter MIT_M3:    1.00000    
      Real*4 Resource Parameter MIT_SKINH:    2.00000    
  Starting plug run method 
   Integer*4 Resource Parameter STEADY_STATE_OCEAN:           1
 EXTERNAL_FIELDS_LOAD,     72000 : iP,iLd,i0,i1=   12    0   12    1 ; Wght=  0.5000000000  0.5000000000
 EXTERNAL_FIELDS_LOAD, it=     72000 : Reading new data, i0,i1=   12    1 (prev=   12    0 )
(PID.TID 0000.0001)  MDS_READ_FIELD: opening global file: trenberth_taux.bin
(PID.TID 0000.0001)  MDS_READ_FIELD: opening global file: trenberth_taux.bin
(PID.TID 0000.0001)  MDS_READ_FIELD: opening global file: trenberth_tauy.bin
(PID.TID 0000.0001)  MDS_READ_FIELD: opening global file: trenberth_tauy.bin
(PID.TID 0000.0001)  MDS_READ_FIELD: opening global file: shiQnet_cs32.bin
(PID.TID 0000.0001)  MDS_READ_FIELD: opening global file: shiQnet_cs32.bin
(PID.TID 0000.0001)  MDS_READ_FIELD: opening global file: shiEmPR_cs32.bin
(PID.TID 0000.0001)  MDS_READ_FIELD: opening global file: shiEmPR_cs32.bin
(PID.TID 0000.0001)  MDS_READ_FIELD: opening global file: lev_surfT_cs_12m.bin
(PID.TID 0000.0001)  MDS_READ_FIELD: opening global file: lev_surfT_cs_12m.bin
(PID.TID 0000.0001)  MDS_READ_FIELD: opening global file: lev_surfS_cs_12m.bin
(PID.TID 0000.0001)  MDS_READ_FIELD: opening global file: lev_surfS_cs_12m.bin
(PID.TID 0000.0001) SOLVE_FOR_PRESSURE: putPmEinXvector =    F
(PID.TID 0000.0001) SOLVE_FOR_PRESSURE: zeroPsNH=    F , zeroMeanPnh=    F
(PID.TID 0000.0001) SOLVE_FOR_PRESSURE: oldFreeSurfTerm =    F
 cg2d: Sum(rhs),rhsMax =  -2.16004991671070E-12  4.28049811553101E+00
(PID.TID 0000.0001)      cg2d_init_res =   3.49231114896081E-02
(PID.TID 0000.0001)      cg2d_iters(min,last) =      -1      86
(PID.TID 0000.0001)      cg2d_last_res =   8.52216993506949E-10
(PID.TID 0000.0001) // =======================================================
(PID.TID 0000.0001) // Begin MONITOR dynamic field statistics
(PID.TID 0000.0001) // =======================================================
(PID.TID 0000.0001) %MON time_tsnumber                =                 72001
(PID.TID 0000.0001) %MON time_secondsf                =   6.2208864000000E+09
(PID.TID 0000.0001) %MON dynstat_eta_max              =   9.2074080471778E-01
(PID.TID 0000.0001) %MON dynstat_eta_min              =  -1.6177434046781E+00
(PID.TID 0000.0001) %MON dynstat_eta_mean             =   1.4042831115507E-14
(PID.TID 0000.0001) %MON dynstat_eta_sd               =   5.9896523293207E-01
(PID.TID 0000.0001) %MON dynstat_eta_del2             =   7.8610614873091E-04
(PID.TID 0000.0001) %MON dynstat_uvel_max             =   1.8678724394494E-01
(PID.TID 0000.0001) %MON dynstat_uvel_min             =  -2.8776620855156E-01
(PID.TID 0000.0001) %MON dynstat_uvel_mean            =  -4.8905816051291E-04
(PID.TID 0000.0001) %MON dynstat_uvel_sd              =   1.2021174047431E-02
(PID.TID 0000.0001) %MON dynstat_uvel_del2            =   5.1196899744473E-05
(PID.TID 0000.0001) %MON dynstat_vvel_max             =   1.7373037963814E-01
(PID.TID 0000.0001) %MON dynstat_vvel_min             =  -2.2518068581827E-01
(PID.TID 0000.0001) %MON dynstat_vvel_mean            =  -4.0395158524993E-04
(PID.TID 0000.0001) %MON dynstat_vvel_sd              =   1.2641235877158E-02
(PID.TID 0000.0001) %MON dynstat_vvel_del2            =   5.0605032205781E-05
(PID.TID 0000.0001) %MON dynstat_wvel_max             =   1.0319095853513E-04
(PID.TID 0000.0001) %MON dynstat_wvel_min             =  -2.0436889845537E-04
(PID.TID 0000.0001) %MON dynstat_wvel_mean            =   1.4894228618321E-10
(PID.TID 0000.0001) %MON dynstat_wvel_sd              =   3.8359777379506E-06
(PID.TID 0000.0001) %MON dynstat_wvel_del2            =   2.6456449657647E-08
(PID.TID 0000.0001) %MON dynstat_theta_max            =   3.0941374393823E+01
(PID.TID 0000.0001) %MON dynstat_theta_min            =  -3.0330033686532E+00
(PID.TID 0000.0001) %MON dynstat_theta_mean           =   3.9091878123639E+00
(PID.TID 0000.0001) %MON dynstat_theta_sd             =   4.5711611800246E+00
(PID.TID 0000.0001) %MON dynstat_theta_del2           =   2.6607214104959E-03
(PID.TID 0000.0001) %MON dynstat_salt_max             =   4.1386888211413E+01
(PID.TID 0000.0001) %MON dynstat_salt_min             =   1.8383695190155E+01
(PID.TID 0000.0001) %MON dynstat_salt_mean            =   3.4772068989043E+01
(PID.TID 0000.0001) %MON dynstat_salt_sd              =   5.3145417320245E-01
(PID.TID 0000.0001) %MON dynstat_salt_del2            =   8.0761175503440E-04
(PID.TID 0000.0001) %MON dynstat_sst_max              =   3.0941374393823E+01
(PID.TID 0000.0001) %MON dynstat_sst_min              =  -1.9660820943406E+00
(PID.TID 0000.0001) %MON dynstat_sst_mean             =   1.8116897025765E+01
(PID.TID 0000.0001) %MON dynstat_sst_sd               =   9.7946128588601E+00
(PID.TID 0000.0001) %MON dynstat_sst_del2             =   1.5512380705009E-02
(PID.TID 0000.0001) %MON dynstat_sss_max              =   4.1386888211413E+01
(PID.TID 0000.0001) %MON dynstat_sss_min              =   1.8383695190155E+01
(PID.TID 0000.0001) %MON dynstat_sss_mean             =   3.4631782196160E+01
(PID.TID 0000.0001) %MON dynstat_sss_sd               =   1.4683341794421E+00
(PID.TID 0000.0001) %MON dynstat_sss_del2             =   8.0902316868775E-03
(PID.TID 0000.0001) %MON forcing_qnet_max             =   4.5344826813507E+02
(PID.TID 0000.0001) %MON forcing_qnet_min             =  -2.1502574251756E+02
(PID.TID 0000.0001) %MON forcing_qnet_mean            =  -1.2145822391644E+01
(PID.TID 0000.0001) %MON forcing_qnet_sd              =   1.1565376981455E+02
(PID.TID 0000.0001) %MON forcing_qnet_del2            =   4.1640148928199E-01
(PID.TID 0000.0001) %MON forcing_qsw_max              =   0.0000000000000E+00
(PID.TID 0000.0001) %MON forcing_qsw_min              =   0.0000000000000E+00
(PID.TID 0000.0001) %MON forcing_qsw_mean             =   0.0000000000000E+00
(PID.TID 0000.0001) %MON forcing_qsw_sd               =   0.0000000000000E+00
(PID.TID 0000.0001) %MON forcing_qsw_del2             =   0.0000000000000E+00
(PID.TID 0000.0001) %MON forcing_empmr_max            =   7.6494447208479E-05
(PID.TID 0000.0001) %MON forcing_empmr_min            =  -1.5362614137596E-04
(PID.TID 0000.0001) %MON forcing_empmr_mean           =   4.1932798010144E-22
(PID.TID 0000.0001) %MON forcing_empmr_sd             =   2.4051723601802E-05
(PID.TID 0000.0001) %MON forcing_empmr_del2           =   1.2276157049243E-07
(PID.TID 0000.0001) %MON forcing_fu_max               =   2.4760613571392E-01
(PID.TID 0000.0001) %MON forcing_fu_min               =  -2.0293190974520E-01
(PID.TID 0000.0001) %MON forcing_fu_mean              =  -4.5478806648627E-03
(PID.TID 0000.0001) %MON forcing_fu_sd                =   6.3937396831278E-02
(PID.TID 0000.0001) %MON forcing_fu_del2              =   2.0509729664672E-04
(PID.TID 0000.0001) %MON forcing_fv_max               =   2.5281098043587E-01
(PID.TID 0000.0001) %MON forcing_fv_min               =  -3.2691992401999E-01
(PID.TID 0000.0001) %MON forcing_fv_mean              =  -1.3684501518858E-02
(PID.TID 0000.0001) %MON forcing_fv_sd                =   7.5153512230531E-02
(PID.TID 0000.0001) %MON forcing_fv_del2              =   2.3373863441584E-04
(PID.TID 0000.0001) %MON trAdv_CFL_u_max              =   8.1159705580576E-02
(PID.TID 0000.0001) %MON trAdv_CFL_v_max              =   8.0574759633070E-02
(PID.TID 0000.0001) %MON trAdv_CFL_w_max              =   7.3600276640003E-02
(PID.TID 0000.0001) %MON advcfl_uvel_max              =   8.1615955292222E-02
(PID.TID 0000.0001) %MON advcfl_vvel_max              =   7.5726624933465E-02
(PID.TID 0000.0001) %MON advcfl_wvel_max              =   6.6631972930353E-02
(PID.TID 0000.0001) %MON advcfl_W_hf_max              =   7.3600276640003E-02
(PID.TID 0000.0001) %MON pe_b_mean                    =   4.7793375187361E-04
(PID.TID 0000.0001) %MON ke_max                       =   4.0598780438665E-02
(PID.TID 0000.0001) %MON ke_mean                      =   1.4070998506271E-04
(PID.TID 0000.0001) %MON ke_vol                       =   1.3398024453628E+18
(PID.TID 0000.0001) %MON vort_r_min                   =  -1.1880315724234E-06
(PID.TID 0000.0001) %MON vort_r_max                   =   1.2157035684063E-06
(PID.TID 0000.0001) %MON vort_a_mean                  =  -2.0493733748264E-05
(PID.TID 0000.0001) %MON vort_a_sd                    =   7.5053947713390E-05
(PID.TID 0000.0001) %MON vort_p_mean                  =  -2.4715773632850E-05
(PID.TID 0000.0001) %MON vort_p_sd                    =   1.2777077744462E-04
(PID.TID 0000.0001) %MON surfExpan_theta_mean         =   4.6784916596489E-08
(PID.TID 0000.0001) %MON surfExpan_salt_mean          =   1.3951912668298E-08
(PID.TID 0000.0001) // =======================================================
(PID.TID 0000.0001) // End MONITOR dynamic field statistics
(PID.TID 0000.0001) // =======================================================
 DRIVER_GET_EXPORT_STATE_3D:MASK : Associated & shape =          32          32          15
  Finished plug run method 
   Integer*4 Resource Parameter INTERPOLATE_OCEAN_ICE_CURRENTS:           0
 AGCM Date: 2000/04/14  Time: 21:15:00
  Starting plug run method 
 EXTERNAL_FIELDS_LOAD,     72001 : iP,iLd,i0,i1=   12    1   12    1 ; Wght=  0.4666666667  0.5333333333
 cg2d: Sum(rhs),rhsMax =  -2.20268248085631E-12  4.27718244078996E+00
(PID.TID 0000.0001)      cg2d_init_res =   3.46503609348449E-02
(PID.TID 0000.0001)      cg2d_iters(min,last) =      -1      85
(PID.TID 0000.0001)      cg2d_last_res =   9.76256965335756E-10
(PID.TID 0000.0001) // =======================================================
(PID.TID 0000.0001) // Begin MONITOR dynamic field statistics
(PID.TID 0000.0001) // =======================================================
(PID.TID 0000.0001) %MON time_tsnumber                =                 72002
(PID.TID 0000.0001) %MON time_secondsf                =   6.2209728000000E+09
(PID.TID 0000.0001) %MON dynstat_eta_max              =   9.1895864856674E-01
(PID.TID 0000.0001) %MON dynstat_eta_min              =  -1.6171655161854E+00
(PID.TID 0000.0001) %MON dynstat_eta_mean             =   1.4839782392121E-14
(PID.TID 0000.0001) %MON dynstat_eta_sd               =   5.9885568633832E-01
(PID.TID 0000.0001) %MON dynstat_eta_del2             =   7.8628233766210E-04
(PID.TID 0000.0001) %MON dynstat_uvel_max             =   1.8712220525053E-01
(PID.TID 0000.0001) %MON dynstat_uvel_min             =  -2.8748357905404E-01
(PID.TID 0000.0001) %MON dynstat_uvel_mean            =  -4.8887504640703E-04
(PID.TID 0000.0001) %MON dynstat_uvel_sd              =   1.2020742754193E-02
(PID.TID 0000.0001) %MON dynstat_uvel_del2            =   5.1178777648835E-05
(PID.TID 0000.0001) %MON dynstat_vvel_max             =   1.7397170992981E-01
(PID.TID 0000.0001) %MON dynstat_vvel_min             =  -2.2515839225553E-01
(PID.TID 0000.0001) %MON dynstat_vvel_mean            =  -4.0388998694022E-04
(PID.TID 0000.0001) %MON dynstat_vvel_sd              =   1.2644149348510E-02
(PID.TID 0000.0001) %MON dynstat_vvel_del2            =   5.0572139618103E-05
(PID.TID 0000.0001) %MON dynstat_wvel_max             =   1.0331069684534E-04
(PID.TID 0000.0001) %MON dynstat_wvel_min             =  -2.0464303793597E-04
(PID.TID 0000.0001) %MON dynstat_wvel_mean            =   1.4042793957384E-10
(PID.TID 0000.0001) %MON dynstat_wvel_sd              =   3.8339453804911E-06
(PID.TID 0000.0001) %MON dynstat_wvel_del2            =   2.6457399171919E-08
(PID.TID 0000.0001) %MON dynstat_theta_max            =   3.0956247742148E+01
(PID.TID 0000.0001) %MON dynstat_theta_min            =  -3.0488625187691E+00
(PID.TID 0000.0001) %MON dynstat_theta_mean           =   3.9092454901729E+00
(PID.TID 0000.0001) %MON dynstat_theta_sd             =   4.5711837312733E+00
(PID.TID 0000.0001) %MON dynstat_theta_del2           =   2.6617084341559E-03
(PID.TID 0000.0001) %MON dynstat_salt_max             =   4.1387502387433E+01
(PID.TID 0000.0001) %MON dynstat_salt_min             =   1.8383986586285E+01
(PID.TID 0000.0001) %MON dynstat_salt_mean            =   3.4772069369650E+01
(PID.TID 0000.0001) %MON dynstat_salt_sd              =   5.3145527497399E-01
(PID.TID 0000.0001) %MON dynstat_salt_del2            =   8.0810876799317E-04
(PID.TID 0000.0001) %MON dynstat_sst_max              =   3.0956247742148E+01
(PID.TID 0000.0001) %MON dynstat_sst_min              =  -1.9672506121486E+00
(PID.TID 0000.0001) %MON dynstat_sst_mean             =   1.8120529563092E+01
(PID.TID 0000.0001) %MON dynstat_sst_sd               =   9.7911076986295E+00
(PID.TID 0000.0001) %MON dynstat_sst_del2             =   1.5553131355514E-02
(PID.TID 0000.0001) %MON dynstat_sss_max              =   4.1387502387433E+01
(PID.TID 0000.0001) %MON dynstat_sss_min              =   1.8383986586285E+01
(PID.TID 0000.0001) %MON dynstat_sss_mean             =   3.4631446526457E+01
(PID.TID 0000.0001) %MON dynstat_sss_sd               =   1.4681567434086E+00
(PID.TID 0000.0001) %MON dynstat_sss_del2             =   8.0955678502052E-03
(PID.TID 0000.0001) %MON forcing_qnet_max             =   4.5335380716717E+02
(PID.TID 0000.0001) %MON forcing_qnet_min             =  -2.1405338853096E+02
(PID.TID 0000.0001) %MON forcing_qnet_mean            =  -1.2158050760287E+01
(PID.TID 0000.0001) %MON forcing_qnet_sd              =   1.1544877109799E+02
(PID.TID 0000.0001) %MON forcing_qnet_del2            =   4.1737635676168E-01
(PID.TID 0000.0001) %MON forcing_qsw_max              =   0.0000000000000E+00
(PID.TID 0000.0001) %MON forcing_qsw_min              =   0.0000000000000E+00
(PID.TID 0000.0001) %MON forcing_qsw_mean             =   0.0000000000000E+00
(PID.TID 0000.0001) %MON forcing_qsw_sd               =   0.0000000000000E+00
(PID.TID 0000.0001) %MON forcing_qsw_del2             =   0.0000000000000E+00
(PID.TID 0000.0001) %MON forcing_empmr_max            =   7.6494447208479E-05
(PID.TID 0000.0001) %MON forcing_empmr_min            =  -1.5362614137596E-04
(PID.TID 0000.0001) %MON forcing_empmr_mean           =   4.1932798010144E-22
(PID.TID 0000.0001) %MON forcing_empmr_sd             =   2.4051723601802E-05
(PID.TID 0000.0001) %MON forcing_empmr_del2           =   1.2276157049243E-07
(PID.TID 0000.0001) %MON forcing_fu_max               =   2.4755808644372E-01
(PID.TID 0000.0001) %MON forcing_fu_min               =  -2.0607770640355E-01
(PID.TID 0000.0001) %MON forcing_fu_mean              =  -4.5044017291293E-03
(PID.TID 0000.0001) %MON forcing_fu_sd                =   6.3947166868600E-02
(PID.TID 0000.0001) %MON forcing_fu_del2              =   2.0524826999043E-04
(PID.TID 0000.0001) %MON forcing_fv_max               =   2.5549422200851E-01
(PID.TID 0000.0001) %MON forcing_fv_min               =  -3.2770782795392E-01
(PID.TID 0000.0001) %MON forcing_fv_mean              =  -1.3688427064785E-02
(PID.TID 0000.0001) %MON forcing_fv_sd                =   7.5192943168452E-02
(PID.TID 0000.0001) %MON forcing_fv_del2              =   2.3392164091250E-04
(PID.TID 0000.0001) %MON trAdv_CFL_u_max              =   8.1079994584508E-02
(PID.TID 0000.0001) %MON trAdv_CFL_v_max              =   8.0686621618601E-02
(PID.TID 0000.0001) %MON trAdv_CFL_w_max              =   7.3699030708370E-02
(PID.TID 0000.0001) %MON advcfl_uvel_max              =   8.1535796205614E-02
(PID.TID 0000.0001) %MON advcfl_vvel_max              =   7.5831817407690E-02
(PID.TID 0000.0001) %MON advcfl_wvel_max              =   6.6721352745918E-02
(PID.TID 0000.0001) %MON advcfl_W_hf_max              =   7.3699030708370E-02
(PID.TID 0000.0001) %MON pe_b_mean                    =   4.7775894631261E-04
(PID.TID 0000.0001) %MON ke_max                       =   4.0493518518007E-02
(PID.TID 0000.0001) %MON ke_mean                      =   1.4073928802221E-04
(PID.TID 0000.0001) %MON ke_vol                       =   1.3398024453628E+18
(PID.TID 0000.0001) %MON vort_r_min                   =  -1.1920039299258E-06
(PID.TID 0000.0001) %MON vort_r_max                   =   1.2168561140194E-06
(PID.TID 0000.0001) %MON vort_a_mean                  =  -2.0493733748264E-05
(PID.TID 0000.0001) %MON vort_a_sd                    =   7.5053947528014E-05
(PID.TID 0000.0001) %MON vort_p_mean                  =  -2.4715773637998E-05
(PID.TID 0000.0001) %MON vort_p_sd                    =   1.2777077233230E-04
(PID.TID 0000.0001) %MON surfExpan_theta_mean         =   4.6600149047369E-08
(PID.TID 0000.0001) %MON surfExpan_salt_mean          =   1.3994563327606E-08
(PID.TID 0000.0001) // =======================================================
(PID.TID 0000.0001) // End MONITOR dynamic field statistics
(PID.TID 0000.0001) // =======================================================
 DRIVER_GET_EXPORT_STATE_3D:MASK : Associated & shape =          32          32          15
  Finished plug run method 
 AGCM Date: 2000/04/14  Time: 21:30:00
  Starting plug run method 
 EXTERNAL_FIELDS_LOAD,     72002 : iP,iLd,i0,i1=   12    1   12    1 ; Wght=  0.4333333333  0.5666666667
 cg2d: Sum(rhs),rhsMax =  -2.15294448935310E-12  4.27443733666879E+00
(PID.TID 0000.0001)      cg2d_init_res =   3.46978069876167E-02
(PID.TID 0000.0001)      cg2d_iters(min,last) =      -1      85
(PID.TID 0000.0001)      cg2d_last_res =   9.89059596849510E-10
(PID.TID 0000.0001) // =======================================================
(PID.TID 0000.0001) // Begin MONITOR dynamic field statistics
(PID.TID 0000.0001) // =======================================================
(PID.TID 0000.0001) %MON time_tsnumber                =                 72003
(PID.TID 0000.0001) %MON time_secondsf                =   6.2210592000000E+09
(PID.TID 0000.0001) %MON dynstat_eta_max              =   9.1727466423156E-01
(PID.TID 0000.0001) %MON dynstat_eta_min              =  -1.6166098235680E+00
(PID.TID 0000.0001) %MON dynstat_eta_mean             =   1.4674895921098E-14
(PID.TID 0000.0001) %MON dynstat_eta_sd               =   5.9875183192332E-01
(PID.TID 0000.0001) %MON dynstat_eta_del2             =   7.8652715989741E-04
(PID.TID 0000.0001) %MON dynstat_uvel_max             =   1.8739605732976E-01
(PID.TID 0000.0001) %MON dynstat_uvel_min             =  -2.8718707232754E-01
(PID.TID 0000.0001) %MON dynstat_uvel_mean            =  -4.8861855858683E-04
(PID.TID 0000.0001) %MON dynstat_uvel_sd              =   1.2020120972175E-02
(PID.TID 0000.0001) %MON dynstat_uvel_del2            =   5.1159846507162E-05
(PID.TID 0000.0001) %MON dynstat_vvel_max             =   1.7418512560208E-01
(PID.TID 0000.0001) %MON dynstat_vvel_min             =  -2.2512783683045E-01
(PID.TID 0000.0001) %MON dynstat_vvel_mean            =  -4.0379092121589E-04
(PID.TID 0000.0001) %MON dynstat_vvel_sd              =   1.2647063859903E-02
(PID.TID 0000.0001) %MON dynstat_vvel_del2            =   5.0540381876450E-05
(PID.TID 0000.0001) %MON dynstat_wvel_max             =   1.0349498096492E-04
(PID.TID 0000.0001) %MON dynstat_wvel_min             =  -2.0486587355861E-04
(PID.TID 0000.0001) %MON dynstat_wvel_mean            =   1.3546872911592E-10
(PID.TID 0000.0001) %MON dynstat_wvel_sd              =   3.8316808226670E-06
(PID.TID 0000.0001) %MON dynstat_wvel_del2            =   2.6458097968904E-08
(PID.TID 0000.0001) %MON dynstat_theta_max            =   3.0970605067494E+01
(PID.TID 0000.0001) %MON dynstat_theta_min            =  -3.0651017096893E+00
(PID.TID 0000.0001) %MON dynstat_theta_mean           =   3.9093032893790E+00
(PID.TID 0000.0001) %MON dynstat_theta_sd             =   4.5712092990063E+00
(PID.TID 0000.0001) %MON dynstat_theta_del2           =   2.6622661540129E-03
(PID.TID 0000.0001) %MON dynstat_salt_max             =   4.1388108458643E+01
(PID.TID 0000.0001) %MON dynstat_salt_min             =   1.8384284639859E+01
(PID.TID 0000.0001) %MON dynstat_salt_mean            =   3.4772069766607E+01
(PID.TID 0000.0001) %MON dynstat_salt_sd              =   5.3145390854990E-01
(PID.TID 0000.0001) %MON dynstat_salt_del2            =   8.0906895074904E-04
(PID.TID 0000.0001) %MON dynstat_sst_max              =   3.0970605067494E+01
(PID.TID 0000.0001) %MON dynstat_sst_min              =  -1.9684546232404E+00
(PID.TID 0000.0001) %MON dynstat_sst_mean             =   1.8124169972231E+01
(PID.TID 0000.0001) %MON dynstat_sst_sd               =   9.7876155116854E+00
(PID.TID 0000.0001) %MON dynstat_sst_del2             =   1.5597812292418E-02
(PID.TID 0000.0001) %MON dynstat_sss_max              =   4.1388108458643E+01
(PID.TID 0000.0001) %MON dynstat_sss_min              =   1.8384284639859E+01
(PID.TID 0000.0001) %MON dynstat_sss_mean             =   3.4631074132188E+01
(PID.TID 0000.0001) %MON dynstat_sss_sd               =   1.4677997059870E+00
(PID.TID 0000.0001) %MON dynstat_sss_del2             =   8.1087257603628E-03
(PID.TID 0000.0001) %MON forcing_qnet_max             =   4.5325934619927E+02
(PID.TID 0000.0001) %MON forcing_qnet_min             =  -2.1308103454435E+02
(PID.TID 0000.0001) %MON forcing_qnet_mean            =  -1.2170279128930E+01
(PID.TID 0000.0001) %MON forcing_qnet_sd              =   1.1525031618572E+02
(PID.TID 0000.0001) %MON forcing_qnet_del2            =   4.1847271762860E-01
(PID.TID 0000.0001) %MON forcing_qsw_max              =   0.0000000000000E+00
(PID.TID 0000.0001) %MON forcing_qsw_min              =   0.0000000000000E+00
(PID.TID 0000.0001) %MON forcing_qsw_mean             =   0.0000000000000E+00
(PID.TID 0000.0001) %MON forcing_qsw_sd               =   0.0000000000000E+00
(PID.TID 0000.0001) %MON forcing_qsw_del2             =   0.0000000000000E+00
(PID.TID 0000.0001) %MON forcing_empmr_max            =   7.6494447208479E-05
(PID.TID 0000.0001) %MON forcing_empmr_min            =  -1.5362614137596E-04
(PID.TID 0000.0001) %MON forcing_empmr_mean           =   4.1932798010144E-22
(PID.TID 0000.0001) %MON forcing_empmr_sd             =   2.4051723601802E-05
(PID.TID 0000.0001) %MON forcing_empmr_del2           =   1.2276157049243E-07
(PID.TID 0000.0001) %MON forcing_fu_max               =   2.4751003717351E-01
(PID.TID 0000.0001) %MON forcing_fu_min               =  -2.0922350306190E-01
(PID.TID 0000.0001) %MON forcing_fu_mean              =  -4.4609227933959E-03
(PID.TID 0000.0001) %MON forcing_fu_sd                =   6.3970406478471E-02
(PID.TID 0000.0001) %MON forcing_fu_del2              =   2.0564087338622E-04
(PID.TID 0000.0001) %MON forcing_fv_max               =   2.5817746358114E-01
(PID.TID 0000.0001) %MON forcing_fv_min               =  -3.2849573188785E-01
(PID.TID 0000.0001) %MON forcing_fv_mean              =  -1.3692352610712E-02
(PID.TID 0000.0001) %MON forcing_fv_sd                =   7.5242720295677E-02
(PID.TID 0000.0001) %MON forcing_fv_del2              =   2.3430754301775E-04
(PID.TID 0000.0001) %MON trAdv_CFL_u_max              =   8.0996369771638E-02
(PID.TID 0000.0001) %MON trAdv_CFL_v_max              =   8.0785532060135E-02
(PID.TID 0000.0001) %MON trAdv_CFL_w_max              =   7.3779281030394E-02
(PID.TID 0000.0001) %MON advcfl_uvel_max              =   8.1451701273637E-02
(PID.TID 0000.0001) %MON advcfl_vvel_max              =   7.5924842292588E-02
(PID.TID 0000.0001) %MON advcfl_wvel_max              =   6.6794005567787E-02
(PID.TID 0000.0001) %MON advcfl_W_hf_max              =   7.3779281030394E-02
(PID.TID 0000.0001) %MON pe_b_mean                    =   4.7759325339308E-04
(PID.TID 0000.0001) %MON ke_max                       =   4.0384893164459E-02
(PID.TID 0000.0001) %MON ke_mean                      =   1.4076646313225E-04
(PID.TID 0000.0001) %MON ke_vol                       =   1.3398024453628E+18
(PID.TID 0000.0001) %MON vort_r_min                   =  -1.1962822199297E-06
(PID.TID 0000.0001) %MON vort_r_max                   =   1.2182731783086E-06
(PID.TID 0000.0001) %MON vort_a_mean                  =  -2.0493733748264E-05
(PID.TID 0000.0001) %MON vort_a_sd                    =   7.5053947361798E-05
(PID.TID 0000.0001) %MON vort_p_mean                  =  -2.4715773634515E-05
(PID.TID 0000.0001) %MON vort_p_sd                    =   1.2777076780185E-04
(PID.TID 0000.0001) %MON surfExpan_theta_mean         =   4.6742424560867E-08
(PID.TID 0000.0001) %MON surfExpan_salt_mean          =   1.4053523329944E-08
(PID.TID 0000.0001) // =======================================================
(PID.TID 0000.0001) // End MONITOR dynamic field statistics
(PID.TID 0000.0001) // =======================================================
 DRIVER_GET_EXPORT_STATE_3D:MASK : Associated & shape =          32          32          15
  Finished plug run method 
 AGCM Date: 2000/04/14  Time: 21:45:00
      Real*4 Resource Parameter USE_RRTMG_SORAD:    0.00000    
      Real*4 Resource Parameter USE_RRTMG_IRRAD:    0.00000    
   Integer*4 Resource Parameter NUM_BANDS:          18
  Starting plug run method 
 EXTERNAL_FIELDS_LOAD,     72003 : iP,iLd,i0,i1=   12    1   12    1 ; Wght=  0.4000000000  0.6000000000
 cg2d: Sum(rhs),rhsMax =  -2.25242047235952E-12  4.27185687491110E+00
(PID.TID 0000.0001)      cg2d_init_res =   4.09351530750851E-02
(PID.TID 0000.0001)      cg2d_iters(min,last) =      -1      86
(PID.TID 0000.0001)      cg2d_last_res =   9.19289490788742E-10
(PID.TID 0000.0001) // =======================================================
(PID.TID 0000.0001) // Begin MONITOR dynamic field statistics
(PID.TID 0000.0001) // =======================================================
(PID.TID 0000.0001) %MON time_tsnumber                =                 72004
(PID.TID 0000.0001) %MON time_secondsf                =   6.2211456000000E+09
(PID.TID 0000.0001) %MON dynstat_eta_max              =   9.1566667981877E-01
(PID.TID 0000.0001) %MON dynstat_eta_min              =  -1.6160863055281E+00
(PID.TID 0000.0001) %MON dynstat_eta_mean             =   1.4427566214562E-14
(PID.TID 0000.0001) %MON dynstat_eta_sd               =   5.9865142567372E-01
(PID.TID 0000.0001) %MON dynstat_eta_del2             =   7.8683630317921E-04
(PID.TID 0000.0001) %MON dynstat_uvel_max             =   1.8760566804490E-01
(PID.TID 0000.0001) %MON dynstat_uvel_min             =  -2.8687660690235E-01
(PID.TID 0000.0001) %MON dynstat_uvel_mean            =  -4.8831807752903E-04
(PID.TID 0000.0001) %MON dynstat_uvel_sd              =   1.2019361713005E-02
(PID.TID 0000.0001) %MON dynstat_uvel_del2            =   5.1140139061998E-05
(PID.TID 0000.0001) %MON dynstat_vvel_max             =   1.7436971821509E-01
(PID.TID 0000.0001) %MON dynstat_vvel_min             =  -2.2508931369747E-01
(PID.TID 0000.0001) %MON dynstat_vvel_mean            =  -4.0364636395911E-04
(PID.TID 0000.0001) %MON dynstat_vvel_sd              =   1.2649915765361E-02
(PID.TID 0000.0001) %MON dynstat_vvel_del2            =   5.0509695718151E-05
(PID.TID 0000.0001) %MON dynstat_wvel_max             =   1.0373917668275E-04
(PID.TID 0000.0001) %MON dynstat_wvel_min             =  -2.0503507397417E-04
(PID.TID 0000.0001) %MON dynstat_wvel_mean            =   1.2621478264186E-10
(PID.TID 0000.0001) %MON dynstat_wvel_sd              =   3.8292403665729E-06
(PID.TID 0000.0001) %MON dynstat_wvel_del2            =   2.6458073340080E-08
(PID.TID 0000.0001) %MON dynstat_theta_max            =   3.0984465451796E+01
(PID.TID 0000.0001) %MON dynstat_theta_min            =  -3.0816964649044E+00
(PID.TID 0000.0001) %MON dynstat_theta_mean           =   3.9093612252648E+00
(PID.TID 0000.0001) %MON dynstat_theta_sd             =   4.5712447782230E+00
(PID.TID 0000.0001) %MON dynstat_theta_del2           =   2.6691001588328E-03
(PID.TID 0000.0001) %MON dynstat_salt_max             =   4.1388706398213E+01
(PID.TID 0000.0001) %MON dynstat_salt_min             =   1.8384589169267E+01
(PID.TID 0000.0001) %MON dynstat_salt_mean            =   3.4772070181575E+01
(PID.TID 0000.0001) %MON dynstat_salt_sd              =   5.3145434449528E-01
(PID.TID 0000.0001) %MON dynstat_salt_del2            =   8.1124480766873E-04
(PID.TID 0000.0001) %MON dynstat_sst_max              =   3.0984465451796E+01
(PID.TID 0000.0001) %MON dynstat_sst_min              =  -1.9696734663293E+00
(PID.TID 0000.0001) %MON dynstat_sst_mean             =   1.8128204061292E+01
(PID.TID 0000.0001) %MON dynstat_sst_sd               =   9.7843230857586E+00
(PID.TID 0000.0001) %MON dynstat_sst_del2             =   1.5733361861449E-02
(PID.TID 0000.0001) %MON dynstat_sss_max              =   4.1388706398213E+01
(PID.TID 0000.0001) %MON dynstat_sss_min              =   1.8384589169267E+01
(PID.TID 0000.0001) %MON dynstat_sss_mean             =   3.4630817448080E+01
(PID.TID 0000.0001) %MON dynstat_sss_sd               =   1.4676289017930E+00
(PID.TID 0000.0001) %MON dynstat_sss_del2             =   8.1343741307602E-03
(PID.TID 0000.0001) %MON forcing_qnet_max             =   4.5316488523137E+02
(PID.TID 0000.0001) %MON forcing_qnet_min             =  -2.1210868055774E+02
(PID.TID 0000.0001) %MON forcing_qnet_mean            =  -1.2182507497573E+01
(PID.TID 0000.0001) %MON forcing_qnet_sd              =   1.1505843893838E+02
(PID.TID 0000.0001) %MON forcing_qnet_del2            =   4.1968961974738E-01
(PID.TID 0000.0001) %MON forcing_qsw_max              =   0.0000000000000E+00
(PID.TID 0000.0001) %MON forcing_qsw_min              =   0.0000000000000E+00
(PID.TID 0000.0001) %MON forcing_qsw_mean             =   0.0000000000000E+00
(PID.TID 0000.0001) %MON forcing_qsw_sd               =   0.0000000000000E+00
(PID.TID 0000.0001) %MON forcing_qsw_del2             =   0.0000000000000E+00
(PID.TID 0000.0001) %MON forcing_empmr_max            =   7.6494447208479E-05
(PID.TID 0000.0001) %MON forcing_empmr_min            =  -1.5362614137596E-04
(PID.TID 0000.0001) %MON forcing_empmr_mean           =   4.1932798010144E-22
(PID.TID 0000.0001) %MON forcing_empmr_sd             =   2.4051723601802E-05
(PID.TID 0000.0001) %MON forcing_empmr_del2           =   1.2276157049243E-07
(PID.TID 0000.0001) %MON forcing_fu_max               =   2.4746198790331E-01
(PID.TID 0000.0001) %MON forcing_fu_min               =  -2.1236929972025E-01
(PID.TID 0000.0001) %MON forcing_fu_mean              =  -4.4174438576624E-03
(PID.TID 0000.0001) %MON forcing_fu_sd                =   6.4007100989353E-02
(PID.TID 0000.0001) %MON forcing_fu_del2              =   2.0627372714610E-04
(PID.TID 0000.0001) %MON forcing_fv_max               =   2.6086070515377E-01
(PID.TID 0000.0001) %MON forcing_fv_min               =  -3.2928363582178E-01
(PID.TID 0000.0001) %MON forcing_fv_mean              =  -1.3696278156640E-02
(PID.TID 0000.0001) %MON forcing_fv_sd                =   7.5302823094907E-02
(PID.TID 0000.0001) %MON forcing_fv_del2              =   2.3489534074143E-04
(PID.TID 0000.0001) %MON trAdv_CFL_u_max              =   8.0908808173921E-02
(PID.TID 0000.0001) %MON trAdv_CFL_v_max              =   8.0871077375920E-02
(PID.TID 0000.0001) %MON trAdv_CFL_w_max              =   7.3840227817181E-02
(PID.TID 0000.0001) %MON advcfl_uvel_max              =   8.1363647389931E-02
(PID.TID 0000.0001) %MON advcfl_vvel_max              =   7.6005303612020E-02
(PID.TID 0000.0001) %MON advcfl_wvel_max              =   6.6849171288184E-02
(PID.TID 0000.0001) %MON advcfl_W_hf_max              =   7.3840227817181E-02
(PID.TID 0000.0001) %MON pe_b_mean                    =   4.7743308911753E-04
(PID.TID 0000.0001) %MON ke_max                       =   4.0272963400306E-02
(PID.TID 0000.0001) %MON ke_mean                      =   1.4079135917217E-04
(PID.TID 0000.0001) %MON ke_vol                       =   1.3398024453628E+18
(PID.TID 0000.0001) %MON vort_r_min                   =  -1.2008389808301E-06
(PID.TID 0000.0001) %MON vort_r_max                   =   1.2199250124879E-06
(PID.TID 0000.0001) %MON vort_a_mean                  =  -2.0493733748264E-05
(PID.TID 0000.0001) %MON vort_a_sd                    =   7.5053947216146E-05
(PID.TID 0000.0001) %MON vort_p_mean                  =  -2.4715773626040E-05
(PID.TID 0000.0001) %MON vort_p_sd                    =   1.2777076367154E-04
(PID.TID 0000.0001) %MON surfExpan_theta_mean         =   4.6891341671172E-08
(PID.TID 0000.0001) %MON surfExpan_salt_mean          =   1.4108625986454E-08
(PID.TID 0000.0001) // =======================================================
(PID.TID 0000.0001) // End MONITOR dynamic field statistics
(PID.TID 0000.0001) // =======================================================
 DRIVER_GET_EXPORT_STATE_3D:MASK : Associated & shape =          32          32          15
  Finished plug run method 
 AGCM Date: 2000/04/14  Time: 22:00:00
 
 Writing:     40 Slices (  1 Nodes,  1 PartitionRoot) to File:  TEST.mit_ocn.20000414_2200z.nc4
 
  Starting plug run method 
 EXTERNAL_FIELDS_LOAD,     72004 : iP,iLd,i0,i1=   12    1   12    1 ; Wght=  0.3666666667  0.6333333333
 cg2d: Sum(rhs),rhsMax =  -2.25952589971712E-12  4.26946649194377E+00
(PID.TID 0000.0001)      cg2d_init_res =   3.55346818387124E-02
(PID.TID 0000.0001)      cg2d_iters(min,last) =      -1      86
(PID.TID 0000.0001)      cg2d_last_res =   8.49272203158059E-10
(PID.TID 0000.0001) // =======================================================
(PID.TID 0000.0001) // Begin MONITOR dynamic field statistics
(PID.TID 0000.0001) // =======================================================
(PID.TID 0000.0001) %MON time_tsnumber                =                 72005
(PID.TID 0000.0001) %MON time_secondsf                =   6.2212320000000E+09
(PID.TID 0000.0001) %MON dynstat_eta_max              =   9.1410272971036E-01
(PID.TID 0000.0001) %MON dynstat_eta_min              =  -1.6155862284203E+00
(PID.TID 0000.0001) %MON dynstat_eta_mean             =   1.4152755429523E-14
(PID.TID 0000.0001) %MON dynstat_eta_sd               =   5.9855135862063E-01
(PID.TID 0000.0001) %MON dynstat_eta_del2             =   7.8716782726440E-04
(PID.TID 0000.0001) %MON dynstat_uvel_max             =   1.8774880755039E-01
(PID.TID 0000.0001) %MON dynstat_uvel_min             =  -2.8655210941430E-01
(PID.TID 0000.0001) %MON dynstat_uvel_mean            =  -4.8799357186047E-04
(PID.TID 0000.0001) %MON dynstat_uvel_sd              =   1.2018525675616E-02
(PID.TID 0000.0001) %MON dynstat_uvel_del2            =   5.1120032784115E-05
(PID.TID 0000.0001) %MON dynstat_vvel_max             =   1.7452426847806E-01
(PID.TID 0000.0001) %MON dynstat_vvel_min             =  -2.2504309060687E-01
(PID.TID 0000.0001) %MON dynstat_vvel_mean            =  -4.0344357048029E-04
(PID.TID 0000.0001) %MON dynstat_vvel_sd              =   1.2652634216947E-02
(PID.TID 0000.0001) %MON dynstat_vvel_del2            =   5.0480305905976E-05
(PID.TID 0000.0001) %MON dynstat_wvel_max             =   1.0403839817341E-04
(PID.TID 0000.0001) %MON dynstat_wvel_min             =  -2.0514922731899E-04
(PID.TID 0000.0001) %MON dynstat_wvel_mean            =   1.1385274278430E-10
(PID.TID 0000.0001) %MON dynstat_wvel_sd              =   3.8266841151841E-06
(PID.TID 0000.0001) %MON dynstat_wvel_del2            =   2.6457887523224E-08
(PID.TID 0000.0001) %MON dynstat_theta_max            =   3.0997846677153E+01
(PID.TID 0000.0001) %MON dynstat_theta_min            =  -3.0986215318039E+00
(PID.TID 0000.0001) %MON dynstat_theta_mean           =   3.9094192253569E+00
(PID.TID 0000.0001) %MON dynstat_theta_sd             =   4.5712879127626E+00
(PID.TID 0000.0001) %MON dynstat_theta_del2           =   2.6709894070275E-03
(PID.TID 0000.0001) %MON dynstat_salt_max             =   4.1389296479706E+01
(PID.TID 0000.0001) %MON dynstat_salt_min             =   1.8384900011065E+01
(PID.TID 0000.0001) %MON dynstat_salt_mean            =   3.4772070612608E+01
(PID.TID 0000.0001) %MON dynstat_salt_sd              =   5.3145547313698E-01
(PID.TID 0000.0001) %MON dynstat_salt_del2            =   8.1180036783690E-04
(PID.TID 0000.0001) %MON dynstat_sst_max              =   3.0997846677153E+01
(PID.TID 0000.0001) %MON dynstat_sst_min              =  -1.9709038208548E+00
(PID.TID 0000.0001) %MON dynstat_sst_mean             =   1.8132101588362E+01
(PID.TID 0000.0001) %MON dynstat_sst_sd               =   9.7814065103611E+00
(PID.TID 0000.0001) %MON dynstat_sst_del2             =   1.5788642157922E-02
(PID.TID 0000.0001) %MON dynstat_sss_max              =   4.1389296479706E+01
(PID.TID 0000.0001) %MON dynstat_sss_min              =   1.8384900011065E+01
(PID.TID 0000.0001) %MON dynstat_sss_mean             =   3.4630533090464E+01
(PID.TID 0000.0001) %MON dynstat_sss_sd               =   1.4675000567848E+00
(PID.TID 0000.0001) %MON dynstat_sss_del2             =   8.1423616090287E-03
(PID.TID 0000.0001) %MON forcing_qnet_max             =   4.5307042426348E+02
(PID.TID 0000.0001) %MON forcing_qnet_min             =  -2.1113632657113E+02
(PID.TID 0000.0001) %MON forcing_qnet_mean            =  -1.2194735866216E+01
(PID.TID 0000.0001) %MON forcing_qnet_sd              =   1.1487317231679E+02
(PID.TID 0000.0001) %MON forcing_qnet_del2            =   4.2102601790904E-01
(PID.TID 0000.0001) %MON forcing_qsw_max              =   0.0000000000000E+00
(PID.TID 0000.0001) %MON forcing_qsw_min              =   0.0000000000000E+00
(PID.TID 0000.0001) %MON forcing_qsw_mean             =   0.0000000000000E+00
(PID.TID 0000.0001) %MON forcing_qsw_sd               =   0.0000000000000E+00
(PID.TID 0000.0001) %MON forcing_qsw_del2             =   0.0000000000000E+00
(PID.TID 0000.0001) %MON forcing_empmr_max            =   7.6494447208479E-05
(PID.TID 0000.0001) %MON forcing_empmr_min            =  -1.5362614137596E-04
(PID.TID 0000.0001) %MON forcing_empmr_mean           =   4.1932798010144E-22
(PID.TID 0000.0001) %MON forcing_empmr_sd             =   2.4051723601802E-05
(PID.TID 0000.0001) %MON forcing_empmr_del2           =   1.2276157049243E-07
(PID.TID 0000.0001) %MON forcing_fu_max               =   2.4741393863310E-01
(PID.TID 0000.0001) %MON forcing_fu_min               =  -2.1551509637860E-01
(PID.TID 0000.0001) %MON forcing_fu_mean              =  -4.3739649219290E-03
(PID.TID 0000.0001) %MON forcing_fu_sd                =   6.4057227278753E-02
(PID.TID 0000.0001) %MON forcing_fu_del2              =   2.0714462929353E-04
(PID.TID 0000.0001) %MON forcing_fv_max               =   2.6354394672640E-01
(PID.TID 0000.0001) %MON forcing_fv_min               =  -3.3007153975572E-01
(PID.TID 0000.0001) %MON forcing_fv_mean              =  -1.3700203702567E-02
(PID.TID 0000.0001) %MON forcing_fv_sd                =   7.5373226864996E-02
(PID.TID 0000.0001) %MON forcing_fv_del2              =   2.3568352349763E-04
(PID.TID 0000.0001) %MON trAdv_CFL_u_max              =   8.0817289107877E-02
(PID.TID 0000.0001) %MON trAdv_CFL_v_max              =   8.0942692184883E-02
(PID.TID 0000.0001) %MON trAdv_CFL_w_max              =   7.3881354241003E-02
(PID.TID 0000.0001) %MON advcfl_uvel_max              =   8.1271613747030E-02
(PID.TID 0000.0001) %MON advcfl_vvel_max              =   7.6072669894311E-02
(PID.TID 0000.0001) %MON advcfl_wvel_max              =   6.6886389586267E-02
(PID.TID 0000.0001) %MON advcfl_W_hf_max              =   7.3881354241003E-02
(PID.TID 0000.0001) %MON pe_b_mean                    =   4.7727349264017E-04
(PID.TID 0000.0001) %MON ke_max                       =   4.0157792060151E-02
(PID.TID 0000.0001) %MON ke_mean                      =   1.4081381852740E-04
(PID.TID 0000.0001) %MON ke_vol                       =   1.3398024453628E+18
(PID.TID 0000.0001) %MON vort_r_min                   =  -1.2056443432408E-06
(PID.TID 0000.0001) %MON vort_r_max                   =   1.2217837164874E-06
(PID.TID 0000.0001) %MON vort_a_mean                  =  -2.0493733748264E-05
(PID.TID 0000.0001) %MON vort_a_sd                    =   7.5053947089416E-05
(PID.TID 0000.0001) %MON vort_p_mean                  =  -2.4715773614181E-05
(PID.TID 0000.0001) %MON vort_p_sd                    =   1.2777075984016E-04
(PID.TID 0000.0001) %MON surfExpan_theta_mean         =   4.6999518728769E-08
(PID.TID 0000.0001) %MON surfExpan_salt_mean          =   1.4148847213393E-08
(PID.TID 0000.0001) // =======================================================
(PID.TID 0000.0001) // End MONITOR dynamic field statistics
(PID.TID 0000.0001) // =======================================================
 DRIVER_GET_EXPORT_STATE_3D:MASK : Associated & shape =          32          32          15
  Finished plug run method 
 AGCM Date: 2000/04/14  Time: 22:15:00
  Starting plug run method 
 EXTERNAL_FIELDS_LOAD,     72005 : iP,iLd,i0,i1=   12    1   12    1 ; Wght=  0.3333333333  0.6666666667
 cg2d: Sum(rhs),rhsMax =  -2.29505303650512E-12  4.26728141631992E+00
(PID.TID 0000.0001)      cg2d_init_res =   3.45997408874173E-02
(PID.TID 0000.0001)      cg2d_iters(min,last) =      -1      86
(PID.TID 0000.0001)      cg2d_last_res =   8.32814104509869E-10
(PID.TID 0000.0001) // =======================================================
(PID.TID 0000.0001) // Begin MONITOR dynamic field statistics
(PID.TID 0000.0001) // =======================================================
(PID.TID 0000.0001) %MON time_tsnumber                =                 72006
(PID.TID 0000.0001) %MON time_secondsf                =   6.2213184000000E+09
(PID.TID 0000.0001) %MON dynstat_eta_max              =   9.1257900546504E-01
(PID.TID 0000.0001) %MON dynstat_eta_min              =  -1.6151030151817E+00
(PID.TID 0000.0001) %MON dynstat_eta_mean             =   1.4482528371570E-14
(PID.TID 0000.0001) %MON dynstat_eta_sd               =   5.9845085819736E-01
(PID.TID 0000.0001) %MON dynstat_eta_del2             =   7.8751191304687E-04
(PID.TID 0000.0001) %MON dynstat_uvel_max             =   1.8782425626121E-01
(PID.TID 0000.0001) %MON dynstat_uvel_min             =  -2.8621350261251E-01
(PID.TID 0000.0001) %MON dynstat_uvel_mean            =  -4.8764633684392E-04
(PID.TID 0000.0001) %MON dynstat_uvel_sd              =   1.2017676133837E-02
(PID.TID 0000.0001) %MON dynstat_uvel_del2            =   5.1099911473829E-05
(PID.TID 0000.0001) %MON dynstat_vvel_max             =   1.7464794412312E-01
(PID.TID 0000.0001) %MON dynstat_vvel_min             =  -2.2498944511381E-01
(PID.TID 0000.0001) %MON dynstat_vvel_mean            =  -4.0317914263729E-04
(PID.TID 0000.0001) %MON dynstat_vvel_sd              =   1.2655146952517E-02
(PID.TID 0000.0001) %MON dynstat_vvel_del2            =   5.0452377315465E-05
(PID.TID 0000.0001) %MON dynstat_wvel_max             =   1.0438677677820E-04
(PID.TID 0000.0001) %MON dynstat_wvel_min             =  -2.0520796986629E-04
(PID.TID 0000.0001) %MON dynstat_wvel_mean            =   1.0333975708112E-10
(PID.TID 0000.0001) %MON dynstat_wvel_sd              =   3.8240663044981E-06
(PID.TID 0000.0001) %MON dynstat_wvel_del2            =   2.6457824953960E-08
(PID.TID 0000.0001) %MON dynstat_theta_max            =   3.1010765692353E+01
(PID.TID 0000.0001) %MON dynstat_theta_min            =  -3.1158502214032E+00
(PID.TID 0000.0001) %MON dynstat_theta_mean           =   3.9094772955627E+00
(PID.TID 0000.0001) %MON dynstat_theta_sd             =   4.5713369694488E+00
(PID.TID 0000.0001) %MON dynstat_theta_del2           =   2.6730066678290E-03
(PID.TID 0000.0001) %MON dynstat_salt_max             =   4.1389879300245E+01
(PID.TID 0000.0001) %MON dynstat_salt_min             =   1.8385217019099E+01
(PID.TID 0000.0001) %MON dynstat_salt_mean            =   3.4772071060093E+01
(PID.TID 0000.0001) %MON dynstat_salt_sd              =   5.3145602619134E-01
(PID.TID 0000.0001) %MON dynstat_salt_del2            =   8.1235149260496E-04
(PID.TID 0000.0001) %MON dynstat_sst_max              =   3.1010765692353E+01
(PID.TID 0000.0001) %MON dynstat_sst_min              =  -1.9726522090698E+00
(PID.TID 0000.0001) %MON dynstat_sst_mean             =   1.8135904711617E+01
(PID.TID 0000.0001) %MON dynstat_sst_sd               =   9.7786258709141E+00
(PID.TID 0000.0001) %MON dynstat_sst_del2             =   1.5844451572134E-02
(PID.TID 0000.0001) %MON dynstat_sss_max              =   4.1389879300245E+01
(PID.TID 0000.0001) %MON dynstat_sss_min              =   1.8385217019099E+01
(PID.TID 0000.0001) %MON dynstat_sss_mean             =   3.4630200864243E+01
(PID.TID 0000.0001) %MON dynstat_sss_sd               =   1.4673002636473E+00
(PID.TID 0000.0001) %MON dynstat_sss_del2             =   8.1500453289676E-03
(PID.TID 0000.0001) %MON forcing_qnet_max             =   4.5297596329558E+02
(PID.TID 0000.0001) %MON forcing_qnet_min             =  -2.1016397258453E+02
(PID.TID 0000.0001) %MON forcing_qnet_mean            =  -1.2206964234860E+01
(PID.TID 0000.0001) %MON forcing_qnet_sd              =   1.1469454835547E+02
(PID.TID 0000.0001) %MON forcing_qnet_del2            =   4.2248077813955E-01
(PID.TID 0000.0001) %MON forcing_qsw_max              =   0.0000000000000E+00
(PID.TID 0000.0001) %MON forcing_qsw_min              =   0.0000000000000E+00
(PID.TID 0000.0001) %MON forcing_qsw_mean             =   0.0000000000000E+00
(PID.TID 0000.0001) %MON forcing_qsw_sd               =   0.0000000000000E+00
(PID.TID 0000.0001) %MON forcing_qsw_del2             =   0.0000000000000E+00
(PID.TID 0000.0001) %MON forcing_empmr_max            =   7.6494447208479E-05
(PID.TID 0000.0001) %MON forcing_empmr_min            =  -1.5362614137596E-04
(PID.TID 0000.0001) %MON forcing_empmr_mean           =   4.1932798010144E-22
(PID.TID 0000.0001) %MON forcing_empmr_sd             =   2.4051723601802E-05
(PID.TID 0000.0001) %MON forcing_empmr_del2           =   1.2276157049243E-07
(PID.TID 0000.0001) %MON forcing_fu_max               =   2.4736588936290E-01
(PID.TID 0000.0001) %MON forcing_fu_min               =  -2.1866089303695E-01
(PID.TID 0000.0001) %MON forcing_fu_mean              =  -4.3304859861956E-03
(PID.TID 0000.0001) %MON forcing_fu_sd                =   6.4120753845867E-02
(PID.TID 0000.0001) %MON forcing_fu_del2              =   2.0825059330114E-04
(PID.TID 0000.0001) %MON forcing_fv_max               =   2.6622718829904E-01
(PID.TID 0000.0001) %MON forcing_fv_min               =  -3.3085944368965E-01
(PID.TID 0000.0001) %MON forcing_fv_mean              =  -1.3704129248494E-02
(PID.TID 0000.0001) %MON forcing_fv_sd                =   7.5453902771370E-02
(PID.TID 0000.0001) %MON forcing_fv_del2              =   2.3667008926707E-04
(PID.TID 0000.0001) %MON trAdv_CFL_u_max              =   8.0721790783113E-02
(PID.TID 0000.0001) %MON trAdv_CFL_v_max              =   8.0999988939645E-02
(PID.TID 0000.0001) %MON trAdv_CFL_w_max              =   7.3902524708793E-02
(PID.TID 0000.0001) %MON advcfl_uvel_max              =   8.1175578435115E-02
(PID.TID 0000.0001) %MON advcfl_vvel_max              =   7.6126578365625E-02
(PID.TID 0000.0001) %MON advcfl_wvel_max              =   6.6905541873387E-02
(PID.TID 0000.0001) %MON advcfl_W_hf_max              =   7.3902524708793E-02
(PID.TID 0000.0001) %MON pe_b_mean                    =   4.7711323183572E-04
(PID.TID 0000.0001) %MON ke_max                       =   4.0039438310707E-02
(PID.TID 0000.0001) %MON ke_mean                      =   1.4083368971257E-04
(PID.TID 0000.0001) %MON ke_vol                       =   1.3398024453628E+18
(PID.TID 0000.0001) %MON vort_r_min                   =  -1.2106669757820E-06
(PID.TID 0000.0001) %MON vort_r_max                   =   1.2238134606747E-06
(PID.TID 0000.0001) %MON vort_a_mean                  =  -2.0493733748264E-05
(PID.TID 0000.0001) %MON vort_a_sd                    =   7.5053946978928E-05
(PID.TID 0000.0001) %MON vort_p_mean                  =  -2.4715773599747E-05
(PID.TID 0000.0001) %MON vort_p_sd                    =   1.2777075625768E-04
(PID.TID 0000.0001) %MON surfExpan_theta_mean         =   4.7136277420316E-08
(PID.TID 0000.0001) %MON surfExpan_salt_mean          =   1.4177961435157E-08
(PID.TID 0000.0001) // =======================================================
(PID.TID 0000.0001) // End MONITOR dynamic field statistics
(PID.TID 0000.0001) // =======================================================
 DRIVER_GET_EXPORT_STATE_3D:MASK : Associated & shape =          32          32          15
  Finished plug run method 
 AGCM Date: 2000/04/14  Time: 22:30:00
  Starting plug run method 
 EXTERNAL_FIELDS_LOAD,     72006 : iP,iLd,i0,i1=   12    1   12    1 ; Wght=  0.3000000000  0.7000000000
 cg2d: Sum(rhs),rhsMax =  -2.18847162614111E-12  4.26529429802506E+00
(PID.TID 0000.0001)      cg2d_init_res =   3.45806342161225E-02
(PID.TID 0000.0001)      cg2d_iters(min,last) =      -1      86
(PID.TID 0000.0001)      cg2d_last_res =   8.29935442968464E-10
(PID.TID 0000.0001) // =======================================================
(PID.TID 0000.0001) // Begin MONITOR dynamic field statistics
(PID.TID 0000.0001) // =======================================================
(PID.TID 0000.0001) %MON time_tsnumber                =                 72007
(PID.TID 0000.0001) %MON time_secondsf                =   6.2214048000000E+09
(PID.TID 0000.0001) %MON dynstat_eta_max              =   9.1111196649027E-01
(PID.TID 0000.0001) %MON dynstat_eta_min              =  -1.6146313879024E+00
(PID.TID 0000.0001) %MON dynstat_eta_mean             =   1.4372604057554E-14
(PID.TID 0000.0001) %MON dynstat_eta_sd               =   5.9835067838182E-01
(PID.TID 0000.0001) %MON dynstat_eta_del2             =   7.8787459450620E-04
(PID.TID 0000.0001) %MON dynstat_uvel_max             =   1.8783173167550E-01
(PID.TID 0000.0001) %MON dynstat_uvel_min             =  -2.8586067940553E-01
(PID.TID 0000.0001) %MON dynstat_uvel_mean            =  -4.8727008547016E-04
(PID.TID 0000.0001) %MON dynstat_uvel_sd              =   1.2016874639248E-02
(PID.TID 0000.0001) %MON dynstat_uvel_del2            =   5.1080163093806E-05
(PID.TID 0000.0001) %MON dynstat_vvel_max             =   1.7473987250081E-01
(PID.TID 0000.0001) %MON dynstat_vvel_min             =  -2.2492870335555E-01
(PID.TID 0000.0001) %MON dynstat_vvel_mean            =  -4.0285959994422E-04
(PID.TID 0000.0001) %MON dynstat_vvel_sd              =   1.2657384693206E-02
(PID.TID 0000.0001) %MON dynstat_vvel_del2            =   5.0426062708662E-05
(PID.TID 0000.0001) %MON dynstat_wvel_max             =   1.0477739210145E-04
(PID.TID 0000.0001) %MON dynstat_wvel_min             =  -2.0521143388508E-04
(PID.TID 0000.0001) %MON dynstat_wvel_mean            =   9.6791908417348E-11
(PID.TID 0000.0001) %MON dynstat_wvel_sd              =   3.8214353369968E-06
(PID.TID 0000.0001) %MON dynstat_wvel_del2            =   2.6458153285383E-08
(PID.TID 0000.0001) %MON dynstat_theta_max            =   3.1023238568759E+01
(PID.TID 0000.0001) %MON dynstat_theta_min            =  -3.1333560169493E+00
(PID.TID 0000.0001) %MON dynstat_theta_mean           =   3.9095354559597E+00
(PID.TID 0000.0001) %MON dynstat_theta_sd             =   4.5713914371946E+00
(PID.TID 0000.0001) %MON dynstat_theta_del2           =   2.6773616845366E-03
(PID.TID 0000.0001) %MON dynstat_salt_max             =   4.1390455844669E+01
(PID.TID 0000.0001) %MON dynstat_salt_min             =   1.8385540065034E+01
(PID.TID 0000.0001) %MON dynstat_salt_mean            =   3.4772071524658E+01
(PID.TID 0000.0001) %MON dynstat_salt_sd              =   5.3145557839248E-01
(PID.TID 0000.0001) %MON dynstat_salt_del2            =   8.1363389306572E-04
(PID.TID 0000.0001) %MON dynstat_sst_max              =   3.1023238568759E+01
(PID.TID 0000.0001) %MON dynstat_sst_min              =  -1.9748882215099E+00
(PID.TID 0000.0001) %MON dynstat_sst_mean             =   1.8139743612972E+01
(PID.TID 0000.0001) %MON dynstat_sst_sd               =   9.7759641153243E+00
(PID.TID 0000.0001) %MON dynstat_sst_del2             =   1.5940097483862E-02
(PID.TID 0000.0001) %MON dynstat_sss_max              =   4.1390455844669E+01
(PID.TID 0000.0001) %MON dynstat_sss_min              =   1.8385540065034E+01
(PID.TID 0000.0001) %MON dynstat_sss_mean             =   3.4629857008096E+01
(PID.TID 0000.0001) %MON dynstat_sss_sd               =   1.4671099406494E+00
(PID.TID 0000.0001) %MON dynstat_sss_del2             =   8.1663917946128E-03
(PID.TID 0000.0001) %MON forcing_qnet_max             =   4.5288150232768E+02
(PID.TID 0000.0001) %MON forcing_qnet_min             =  -2.0919161859792E+02
(PID.TID 0000.0001) %MON forcing_qnet_mean            =  -1.2219192603503E+01
(PID.TID 0000.0001) %MON forcing_qnet_sd              =   1.1452259813662E+02
(PID.TID 0000.0001) %MON forcing_qnet_del2            =   4.2405268227766E-01
(PID.TID 0000.0001) %MON forcing_qsw_max              =   0.0000000000000E+00
(PID.TID 0000.0001) %MON forcing_qsw_min              =   0.0000000000000E+00
(PID.TID 0000.0001) %MON forcing_qsw_mean             =   0.0000000000000E+00
(PID.TID 0000.0001) %MON forcing_qsw_sd               =   0.0000000000000E+00
(PID.TID 0000.0001) %MON forcing_qsw_del2             =   0.0000000000000E+00
(PID.TID 0000.0001) %MON forcing_empmr_max            =   7.6494447208479E-05
(PID.TID 0000.0001) %MON forcing_empmr_min            =  -1.5362614137596E-04
(PID.TID 0000.0001) %MON forcing_empmr_mean           =   4.1932798010144E-22
(PID.TID 0000.0001) %MON forcing_empmr_sd             =   2.4051723601802E-05
(PID.TID 0000.0001) %MON forcing_empmr_del2           =   1.2276157049243E-07
(PID.TID 0000.0001) %MON forcing_fu_max               =   2.4731784009269E-01
(PID.TID 0000.0001) %MON forcing_fu_min               =  -2.2180668969530E-01
(PID.TID 0000.0001) %MON forcing_fu_mean              =  -4.2870070504621E-03
(PID.TID 0000.0001) %MON forcing_fu_sd                =   6.4197640910106E-02
(PID.TID 0000.0001) %MON forcing_fu_del2              =   2.0958789804308E-04
(PID.TID 0000.0001) %MON forcing_fv_max               =   2.6891042987167E-01
(PID.TID 0000.0001) %MON forcing_fv_min               =  -3.3164734762358E-01
(PID.TID 0000.0001) %MON forcing_fv_mean              =  -1.3708054794422E-02
(PID.TID 0000.0001) %MON forcing_fv_sd                =   7.5544817904543E-02
(PID.TID 0000.0001) %MON forcing_fv_del2              =   2.3785256950118E-04
(PID.TID 0000.0001) %MON trAdv_CFL_u_max              =   8.0622282994598E-02
(PID.TID 0000.0001) %MON trAdv_CFL_v_max              =   8.1042562449385E-02
(PID.TID 0000.0001) %MON trAdv_CFL_w_max              =   7.3903786054832E-02
(PID.TID 0000.0001) %MON advcfl_uvel_max              =   8.1075511081024E-02
(PID.TID 0000.0001) %MON advcfl_vvel_max              =   7.6166648650353E-02
(PID.TID 0000.0001) %MON advcfl_wvel_max              =   6.6906671274228E-02
(PID.TID 0000.0001) %MON advcfl_W_hf_max              =   7.3903786054832E-02
(PID.TID 0000.0001) %MON pe_b_mean                    =   4.7695350906377E-04
(PID.TID 0000.0001) %MON ke_max                       =   3.9917948759882E-02
(PID.TID 0000.0001) %MON ke_mean                      =   1.4085083678847E-04
(PID.TID 0000.0001) %MON ke_vol                       =   1.3398024453628E+18
(PID.TID 0000.0001) %MON vort_r_min                   =  -1.2158750546439E-06
(PID.TID 0000.0001) %MON vort_r_max                   =   1.2259843215745E-06
(PID.TID 0000.0001) %MON vort_a_mean                  =  -2.0493733748264E-05
(PID.TID 0000.0001) %MON vort_a_sd                    =   7.5053946880954E-05
(PID.TID 0000.0001) %MON vort_p_mean                  =  -2.4715773583416E-05
(PID.TID 0000.0001) %MON vort_p_sd                    =   1.2777075291798E-04
(PID.TID 0000.0001) %MON surfExpan_theta_mean         =   4.7325177415701E-08
(PID.TID 0000.0001) %MON surfExpan_salt_mean          =   1.4202788431711E-08
(PID.TID 0000.0001) // =======================================================
(PID.TID 0000.0001) // End MONITOR dynamic field statistics
(PID.TID 0000.0001) // =======================================================
 DRIVER_GET_EXPORT_STATE_3D:MASK : Associated & shape =          32          32          15
  Finished plug run method 
 AGCM Date: 2000/04/14  Time: 22:45:00
  Starting plug run method 
 EXTERNAL_FIELDS_LOAD,     72007 : iP,iLd,i0,i1=   12    1   12    1 ; Wght=  0.2666666667  0.7333333333
 cg2d: Sum(rhs),rhsMax =  -2.21689333557151E-12  4.26349261414611E+00
(PID.TID 0000.0001)      cg2d_init_res =   3.47976215153924E-02
(PID.TID 0000.0001)      cg2d_iters(min,last) =      -1      86
(PID.TID 0000.0001)      cg2d_last_res =   8.32410517556502E-10
(PID.TID 0000.0001) // =======================================================
(PID.TID 0000.0001) // Begin MONITOR dynamic field statistics
(PID.TID 0000.0001) // =======================================================
(PID.TID 0000.0001) %MON time_tsnumber                =                 72008
(PID.TID 0000.0001) %MON time_secondsf                =   6.2214912000000E+09
(PID.TID 0000.0001) %MON dynstat_eta_max              =   9.0967705089740E-01
(PID.TID 0000.0001) %MON dynstat_eta_min              =  -1.6141668315679E+00
(PID.TID 0000.0001) %MON dynstat_eta_mean             =   1.4427566214562E-14
(PID.TID 0000.0001) %MON dynstat_eta_sd               =   5.9825199590824E-01
(PID.TID 0000.0001) %MON dynstat_eta_del2             =   7.8825768018295E-04
(PID.TID 0000.0001) %MON dynstat_uvel_max             =   1.8777186410022E-01
(PID.TID 0000.0001) %MON dynstat_uvel_min             =  -2.8549349539139E-01
(PID.TID 0000.0001) %MON dynstat_uvel_mean            =  -4.8685707915862E-04
(PID.TID 0000.0001) %MON dynstat_uvel_sd              =   1.2016176265396E-02
(PID.TID 0000.0001) %MON dynstat_uvel_del2            =   5.1061185010641E-05
(PID.TID 0000.0001) %MON dynstat_vvel_max             =   1.7479933111129E-01
(PID.TID 0000.0001) %MON dynstat_vvel_min             =  -2.2486124324897E-01
(PID.TID 0000.0001) %MON dynstat_vvel_mean            =  -4.0249817249950E-04
(PID.TID 0000.0001) %MON dynstat_vvel_sd              =   1.2659286510315E-02
(PID.TID 0000.0001) %MON dynstat_vvel_del2            =   5.0401419160369E-05
(PID.TID 0000.0001) %MON dynstat_wvel_max             =   1.0520244781938E-04
(PID.TID 0000.0001) %MON dynstat_wvel_min             =  -2.0516002413910E-04
(PID.TID 0000.0001) %MON dynstat_wvel_mean            =   9.3423858935666E-11
(PID.TID 0000.0001) %MON dynstat_wvel_sd              =   3.8188320693739E-06
(PID.TID 0000.0001) %MON dynstat_wvel_del2            =   2.6459017412129E-08
(PID.TID 0000.0001) %MON dynstat_theta_max            =   3.1035280439539E+01
(PID.TID 0000.0001) %MON dynstat_theta_min            =  -3.1511123949183E+00
(PID.TID 0000.0001) %MON dynstat_theta_mean           =   3.9095937001294E+00
(PID.TID 0000.0001) %MON dynstat_theta_sd             =   4.5714533114493E+00
(PID.TID 0000.0001) %MON dynstat_theta_del2           =   2.6800006266373E-03
(PID.TID 0000.0001) %MON dynstat_salt_max             =   4.1391027417342E+01
(PID.TID 0000.0001) %MON dynstat_salt_min             =   1.8385868953948E+01
(PID.TID 0000.0001) %MON dynstat_salt_mean            =   3.4772072006314E+01
(PID.TID 0000.0001) %MON dynstat_salt_sd              =   5.3145585286063E-01
(PID.TID 0000.0001) %MON dynstat_salt_del2            =   8.1436020560112E-04
(PID.TID 0000.0001) %MON dynstat_sst_max              =   3.1035280439539E+01
(PID.TID 0000.0001) %MON dynstat_sst_min              =  -1.9771511577794E+00
(PID.TID 0000.0001) %MON dynstat_sst_mean             =   1.8143514343371E+01
(PID.TID 0000.0001) %MON dynstat_sst_sd               =   9.7736014893832E+00
(PID.TID 0000.0001) %MON dynstat_sst_del2             =   1.6006791004130E-02
(PID.TID 0000.0001) %MON dynstat_sss_max              =   4.1391027417342E+01
(PID.TID 0000.0001) %MON dynstat_sss_min              =   1.8385868953948E+01
(PID.TID 0000.0001) %MON dynstat_sss_mean             =   3.4629493870012E+01
(PID.TID 0000.0001) %MON dynstat_sss_sd               =   1.4668989231372E+00
(PID.TID 0000.0001) %MON dynstat_sss_del2             =   8.1763716207214E-03
(PID.TID 0000.0001) %MON forcing_qnet_max             =   4.5278704135979E+02
(PID.TID 0000.0001) %MON forcing_qnet_min             =  -2.0821926461131E+02
(PID.TID 0000.0001) %MON forcing_qnet_mean            =  -1.2231420972146E+01
(PID.TID 0000.0001) %MON forcing_qnet_sd              =   1.1435735176461E+02
(PID.TID 0000.0001) %MON forcing_qnet_del2            =   4.2574043278125E-01
(PID.TID 0000.0001) %MON forcing_qsw_max              =   0.0000000000000E+00
(PID.TID 0000.0001) %MON forcing_qsw_min              =   0.0000000000000E+00
(PID.TID 0000.0001) %MON forcing_qsw_mean             =   0.0000000000000E+00
(PID.TID 0000.0001) %MON forcing_qsw_sd               =   0.0000000000000E+00
(PID.TID 0000.0001) %MON forcing_qsw_del2             =   0.0000000000000E+00
(PID.TID 0000.0001) %MON forcing_empmr_max            =   7.6494447208479E-05
(PID.TID 0000.0001) %MON forcing_empmr_min            =  -1.5362614137596E-04
(PID.TID 0000.0001) %MON forcing_empmr_mean           =   0.0000000000000E+00
(PID.TID 0000.0001) %MON forcing_empmr_sd             =   2.4051723601802E-05
(PID.TID 0000.0001) %MON forcing_empmr_del2           =   1.2276157049243E-07
(PID.TID 0000.0001) %MON forcing_fu_max               =   2.4726979082249E-01
(PID.TID 0000.0001) %MON forcing_fu_min               =  -2.2495248635365E-01
(PID.TID 0000.0001) %MON forcing_fu_mean              =  -4.2435281147287E-03
(PID.TID 0000.0001) %MON forcing_fu_sd                =   6.4287840534767E-02
(PID.TID 0000.0001) %MON forcing_fu_del2              =   2.1115214806548E-04
(PID.TID 0000.0001) %MON forcing_fv_max               =   2.7159367144430E-01
(PID.TID 0000.0001) %MON forcing_fv_min               =  -3.3243525155752E-01
(PID.TID 0000.0001) %MON forcing_fv_mean              =  -1.3711980340349E-02
(PID.TID 0000.0001) %MON forcing_fv_sd                =   7.5645935346452E-02
(PID.TID 0000.0001) %MON forcing_fv_del2              =   2.3922805906111E-04
(PID.TID 0000.0001) %MON trAdv_CFL_u_max              =   8.0518725023478E-02
(PID.TID 0000.0001) %MON trAdv_CFL_v_max              =   8.1070077435333E-02
(PID.TID 0000.0001) %MON trAdv_CFL_w_max              =   7.3885284058763E-02
(PID.TID 0000.0001) %MON advcfl_uvel_max              =   8.0971370729614E-02
(PID.TID 0000.0001) %MON advcfl_vvel_max              =   7.6192565820994E-02
(PID.TID 0000.0001) %MON advcfl_wvel_max              =   6.6889909757051E-02
(PID.TID 0000.0001) %MON advcfl_W_hf_max              =   7.3885284058764E-02
(PID.TID 0000.0001) %MON pe_b_mean                    =   4.7679619973825E-04
(PID.TID 0000.0001) %MON ke_max                       =   3.9793355514129E-02
(PID.TID 0000.0001) %MON ke_mean                      =   1.4086515166605E-04
(PID.TID 0000.0001) %MON ke_vol                       =   1.3398024453628E+18
(PID.TID 0000.0001) %MON vort_r_min                   =  -1.2212368115385E-06
(PID.TID 0000.0001) %MON vort_r_max                   =   1.2282577532923E-06
(PID.TID 0000.0001) %MON vort_a_mean                  =  -2.0493733748264E-05
(PID.TID 0000.0001) %MON vort_a_sd                    =   7.5053946791388E-05
(PID.TID 0000.0001) %MON vort_p_mean                  =  -2.4715773566281E-05
(PID.TID 0000.0001) %MON vort_p_sd                    =   1.2777074984203E-04
(PID.TID 0000.0001) %MON surfExpan_theta_mean         =   4.7547415630129E-08
(PID.TID 0000.0001) %MON surfExpan_salt_mean          =   1.4233162984910E-08
(PID.TID 0000.0001) // =======================================================
(PID.TID 0000.0001) // End MONITOR dynamic field statistics
(PID.TID 0000.0001) // =======================================================
 DRIVER_GET_EXPORT_STATE_3D:MASK : Associated & shape =          32          32          15
  Finished plug run method 
 AGCM Date: 2000/04/14  Time: 23:00:00
 
 Writing:     40 Slices (  1 Nodes,  1 PartitionRoot) to File:  TEST.mit_ocn.20000414_2300z.nc4
 
  Starting plug run method 
 EXTERNAL_FIELDS_LOAD,     72008 : iP,iLd,i0,i1=   12    1   12    1 ; Wght=  0.2333333333  0.7666666667
 cg2d: Sum(rhs),rhsMax =  -2.22399876292911E-12  4.26186294475048E+00
(PID.TID 0000.0001)      cg2d_init_res =   3.45158314787046E-02
(PID.TID 0000.0001)      cg2d_iters(min,last) =      -1      86
(PID.TID 0000.0001)      cg2d_last_res =   8.30219657459174E-10
(PID.TID 0000.0001) // =======================================================
(PID.TID 0000.0001) // Begin MONITOR dynamic field statistics
(PID.TID 0000.0001) // =======================================================
(PID.TID 0000.0001) %MON time_tsnumber                =                 72009
(PID.TID 0000.0001) %MON time_secondsf                =   6.2215776000000E+09
(PID.TID 0000.0001) %MON dynstat_eta_max              =   9.0826548949043E-01
(PID.TID 0000.0001) %MON dynstat_eta_min              =  -1.6137054205306E+00
(PID.TID 0000.0001) %MON dynstat_eta_mean             =   1.4235198665035E-14
(PID.TID 0000.0001) %MON dynstat_eta_sd               =   5.9815578671092E-01
(PID.TID 0000.0001) %MON dynstat_eta_del2             =   7.8865710196232E-04
(PID.TID 0000.0001) %MON dynstat_uvel_max             =   1.8764619148938E-01
(PID.TID 0000.0001) %MON dynstat_uvel_min             =  -2.8511178338993E-01
(PID.TID 0000.0001) %MON dynstat_uvel_mean            =  -4.8640096595868E-04
(PID.TID 0000.0001) %MON dynstat_uvel_sd              =   1.2015626849614E-02
(PID.TID 0000.0001) %MON dynstat_uvel_del2            =   5.1043403253543E-05
(PID.TID 0000.0001) %MON dynstat_vvel_max             =   1.7482565602266E-01
(PID.TID 0000.0001) %MON dynstat_vvel_min             =  -2.2478746878720E-01
(PID.TID 0000.0001) %MON dynstat_vvel_mean            =  -4.0211023594605E-04
(PID.TID 0000.0001) %MON dynstat_vvel_sd              =   1.2660802220442E-02
(PID.TID 0000.0001) %MON dynstat_vvel_del2            =   5.0378451920805E-05
(PID.TID 0000.0001) %MON dynstat_wvel_max             =   1.0565350693341E-04
(PID.TID 0000.0001) %MON dynstat_wvel_min             =  -2.0505453505307E-04
(PID.TID 0000.0001) %MON dynstat_wvel_mean            =   9.1442590764077E-11
(PID.TID 0000.0001) %MON dynstat_wvel_sd              =   3.8162893475679E-06
(PID.TID 0000.0001) %MON dynstat_wvel_del2            =   2.6460519844694E-08
(PID.TID 0000.0001) %MON dynstat_theta_max            =   3.1046905453929E+01
(PID.TID 0000.0001) %MON dynstat_theta_min            =  -3.1690937046070E+00
(PID.TID 0000.0001) %MON dynstat_theta_mean           =   3.9096520448259E+00
(PID.TID 0000.0001) %MON dynstat_theta_sd             =   4.5715205480360E+00
(PID.TID 0000.0001) %MON dynstat_theta_del2           =   2.6830596698330E-03
(PID.TID 0000.0001) %MON dynstat_salt_max             =   4.1391595023897E+01
(PID.TID 0000.0001) %MON dynstat_salt_min             =   1.8386203491341E+01
(PID.TID 0000.0001) %MON dynstat_salt_mean            =   3.4772072505222E+01
(PID.TID 0000.0001) %MON dynstat_salt_sd              =   5.3145532339901E-01
(PID.TID 0000.0001) %MON dynstat_salt_del2            =   8.1497221847266E-04
(PID.TID 0000.0001) %MON dynstat_sst_max              =   3.1046905453929E+01
(PID.TID 0000.0001) %MON dynstat_sst_min              =  -1.9792715505028E+00
(PID.TID 0000.0001) %MON dynstat_sst_mean             =   1.8147023907340E+01
(PID.TID 0000.0001) %MON dynstat_sst_sd               =   9.7714426466407E+00
(PID.TID 0000.0001) %MON dynstat_sst_del2             =   1.6080797523520E-02
(PID.TID 0000.0001) %MON dynstat_sss_max              =   4.1391595023897E+01
(PID.TID 0000.0001) %MON dynstat_sss_min              =   1.8386203491341E+01
(PID.TID 0000.0001) %MON dynstat_sss_mean             =   3.4629043081375E+01
(PID.TID 0000.0001) %MON dynstat_sss_sd               =   1.4666030809089E+00
(PID.TID 0000.0001) %MON dynstat_sss_del2             =   8.1863645949352E-03
(PID.TID 0000.0001) %MON forcing_qnet_max             =   4.5269258039189E+02
(PID.TID 0000.0001) %MON forcing_qnet_min             =  -2.0724691062470E+02
(PID.TID 0000.0001) %MON forcing_qnet_mean            =  -1.2243649340789E+01
(PID.TID 0000.0001) %MON forcing_qnet_sd              =   1.1419883834096E+02
(PID.TID 0000.0001) %MON forcing_qnet_del2            =   4.2754265772092E-01
(PID.TID 0000.0001) %MON forcing_qsw_max              =   0.0000000000000E+00
(PID.TID 0000.0001) %MON forcing_qsw_min              =   0.0000000000000E+00
(PID.TID 0000.0001) %MON forcing_qsw_mean             =   0.0000000000000E+00
(PID.TID 0000.0001) %MON forcing_qsw_sd               =   0.0000000000000E+00
(PID.TID 0000.0001) %MON forcing_qsw_del2             =   0.0000000000000E+00
(PID.TID 0000.0001) %MON forcing_empmr_max            =   7.6494447208479E-05
(PID.TID 0000.0001) %MON forcing_empmr_min            =  -1.5362614137596E-04
(PID.TID 0000.0001) %MON forcing_empmr_mean           =   0.0000000000000E+00
(PID.TID 0000.0001) %MON forcing_empmr_sd             =   2.4051723601802E-05
(PID.TID 0000.0001) %MON forcing_empmr_del2           =   1.2276157049243E-07
(PID.TID 0000.0001) %MON forcing_fu_max               =   2.4722174155228E-01
(PID.TID 0000.0001) %MON forcing_fu_min               =  -2.2809828301201E-01
(PID.TID 0000.0001) %MON forcing_fu_mean              =  -4.2000491789953E-03
(PID.TID 0000.0001) %MON forcing_fu_sd                =   6.4391296774987E-02
(PID.TID 0000.0001) %MON forcing_fu_del2              =   2.1293834199113E-04
(PID.TID 0000.0001) %MON forcing_fv_max               =   2.7427691301694E-01
(PID.TID 0000.0001) %MON forcing_fv_min               =  -3.3322315549145E-01
(PID.TID 0000.0001) %MON forcing_fv_mean              =  -1.3715905886277E-02
(PID.TID 0000.0001) %MON forcing_fv_sd                =   7.5757214244312E-02
(PID.TID 0000.0001) %MON forcing_fv_del2              =   2.4079325037298E-04
(PID.TID 0000.0001) %MON trAdv_CFL_u_max              =   8.0411069730405E-02
(PID.TID 0000.0001) %MON trAdv_CFL_v_max              =   8.1082225840863E-02
(PID.TID 0000.0001) %MON trAdv_CFL_w_max              =   7.3847304950142E-02
(PID.TID 0000.0001) %MON advcfl_uvel_max              =   8.0863109965424E-02
(PID.TID 0000.0001) %MON advcfl_vvel_max              =   7.6204040478991E-02
(PID.TID 0000.0001) %MON advcfl_wvel_max              =   6.6855516334284E-02
(PID.TID 0000.0001) %MON advcfl_W_hf_max              =   7.3847304950142E-02
(PID.TID 0000.0001) %MON pe_b_mean                    =   4.7664285803123E-04
(PID.TID 0000.0001) %MON ke_max                       =   3.9665680670745E-02
(PID.TID 0000.0001) %MON ke_mean                      =   1.4087655166645E-04
(PID.TID 0000.0001) %MON ke_vol                       =   1.3398024453628E+18
(PID.TID 0000.0001) %MON vort_r_min                   =  -1.2267207752816E-06
(PID.TID 0000.0001) %MON vort_r_max                   =   1.2306037983532E-06
(PID.TID 0000.0001) %MON vort_a_mean                  =  -2.0493733748264E-05
(PID.TID 0000.0001) %MON vort_a_sd                    =   7.5053946706681E-05
(PID.TID 0000.0001) %MON vort_p_mean                  =  -2.4715773549124E-05
(PID.TID 0000.0001) %MON vort_p_sd                    =   1.2777074705058E-04
(PID.TID 0000.0001) %MON surfExpan_theta_mean         =   4.7748263779803E-08
(PID.TID 0000.0001) %MON surfExpan_salt_mean          =   1.4270296431940E-08
(PID.TID 0000.0001) // =======================================================
(PID.TID 0000.0001) // End MONITOR dynamic field statistics
(PID.TID 0000.0001) // =======================================================
 DRIVER_GET_EXPORT_STATE_3D:MASK : Associated & shape =          32          32          15
  Finished plug run method 
 AGCM Date: 2000/04/14  Time: 23:15:00
  Starting plug run method 
 EXTERNAL_FIELDS_LOAD,     72009 : iP,iLd,i0,i1=   12    1   12    1 ; Wght=  0.2000000000  0.8000000000
 cg2d: Sum(rhs),rhsMax =  -2.23820961764432E-12  4.26039120546814E+00
(PID.TID 0000.0001)      cg2d_init_res =   3.44374605882875E-02
(PID.TID 0000.0001)      cg2d_iters(min,last) =      -1      86
(PID.TID 0000.0001)      cg2d_last_res =   8.25396016519514E-10
(PID.TID 0000.0001) // =======================================================
(PID.TID 0000.0001) // Begin MONITOR dynamic field statistics
(PID.TID 0000.0001) // =======================================================
(PID.TID 0000.0001) %MON time_tsnumber                =                 72010
(PID.TID 0000.0001) %MON time_secondsf                =   6.2216640000000E+09
(PID.TID 0000.0001) %MON dynstat_eta_max              =   9.0687660768324E-01
(PID.TID 0000.0001) %MON dynstat_eta_min              =  -1.6132431458189E+00
(PID.TID 0000.0001) %MON dynstat_eta_mean             =   1.4537490528578E-14
(PID.TID 0000.0001) %MON dynstat_eta_sd               =   5.9806230634124E-01
(PID.TID 0000.0001) %MON dynstat_eta_del2             =   7.8907111514658E-04
(PID.TID 0000.0001) %MON dynstat_uvel_max             =   1.8745713914397E-01
(PID.TID 0000.0001) %MON dynstat_uvel_min             =  -2.8471537239294E-01
(PID.TID 0000.0001) %MON dynstat_uvel_mean            =  -4.8589744041573E-04
(PID.TID 0000.0001) %MON dynstat_uvel_sd              =   1.2015260904602E-02
(PID.TID 0000.0001) %MON dynstat_uvel_del2            =   5.1027246281752E-05
(PID.TID 0000.0001) %MON dynstat_vvel_max             =   1.7481828353647E-01
(PID.TID 0000.0001) %MON dynstat_vvel_min             =  -2.2470778036486E-01
(PID.TID 0000.0001) %MON dynstat_vvel_mean            =  -4.0171123895602E-04
(PID.TID 0000.0001) %MON dynstat_vvel_sd              =   1.2661895424913E-02
(PID.TID 0000.0001) %MON dynstat_vvel_del2            =   5.0357139099396E-05
(PID.TID 0000.0001) %MON dynstat_wvel_max             =   1.0612164211660E-04
(PID.TID 0000.0001) %MON dynstat_wvel_min             =  -2.0489618015430E-04
(PID.TID 0000.0001) %MON dynstat_wvel_mean            =   8.8837018954083E-11
(PID.TID 0000.0001) %MON dynstat_wvel_sd              =   3.8138305391394E-06
(PID.TID 0000.0001) %MON dynstat_wvel_del2            =   2.6462812402190E-08
(PID.TID 0000.0001) %MON dynstat_theta_max            =   3.1058126756223E+01
(PID.TID 0000.0001) %MON dynstat_theta_min            =  -3.1872747659354E+00
(PID.TID 0000.0001) %MON dynstat_theta_mean           =   3.9097105502868E+00
(PID.TID 0000.0001) %MON dynstat_theta_sd             =   4.5715944465290E+00
(PID.TID 0000.0001) %MON dynstat_theta_del2           =   2.6857160267303E-03
(PID.TID 0000.0001) %MON dynstat_salt_max             =   4.1392158840323E+01
(PID.TID 0000.0001) %MON dynstat_salt_min             =   1.8386543563820E+01
(PID.TID 0000.0001) %MON dynstat_salt_mean            =   3.4772073023066E+01
(PID.TID 0000.0001) %MON dynstat_salt_sd              =   5.3145483182823E-01
(PID.TID 0000.0001) %MON dynstat_salt_del2            =   8.1555150407215E-04
(PID.TID 0000.0001) %MON dynstat_sst_max              =   3.1058126756223E+01
(PID.TID 0000.0001) %MON dynstat_sst_min              =  -1.9803570789950E+00
(PID.TID 0000.0001) %MON dynstat_sst_mean             =   1.8150713692758E+01
(PID.TID 0000.0001) %MON dynstat_sst_sd               =   9.7694122811822E+00
(PID.TID 0000.0001) %MON dynstat_sst_del2             =   1.6143132629186E-02
(PID.TID 0000.0001) %MON dynstat_sss_max              =   4.1392158840323E+01
(PID.TID 0000.0001) %MON dynstat_sss_min              =   1.8386543563820E+01
(PID.TID 0000.0001) %MON dynstat_sss_mean             =   3.4628621319990E+01
(PID.TID 0000.0001) %MON dynstat_sss_sd               =   1.4663373377341E+00
(PID.TID 0000.0001) %MON dynstat_sss_del2             =   8.1950679932451E-03
(PID.TID 0000.0001) %MON forcing_qnet_max             =   4.5259811942399E+02
(PID.TID 0000.0001) %MON forcing_qnet_min             =  -2.0627455663810E+02
(PID.TID 0000.0001) %MON forcing_qnet_mean            =  -1.2255877709432E+01
(PID.TID 0000.0001) %MON forcing_qnet_sd              =   1.1404708593992E+02
(PID.TID 0000.0001) %MON forcing_qnet_del2            =   4.2945791591934E-01
(PID.TID 0000.0001) %MON forcing_qsw_max              =   0.0000000000000E+00
(PID.TID 0000.0001) %MON forcing_qsw_min              =   0.0000000000000E+00
(PID.TID 0000.0001) %MON forcing_qsw_mean             =   0.0000000000000E+00
(PID.TID 0000.0001) %MON forcing_qsw_sd               =   0.0000000000000E+00
(PID.TID 0000.0001) %MON forcing_qsw_del2             =   0.0000000000000E+00
(PID.TID 0000.0001) %MON forcing_empmr_max            =   7.6494447208479E-05
(PID.TID 0000.0001) %MON forcing_empmr_min            =  -1.5362614137596E-04
(PID.TID 0000.0001) %MON forcing_empmr_mean           =   4.1932798010144E-22
(PID.TID 0000.0001) %MON forcing_empmr_sd             =   2.4051723601802E-05
(PID.TID 0000.0001) %MON forcing_empmr_del2           =   1.2276157049243E-07
(PID.TID 0000.0001) %MON forcing_fu_max               =   2.4734156444157E-01
(PID.TID 0000.0001) %MON forcing_fu_min               =  -2.3124407967036E-01
(PID.TID 0000.0001) %MON forcing_fu_mean              =  -4.1565702432618E-03
(PID.TID 0000.0001) %MON forcing_fu_sd                =   6.4507945848906E-02
(PID.TID 0000.0001) %MON forcing_fu_del2              =   2.1494094672237E-04
(PID.TID 0000.0001) %MON forcing_fv_max               =   2.7696015458957E-01
(PID.TID 0000.0001) %MON forcing_fv_min               =  -3.3401105942538E-01
(PID.TID 0000.0001) %MON forcing_fv_mean              =  -1.3719831432204E-02
(PID.TID 0000.0001) %MON forcing_fv_sd                =   7.5878609891640E-02
(PID.TID 0000.0001) %MON forcing_fv_del2              =   2.4254447090673E-04
(PID.TID 0000.0001) %MON trAdv_CFL_u_max              =   8.0299268892336E-02
(PID.TID 0000.0001) %MON trAdv_CFL_v_max              =   8.1078746077388E-02
(PID.TID 0000.0001) %MON trAdv_CFL_w_max              =   7.3790286271934E-02
(PID.TID 0000.0001) %MON advcfl_uvel_max              =   8.0750680287283E-02
(PID.TID 0000.0001) %MON advcfl_vvel_max              =   7.6200826916123E-02
(PID.TID 0000.0001) %MON advcfl_wvel_max              =   6.6803886661630E-02
(PID.TID 0000.0001) %MON advcfl_W_hf_max              =   7.3790286271934E-02
(PID.TID 0000.0001) %MON pe_b_mean                    =   4.7649388925126E-04
(PID.TID 0000.0001) %MON ke_max                       =   3.9534941509403E-02
(PID.TID 0000.0001) %MON ke_mean                      =   1.4088499204703E-04
(PID.TID 0000.0001) %MON ke_vol                       =   1.3398024453628E+18
(PID.TID 0000.0001) %MON vort_r_min                   =  -1.2322959154412E-06
(PID.TID 0000.0001) %MON vort_r_max                   =   1.2329783223636E-06
(PID.TID 0000.0001) %MON vort_a_mean                  =  -2.0493733748264E-05
(PID.TID 0000.0001) %MON vort_a_sd                    =   7.5053946624007E-05
(PID.TID 0000.0001) %MON vort_p_mean                  =  -2.4715773532078E-05
(PID.TID 0000.0001) %MON vort_p_sd                    =   1.2777074455375E-04
(PID.TID 0000.0001) %MON surfExpan_theta_mean         =   4.7886957151188E-08
(PID.TID 0000.0001) %MON surfExpan_salt_mean          =   1.4315227473891E-08
(PID.TID 0000.0001) // =======================================================
(PID.TID 0000.0001) // End MONITOR dynamic field statistics
(PID.TID 0000.0001) // =======================================================
 DRIVER_GET_EXPORT_STATE_3D:MASK : Associated & shape =          32          32          15
  Finished plug run method 
 AGCM Date: 2000/04/14  Time: 23:30:00
  Starting plug run method 
 EXTERNAL_FIELDS_LOAD,     72010 : iP,iLd,i0,i1=   12    1   12    1 ; Wght=  0.1666666667  0.8333333333
 cg2d: Sum(rhs),rhsMax =  -2.22399876292911E-12  4.25906155109651E+00
(PID.TID 0000.0001)      cg2d_init_res =   3.44001733802257E-02
(PID.TID 0000.0001)      cg2d_iters(min,last) =      -1      86
(PID.TID 0000.0001)      cg2d_last_res =   8.29604312151777E-10
(PID.TID 0000.0001) // =======================================================
(PID.TID 0000.0001) // Begin MONITOR dynamic field statistics
(PID.TID 0000.0001) // =======================================================
(PID.TID 0000.0001) %MON time_tsnumber                =                 72011
(PID.TID 0000.0001) %MON time_secondsf                =   6.2217504000000E+09
(PID.TID 0000.0001) %MON dynstat_eta_max              =   9.0551178071586E-01
(PID.TID 0000.0001) %MON dynstat_eta_min              =  -1.6127756551396E+00
(PID.TID 0000.0001) %MON dynstat_eta_mean             =   1.4235198665035E-14
(PID.TID 0000.0001) %MON dynstat_eta_sd               =   5.9797135669344E-01
(PID.TID 0000.0001) %MON dynstat_eta_del2             =   7.8949452548617E-04
(PID.TID 0000.0001) %MON dynstat_uvel_max             =   1.8720797898308E-01
(PID.TID 0000.0001) %MON dynstat_uvel_min             =  -2.8430410291762E-01
(PID.TID 0000.0001) %MON dynstat_uvel_mean            =  -4.8534642589244E-04
(PID.TID 0000.0001) %MON dynstat_uvel_sd              =   1.2015099894600E-02
(PID.TID 0000.0001) %MON dynstat_uvel_del2            =   5.1013151522767E-05
(PID.TID 0000.0001) %MON dynstat_vvel_max             =   1.7477681857318E-01
(PID.TID 0000.0001) %MON dynstat_vvel_min             =  -2.2462255996710E-01
(PID.TID 0000.0001) %MON dynstat_vvel_mean            =  -4.0131222280923E-04
(PID.TID 0000.0001) %MON dynstat_vvel_sd              =   1.2662544677937E-02
(PID.TID 0000.0001) %MON dynstat_vvel_del2            =   5.0337428049072E-05
(PID.TID 0000.0001) %MON dynstat_wvel_max             =   1.0659770595415E-04
(PID.TID 0000.0001) %MON dynstat_wvel_min             =  -2.0468706678075E-04
(PID.TID 0000.0001) %MON dynstat_wvel_mean            =   8.4818826767056E-11
(PID.TID 0000.0001) %MON dynstat_wvel_sd              =   3.8114674423647E-06
(PID.TID 0000.0001) %MON dynstat_wvel_del2            =   2.6465848697420E-08
(PID.TID 0000.0001) %MON dynstat_theta_max            =   3.1068956479653E+01
(PID.TID 0000.0001) %MON dynstat_theta_min            =  -3.2056314805554E+00
(PID.TID 0000.0001) %MON dynstat_theta_mean           =   3.9097691729126E+00
(PID.TID 0000.0001) %MON dynstat_theta_sd             =   4.5716740772404E+00
(PID.TID 0000.0001) %MON dynstat_theta_del2           =   2.6875816789939E-03
(PID.TID 0000.0001) %MON dynstat_salt_max             =   4.1392718273892E+01
(PID.TID 0000.0001) %MON dynstat_salt_min             =   1.8386889069143E+01
(PID.TID 0000.0001) %MON dynstat_salt_mean            =   3.4772073559396E+01
(PID.TID 0000.0001) %MON dynstat_salt_sd              =   5.3145384859132E-01
(PID.TID 0000.0001) %MON dynstat_salt_del2            =   8.1605436005920E-04
(PID.TID 0000.0001) %MON dynstat_sst_max              =   3.1068956479653E+01
(PID.TID 0000.0001) %MON dynstat_sst_min              =  -1.9825904961149E+00
(PID.TID 0000.0001) %MON dynstat_sst_mean             =   1.8154636476212E+01
(PID.TID 0000.0001) %MON dynstat_sst_sd               =   9.7674590146622E+00
(PID.TID 0000.0001) %MON dynstat_sst_del2             =   1.6200415869855E-02
(PID.TID 0000.0001) %MON dynstat_sss_max              =   4.1392718273892E+01
(PID.TID 0000.0001) %MON dynstat_sss_min              =   1.8386889069143E+01
(PID.TID 0000.0001) %MON dynstat_sss_mean             =   3.4628258166274E+01
(PID.TID 0000.0001) %MON dynstat_sss_sd               =   1.4661082124677E+00
(PID.TID 0000.0001) %MON dynstat_sss_del2             =   8.2043381509296E-03
(PID.TID 0000.0001) %MON forcing_qnet_max             =   4.5250365845610E+02
(PID.TID 0000.0001) %MON forcing_qnet_min             =  -2.0572520854632E+02
(PID.TID 0000.0001) %MON forcing_qnet_mean            =  -1.2268106078075E+01
(PID.TID 0000.0001) %MON forcing_qnet_sd              =   1.1390212158476E+02
(PID.TID 0000.0001) %MON forcing_qnet_del2            =   4.3148470219571E-01
(PID.TID 0000.0001) %MON forcing_qsw_max              =   0.0000000000000E+00
(PID.TID 0000.0001) %MON forcing_qsw_min              =   0.0000000000000E+00
(PID.TID 0000.0001) %MON forcing_qsw_mean             =   0.0000000000000E+00
(PID.TID 0000.0001) %MON forcing_qsw_sd               =   0.0000000000000E+00
(PID.TID 0000.0001) %MON forcing_qsw_del2             =   0.0000000000000E+00
(PID.TID 0000.0001) %MON forcing_empmr_max            =   7.6494447208479E-05
(PID.TID 0000.0001) %MON forcing_empmr_min            =  -1.5362614137596E-04
(PID.TID 0000.0001) %MON forcing_empmr_mean           =   4.1932798010144E-22
(PID.TID 0000.0001) %MON forcing_empmr_sd             =   2.4051723601802E-05
(PID.TID 0000.0001) %MON forcing_empmr_del2           =   1.2276157049243E-07
(PID.TID 0000.0001) %MON forcing_fu_max               =   2.4760593894036E-01
(PID.TID 0000.0001) %MON forcing_fu_min               =  -2.3438987632871E-01
(PID.TID 0000.0001) %MON forcing_fu_mean              =  -4.1130913075284E-03
(PID.TID 0000.0001) %MON forcing_fu_sd                =   6.4637716330841E-02
(PID.TID 0000.0001) %MON forcing_fu_del2              =   2.1715397508819E-04
(PID.TID 0000.0001) %MON forcing_fv_max               =   2.7964339616220E-01
(PID.TID 0000.0001) %MON forcing_fv_min               =  -3.3479896335931E-01
(PID.TID 0000.0001) %MON forcing_fv_mean              =  -1.3723756978131E-02
(PID.TID 0000.0001) %MON forcing_fv_sd                =   7.6010073816084E-02
(PID.TID 0000.0001) %MON forcing_fv_del2              =   2.4447772305236E-04
(PID.TID 0000.0001) %MON trAdv_CFL_u_max              =   8.0183277531022E-02
(PID.TID 0000.0001) %MON trAdv_CFL_v_max              =   8.1059454876184E-02
(PID.TID 0000.0001) %MON trAdv_CFL_w_max              =   7.3714987594539E-02
(PID.TID 0000.0001) %MON advcfl_uvel_max              =   8.0634036462840E-02
(PID.TID 0000.0001) %MON advcfl_vvel_max              =   7.6182752922792E-02
(PID.TID 0000.0001) %MON advcfl_wvel_max              =   6.6735707810780E-02
(PID.TID 0000.0001) %MON advcfl_W_hf_max              =   7.3714987594539E-02
(PID.TID 0000.0001) %MON pe_b_mean                    =   4.7634897573392E-04
(PID.TID 0000.0001) %MON ke_max                       =   3.9401154664056E-02
(PID.TID 0000.0001) %MON ke_mean                      =   1.4089046020255E-04
(PID.TID 0000.0001) %MON ke_vol                       =   1.3398024453628E+18
(PID.TID 0000.0001) %MON vort_r_min                   =  -1.2379317892485E-06
(PID.TID 0000.0001) %MON vort_r_max                   =   1.2353540816506E-06
(PID.TID 0000.0001) %MON vort_a_mean                  =  -2.0493733748264E-05
(PID.TID 0000.0001) %MON vort_a_sd                    =   7.5053946541696E-05
(PID.TID 0000.0001) %MON vort_p_mean                  =  -2.4715773514873E-05
(PID.TID 0000.0001) %MON vort_p_sd                    =   1.2777074233094E-04
(PID.TID 0000.0001) %MON surfExpan_theta_mean         =   4.7948386692658E-08
(PID.TID 0000.0001) %MON surfExpan_salt_mean          =   1.4365721728113E-08
(PID.TID 0000.0001) // =======================================================
(PID.TID 0000.0001) // End MONITOR dynamic field statistics
(PID.TID 0000.0001) // =======================================================
 DRIVER_GET_EXPORT_STATE_3D:MASK : Associated & shape =          32          32          15
  Finished plug run method 
 AGCM Date: 2000/04/14  Time: 23:45:00
  Starting plug run method 
 EXTERNAL_FIELDS_LOAD,     72011 : iP,iLd,i0,i1=   12    1   12    1 ; Wght=  0.1333333333  0.8666666667
 cg2d: Sum(rhs),rhsMax =  -2.28084218178992E-12  4.25785527158430E+00
(PID.TID 0000.0001)      cg2d_init_res =   3.45739723911077E-02
(PID.TID 0000.0001)      cg2d_iters(min,last) =      -1      86
(PID.TID 0000.0001)      cg2d_last_res =   8.33081728793910E-10
(PID.TID 0000.0001) // =======================================================
(PID.TID 0000.0001) // Begin MONITOR dynamic field statistics
(PID.TID 0000.0001) // =======================================================
(PID.TID 0000.0001) %MON time_tsnumber                =                 72012
(PID.TID 0000.0001) %MON time_secondsf                =   6.2218368000000E+09
(PID.TID 0000.0001) %MON dynstat_eta_max              =   9.0418056503747E-01
(PID.TID 0000.0001) %MON dynstat_eta_min              =  -1.6122986572054E+00
(PID.TID 0000.0001) %MON dynstat_eta_mean             =   1.4235198665035E-14
(PID.TID 0000.0001) %MON dynstat_eta_sd               =   5.9788254304305E-01
(PID.TID 0000.0001) %MON dynstat_eta_del2             =   7.8993139903383E-04
(PID.TID 0000.0001) %MON dynstat_uvel_max             =   1.8690277243546E-01
(PID.TID 0000.0001) %MON dynstat_uvel_min             =  -2.8387783766353E-01
(PID.TID 0000.0001) %MON dynstat_uvel_mean            =  -4.8475230200045E-04
(PID.TID 0000.0001) %MON dynstat_uvel_sd              =   1.2015150783441E-02
(PID.TID 0000.0001) %MON dynstat_uvel_del2            =   5.1001441445547E-05
(PID.TID 0000.0001) %MON dynstat_vvel_max             =   1.7470110473145E-01
(PID.TID 0000.0001) %MON dynstat_vvel_min             =  -2.2453216882405E-01
(PID.TID 0000.0001) %MON dynstat_vvel_mean            =  -4.0091844321547E-04
(PID.TID 0000.0001) %MON dynstat_vvel_sd              =   1.2662744541164E-02
(PID.TID 0000.0001) %MON dynstat_vvel_del2            =   5.0319271049672E-05
(PID.TID 0000.0001) %MON dynstat_wvel_max             =   1.0707238953894E-04
(PID.TID 0000.0001) %MON dynstat_wvel_min             =  -2.0442992819747E-04
(PID.TID 0000.0001) %MON dynstat_wvel_mean            =   7.9019638253623E-11
(PID.TID 0000.0001) %MON dynstat_wvel_sd              =   3.8092014190296E-06
(PID.TID 0000.0001) %MON dynstat_wvel_del2            =   2.6469447586565E-08
(PID.TID 0000.0001) %MON dynstat_theta_max            =   3.1079405746461E+01
(PID.TID 0000.0001) %MON dynstat_theta_min            =  -3.2241406171865E+00
(PID.TID 0000.0001) %MON dynstat_theta_mean           =   3.9098278638059E+00
(PID.TID 0000.0001) %MON dynstat_theta_sd             =   4.5717587312229E+00
(PID.TID 0000.0001) %MON dynstat_theta_del2           =   2.6899662671072E-03
(PID.TID 0000.0001) %MON dynstat_salt_max             =   4.1393272401031E+01
(PID.TID 0000.0001) %MON dynstat_salt_min             =   1.8387239930760E+01
(PID.TID 0000.0001) %MON dynstat_salt_mean            =   3.4772074113313E+01
(PID.TID 0000.0001) %MON dynstat_salt_sd              =   5.3145203912513E-01
(PID.TID 0000.0001) %MON dynstat_salt_del2            =   8.1675433880417E-04
(PID.TID 0000.0001) %MON dynstat_sst_max              =   3.1079405746461E+01
(PID.TID 0000.0001) %MON dynstat_sst_min              =  -1.9843358267790E+00
(PID.TID 0000.0001) %MON dynstat_sst_mean             =   1.8158589087910E+01
(PID.TID 0000.0001) %MON dynstat_sst_sd               =   9.7656272023291E+00
(PID.TID 0000.0001) %MON dynstat_sst_del2             =   1.6264737854121E-02
(PID.TID 0000.0001) %MON dynstat_sss_max              =   4.1393272401031E+01
(PID.TID 0000.0001) %MON dynstat_sss_min              =   1.8387239930760E+01
(PID.TID 0000.0001) %MON dynstat_sss_mean             =   3.4627883233456E+01
(PID.TID 0000.0001) %MON dynstat_sss_sd               =   1.4658843167282E+00
(PID.TID 0000.0001) %MON dynstat_sss_del2             =   8.2154004488068E-03
(PID.TID 0000.0001) %MON forcing_qnet_max             =   4.5240919748820E+02
(PID.TID 0000.0001) %MON forcing_qnet_min             =  -2.0540092066247E+02
(PID.TID 0000.0001) %MON forcing_qnet_mean            =  -1.2280334446718E+01
(PID.TID 0000.0001) %MON forcing_qnet_sd              =   1.1376397122458E+02
(PID.TID 0000.0001) %MON forcing_qnet_del2            =   4.3362145267556E-01
(PID.TID 0000.0001) %MON forcing_qsw_max              =   0.0000000000000E+00
(PID.TID 0000.0001) %MON forcing_qsw_min              =   0.0000000000000E+00
(PID.TID 0000.0001) %MON forcing_qsw_mean             =   0.0000000000000E+00
(PID.TID 0000.0001) %MON forcing_qsw_sd               =   0.0000000000000E+00
(PID.TID 0000.0001) %MON forcing_qsw_del2             =   0.0000000000000E+00
(PID.TID 0000.0001) %MON forcing_empmr_max            =   7.6494447208479E-05
(PID.TID 0000.0001) %MON forcing_empmr_min            =  -1.5362614137596E-04
(PID.TID 0000.0001) %MON forcing_empmr_mean           =   4.1932798010144E-22
(PID.TID 0000.0001) %MON forcing_empmr_sd             =   2.4051723601802E-05
(PID.TID 0000.0001) %MON forcing_empmr_del2           =   1.2276157049243E-07
(PID.TID 0000.0001) %MON forcing_fu_max               =   2.4787031343914E-01
(PID.TID 0000.0001) %MON forcing_fu_min               =  -2.3765894517478E-01
(PID.TID 0000.0001) %MON forcing_fu_mean              =  -4.0696123717949E-03
(PID.TID 0000.0001) %MON forcing_fu_sd                =   6.4780529365136E-02
(PID.TID 0000.0001) %MON forcing_fu_del2              =   2.1957106468296E-04
(PID.TID 0000.0001) %MON forcing_fv_max               =   2.8232663773484E-01
(PID.TID 0000.0001) %MON forcing_fv_min               =  -3.3558686729325E-01
(PID.TID 0000.0001) %MON forcing_fv_mean              =  -1.3727682524059E-02
(PID.TID 0000.0001) %MON forcing_fv_sd                =   7.6151553873676E-02
(PID.TID 0000.0001) %MON forcing_fv_del2              =   2.4658872547121E-04
(PID.TID 0000.0001) %MON trAdv_CFL_u_max              =   8.0063056919843E-02
(PID.TID 0000.0001) %MON trAdv_CFL_v_max              =   8.1024279712960E-02
(PID.TID 0000.0001) %MON trAdv_CFL_w_max              =   7.3622393582702E-02
(PID.TID 0000.0001) %MON advcfl_uvel_max              =   8.0513139551087E-02
(PID.TID 0000.0001) %MON advcfl_vvel_max              =   7.6149750325855E-02
(PID.TID 0000.0001) %MON advcfl_wvel_max              =   6.6651870929288E-02
(PID.TID 0000.0001) %MON advcfl_W_hf_max              =   7.3622393582702E-02
(PID.TID 0000.0001) %MON pe_b_mean                    =   4.7620748685106E-04
(PID.TID 0000.0001) %MON ke_max                       =   3.9264338970893E-02
(PID.TID 0000.0001) %MON ke_mean                      =   1.4089297204067E-04
(PID.TID 0000.0001) %MON ke_vol                       =   1.3398024453628E+18
(PID.TID 0000.0001) %MON vort_r_min                   =  -1.2435987187461E-06
(PID.TID 0000.0001) %MON vort_r_max                   =   1.2376813307837E-06
(PID.TID 0000.0001) %MON vort_a_mean                  =  -2.0493733748264E-05
(PID.TID 0000.0001) %MON vort_a_sd                    =   7.5053946458946E-05
(PID.TID 0000.0001) %MON vort_p_mean                  =  -2.4715773497159E-05
(PID.TID 0000.0001) %MON vort_p_sd                    =   1.2777074033321E-04
(PID.TID 0000.0001) %MON surfExpan_theta_mean         =   4.7929841239528E-08
(PID.TID 0000.0001) %MON surfExpan_salt_mean          =   1.4414419934454E-08
(PID.TID 0000.0001) // =======================================================
(PID.TID 0000.0001) // End MONITOR dynamic field statistics
(PID.TID 0000.0001) // =======================================================
 DRIVER_GET_EXPORT_STATE_3D:MASK : Associated & shape =          32          32          15
  Finished plug run method 
 AGCM Date: 2000/04/15  Time: 00:00:00
 
 Writing:    483 Slices (  1 Nodes,  1 PartitionRoot) to File:  TEST.geosgcm_prog.20000415_0000z.nc4
 Writing:    147 Slices (  1 Nodes,  1 PartitionRoot) to File:  TEST.geosgcm_surf.20000414_2230z.nc4
 Writing:     40 Slices (  1 Nodes,  1 PartitionRoot) to File:  TEST.mit_ocn.20000415_0000z.nc4
 
  
 PCHEM::Run: Indices selected from climatology are           15          16
  

 Updated CO2 in solar for year/day 2000/106 is  0.36855E-03


 Updated Solar Constant for year/day 2000/106 is  0.13618E+04

  Starting plug run method 
 EXTERNAL_FIELDS_LOAD,     72012 : iP,iLd,i0,i1=   12    1   12    1 ; Wght=  0.1000000000  0.9000000000
 cg2d: Sum(rhs),rhsMax =  -2.25242047235952E-12  4.25675039290756E+00
(PID.TID 0000.0001)      cg2d_init_res =   3.48108491025775E-02
(PID.TID 0000.0001)      cg2d_iters(min,last) =      -1      86
(PID.TID 0000.0001)      cg2d_last_res =   8.32972435675280E-10
(PID.TID 0000.0001) // =======================================================
(PID.TID 0000.0001) // Begin MONITOR dynamic field statistics
(PID.TID 0000.0001) // =======================================================
(PID.TID 0000.0001) %MON time_tsnumber                =                 72013
(PID.TID 0000.0001) %MON time_secondsf                =   6.2219232000000E+09
(PID.TID 0000.0001) %MON dynstat_eta_max              =   9.0288510776747E-01
(PID.TID 0000.0001) %MON dynstat_eta_min              =  -1.6118086944765E+00
(PID.TID 0000.0001) %MON dynstat_eta_mean             =   1.4317641900547E-14
(PID.TID 0000.0001) %MON dynstat_eta_sd               =   5.9779560889220E-01
(PID.TID 0000.0001) %MON dynstat_eta_del2             =   7.9038104462656E-04
(PID.TID 0000.0001) %MON dynstat_uvel_max             =   1.8654630102464E-01
(PID.TID 0000.0001) %MON dynstat_uvel_min             =  -2.8343646787182E-01
(PID.TID 0000.0001) %MON dynstat_uvel_mean            =  -4.8412241261414E-04
(PID.TID 0000.0001) %MON dynstat_uvel_sd              =   1.2015408097618E-02
(PID.TID 0000.0001) %MON dynstat_uvel_del2            =   5.0992450326163E-05
(PID.TID 0000.0001) %MON dynstat_vvel_max             =   1.7459127704766E-01
(PID.TID 0000.0001) %MON dynstat_vvel_min             =  -2.2443695004451E-01
(PID.TID 0000.0001) %MON dynstat_vvel_mean            =  -4.0052960506850E-04
(PID.TID 0000.0001) %MON dynstat_vvel_sd              =   1.2662503184432E-02
(PID.TID 0000.0001) %MON dynstat_vvel_del2            =   5.0302607207822E-05
(PID.TID 0000.0001) %MON dynstat_wvel_max             =   1.0753647794415E-04
(PID.TID 0000.0001) %MON dynstat_wvel_min             =  -2.0412809853739E-04
(PID.TID 0000.0001) %MON dynstat_wvel_mean            =   7.1487847150997E-11
(PID.TID 0000.0001) %MON dynstat_wvel_sd              =   3.8070110945770E-06
(PID.TID 0000.0001) %MON dynstat_wvel_del2            =   2.6473016644273E-08
(PID.TID 0000.0001) %MON dynstat_theta_max            =   3.1089484671488E+01
(PID.TID 0000.0001) %MON dynstat_theta_min            =  -3.2427799413677E+00
(PID.TID 0000.0001) %MON dynstat_theta_mean           =   3.9098866150451E+00
(PID.TID 0000.0001) %MON dynstat_theta_sd             =   4.5718484901275E+00
(PID.TID 0000.0001) %MON dynstat_theta_del2           =   2.6951800373163E-03
(PID.TID 0000.0001) %MON dynstat_salt_max             =   4.1393820353424E+01
(PID.TID 0000.0001) %MON dynstat_salt_min             =   1.8387596098641E+01
(PID.TID 0000.0001) %MON dynstat_salt_mean            =   3.4772074685306E+01
(PID.TID 0000.0001) %MON dynstat_salt_sd              =   5.3144949296766E-01
(PID.TID 0000.0001) %MON dynstat_salt_del2            =   8.1825414121136E-04
(PID.TID 0000.0001) %MON dynstat_sst_max              =   3.1089484671488E+01
(PID.TID 0000.0001) %MON dynstat_sst_min              =  -1.9859204037086E+00
(PID.TID 0000.0001) %MON dynstat_sst_mean             =   1.8162223913517E+01
(PID.TID 0000.0001) %MON dynstat_sst_sd               =   9.7639600923563E+00
(PID.TID 0000.0001) %MON dynstat_sst_del2             =   1.6371376893245E-02
(PID.TID 0000.0001) %MON dynstat_sss_max              =   4.1393820353424E+01
(PID.TID 0000.0001) %MON dynstat_sss_min              =   1.8387596098641E+01
(PID.TID 0000.0001) %MON dynstat_sss_mean             =   3.4627388152256E+01
(PID.TID 0000.0001) %MON dynstat_sss_sd               =   1.4655249251955E+00
(PID.TID 0000.0001) %MON dynstat_sss_del2             =   8.2341973874849E-03
(PID.TID 0000.0001) %MON forcing_qnet_max             =   4.5231473652030E+02
(PID.TID 0000.0001) %MON forcing_qnet_min             =  -2.0507663277863E+02
(PID.TID 0000.0001) %MON forcing_qnet_mean            =  -1.2292562815361E+01
(PID.TID 0000.0001) %MON forcing_qnet_sd              =   1.1363265971198E+02
(PID.TID 0000.0001) %MON forcing_qnet_del2            =   4.3586655012794E-01
(PID.TID 0000.0001) %MON forcing_qsw_max              =   0.0000000000000E+00
(PID.TID 0000.0001) %MON forcing_qsw_min              =   0.0000000000000E+00
(PID.TID 0000.0001) %MON forcing_qsw_mean             =   0.0000000000000E+00
(PID.TID 0000.0001) %MON forcing_qsw_sd               =   0.0000000000000E+00
(PID.TID 0000.0001) %MON forcing_qsw_del2             =   0.0000000000000E+00
(PID.TID 0000.0001) %MON forcing_empmr_max            =   7.6494447208479E-05
(PID.TID 0000.0001) %MON forcing_empmr_min            =  -1.5362614137596E-04
(PID.TID 0000.0001) %MON forcing_empmr_mean           =   4.1932798010144E-22
(PID.TID 0000.0001) %MON forcing_empmr_sd             =   2.4051723601802E-05
(PID.TID 0000.0001) %MON forcing_empmr_del2           =   1.2276157049243E-07
(PID.TID 0000.0001) %MON forcing_fu_max               =   2.4813468793793E-01
(PID.TID 0000.0001) %MON forcing_fu_min               =  -2.4114197747619E-01
(PID.TID 0000.0001) %MON forcing_fu_mean              =  -4.0261334360615E-03
(PID.TID 0000.0001) %MON forcing_fu_sd                =   6.4936298899217E-02
(PID.TID 0000.0001) %MON forcing_fu_del2              =   2.2218555584494E-04
(PID.TID 0000.0001) %MON forcing_fv_max               =   2.8500987930747E-01
(PID.TID 0000.0001) %MON forcing_fv_min               =  -3.3637477122718E-01
(PID.TID 0000.0001) %MON forcing_fv_mean              =  -1.3731608069986E-02
(PID.TID 0000.0001) %MON forcing_fv_sd                =   7.6302994349070E-02
(PID.TID 0000.0001) %MON forcing_fv_del2              =   2.4887295503804E-04
(PID.TID 0000.0001) %MON trAdv_CFL_u_max              =   7.9938576379130E-02
(PID.TID 0000.0001) %MON trAdv_CFL_v_max              =   8.0973283402092E-02
(PID.TID 0000.0001) %MON trAdv_CFL_w_max              =   7.3513705405439E-02
(PID.TID 0000.0001) %MON advcfl_uvel_max              =   8.0387958705954E-02
(PID.TID 0000.0001) %MON advcfl_vvel_max              =   7.6101877985768E-02
(PID.TID 0000.0001) %MON advcfl_wvel_max              =   6.6553463070305E-02
(PID.TID 0000.0001) %MON advcfl_W_hf_max              =   7.3513705405439E-02
(PID.TID 0000.0001) %MON pe_b_mean                    =   4.7606901254962E-04
(PID.TID 0000.0001) %MON ke_max                       =   3.9124517053149E-02
(PID.TID 0000.0001) %MON ke_mean                      =   1.4089256589974E-04
(PID.TID 0000.0001) %MON ke_vol                       =   1.3398024453628E+18
(PID.TID 0000.0001) %MON vort_r_min                   =  -1.2492679916698E-06
(PID.TID 0000.0001) %MON vort_r_max                   =   1.2399399310581E-06
(PID.TID 0000.0001) %MON vort_a_mean                  =  -2.0493733748264E-05
(PID.TID 0000.0001) %MON vort_a_sd                    =   7.5053946375642E-05
(PID.TID 0000.0001) %MON vort_p_mean                  =  -2.4715773478428E-05
(PID.TID 0000.0001) %MON vort_p_sd                    =   1.2777073849574E-04
(PID.TID 0000.0001) %MON surfExpan_theta_mean         =   4.7840657739321E-08
(PID.TID 0000.0001) %MON surfExpan_salt_mean          =   1.4451872324964E-08
(PID.TID 0000.0001) // =======================================================
(PID.TID 0000.0001) // End MONITOR dynamic field statistics
(PID.TID 0000.0001) // =======================================================
 DRIVER_GET_EXPORT_STATE_3D:MASK : Associated & shape =          32          32          15
  Finished plug run method 
 AGCM Date: 2000/04/15  Time: 00:15:00
  Starting plug run method 
 EXTERNAL_FIELDS_LOAD,     72013 : iP,iLd,i0,i1=   12    1   12    1 ; Wght=  0.0666666667  0.9333333333
 cg2d: Sum(rhs),rhsMax =  -2.31636931857793E-12  4.25572200452936E+00
(PID.TID 0000.0001)      cg2d_init_res =   3.49785442325270E-02
(PID.TID 0000.0001)      cg2d_iters(min,last) =      -1      86
(PID.TID 0000.0001)      cg2d_last_res =   8.39815305355778E-10
(PID.TID 0000.0001) // =======================================================
(PID.TID 0000.0001) // Begin MONITOR dynamic field statistics
(PID.TID 0000.0001) // =======================================================
(PID.TID 0000.0001) %MON time_tsnumber                =                 72014
(PID.TID 0000.0001) %MON time_secondsf                =   6.2220096000000E+09
(PID.TID 0000.0001) %MON dynstat_eta_max              =   9.0162434047701E-01
(PID.TID 0000.0001) %MON dynstat_eta_min              =  -1.6113037672974E+00
(PID.TID 0000.0001) %MON dynstat_eta_mean             =   1.4125274351019E-14
(PID.TID 0000.0001) %MON dynstat_eta_sd               =   5.9771055718484E-01
(PID.TID 0000.0001) %MON dynstat_eta_del2             =   7.9084749320005E-04
(PID.TID 0000.0001) %MON dynstat_uvel_max             =   1.8614398359650E-01
(PID.TID 0000.0001) %MON dynstat_uvel_min             =  -2.8297991683966E-01
(PID.TID 0000.0001) %MON dynstat_uvel_mean            =  -4.8346583017192E-04
(PID.TID 0000.0001) %MON dynstat_uvel_sd              =   1.2015853490745E-02
(PID.TID 0000.0001) %MON dynstat_uvel_del2            =   5.0986438009739E-05
(PID.TID 0000.0001) %MON dynstat_vvel_max             =   1.7444781700088E-01
(PID.TID 0000.0001) %MON dynstat_vvel_min             =  -2.2433723218795E-01
(PID.TID 0000.0001) %MON dynstat_vvel_mean            =  -4.0014110084954E-04
(PID.TID 0000.0001) %MON dynstat_vvel_sd              =   1.2661843867593E-02
(PID.TID 0000.0001) %MON dynstat_vvel_del2            =   5.0287381160916E-05
(PID.TID 0000.0001) %MON dynstat_wvel_max             =   1.0798140464775E-04
(PID.TID 0000.0001) %MON dynstat_wvel_min             =  -2.0378617725433E-04
(PID.TID 0000.0001) %MON dynstat_wvel_mean            =   6.3412830729038E-11
(PID.TID 0000.0001) %MON dynstat_wvel_sd              =   3.8048699690810E-06
(PID.TID 0000.0001) %MON dynstat_wvel_del2            =   2.6475957568262E-08
(PID.TID 0000.0001) %MON dynstat_theta_max            =   3.1099202369855E+01
(PID.TID 0000.0001) %MON dynstat_theta_min            =  -3.2615285214482E+00
(PID.TID 0000.0001) %MON dynstat_theta_mean           =   3.9099455446238E+00
(PID.TID 0000.0001) %MON dynstat_theta_sd             =   4.5719445925782E+00
(PID.TID 0000.0001) %MON dynstat_theta_del2           =   2.6976818503308E-03
(PID.TID 0000.0001) %MON dynstat_salt_max             =   4.1394361562488E+01
(PID.TID 0000.0001) %MON dynstat_salt_min             =   1.8387957550321E+01
(PID.TID 0000.0001) %MON dynstat_salt_mean            =   3.4772075277859E+01
(PID.TID 0000.0001) %MON dynstat_salt_sd              =   5.3144714904192E-01
(PID.TID 0000.0001) %MON dynstat_salt_del2            =   8.1890859936585E-04
(PID.TID 0000.0001) %MON dynstat_sst_max              =   3.1099202369855E+01
(PID.TID 0000.0001) %MON dynstat_sst_min              =  -1.9873554097195E+00
(PID.TID 0000.0001) %MON dynstat_sst_mean             =   1.8166287976509E+01
(PID.TID 0000.0001) %MON dynstat_sst_sd               =   9.7622652191880E+00
(PID.TID 0000.0001) %MON dynstat_sst_del2             =   1.6433036021365E-02
(PID.TID 0000.0001) %MON dynstat_sss_max              =   4.1394361562488E+01
(PID.TID 0000.0001) %MON dynstat_sss_min              =   1.8387957550321E+01
(PID.TID 0000.0001) %MON dynstat_sss_mean             =   3.4626978259569E+01
(PID.TID 0000.0001) %MON dynstat_sss_sd               =   1.4652577874264E+00
(PID.TID 0000.0001) %MON dynstat_sss_del2             =   8.2445189065082E-03
(PID.TID 0000.0001) %MON forcing_qnet_max             =   4.5222027555240E+02
(PID.TID 0000.0001) %MON forcing_qnet_min             =  -2.0475234489479E+02
(PID.TID 0000.0001) %MON forcing_qnet_mean            =  -1.2304791184004E+01
(PID.TID 0000.0001) %MON forcing_qnet_sd              =   1.1350821078146E+02
(PID.TID 0000.0001) %MON forcing_qnet_del2            =   4.3821832929352E-01
(PID.TID 0000.0001) %MON forcing_qsw_max              =   0.0000000000000E+00
(PID.TID 0000.0001) %MON forcing_qsw_min              =   0.0000000000000E+00
(PID.TID 0000.0001) %MON forcing_qsw_mean             =   0.0000000000000E+00
(PID.TID 0000.0001) %MON forcing_qsw_sd               =   0.0000000000000E+00
(PID.TID 0000.0001) %MON forcing_qsw_del2             =   0.0000000000000E+00
(PID.TID 0000.0001) %MON forcing_empmr_max            =   7.6494447208479E-05
(PID.TID 0000.0001) %MON forcing_empmr_min            =  -1.5362614137596E-04
(PID.TID 0000.0001) %MON forcing_empmr_mean           =   4.1932798010144E-22
(PID.TID 0000.0001) %MON forcing_empmr_sd             =   2.4051723601802E-05
(PID.TID 0000.0001) %MON forcing_empmr_del2           =   1.2276157049243E-07
(PID.TID 0000.0001) %MON forcing_fu_max               =   2.4839906243671E-01
(PID.TID 0000.0001) %MON forcing_fu_min               =  -2.4462500977759E-01
(PID.TID 0000.0001) %MON forcing_fu_mean              =  -3.9826545003281E-03
(PID.TID 0000.0001) %MON forcing_fu_sd                =   6.5104931934298E-02
(PID.TID 0000.0001) %MON forcing_fu_del2              =   2.2499056699550E-04
(PID.TID 0000.0001) %MON forcing_fv_max               =   2.8769312088010E-01
(PID.TID 0000.0001) %MON forcing_fv_min               =  -3.3716267516111E-01
(PID.TID 0000.0001) %MON forcing_fv_mean              =  -1.3735533615913E-02
(PID.TID 0000.0001) %MON forcing_fv_sd                =   7.6464336061349E-02
(PID.TID 0000.0001) %MON forcing_fv_del2              =   2.5132568855654E-04
(PID.TID 0000.0001) %MON trAdv_CFL_u_max              =   7.9809814268900E-02
(PID.TID 0000.0001) %MON trAdv_CFL_v_max              =   8.0906689376112E-02
(PID.TID 0000.0001) %MON trAdv_CFL_w_max              =   7.3390579872986E-02
(PID.TID 0000.0001) %MON advcfl_uvel_max              =   8.0258472173060E-02
(PID.TID 0000.0001) %MON advcfl_vvel_max              =   7.6039345772472E-02
(PID.TID 0000.0001) %MON advcfl_wvel_max              =   6.6441983829337E-02
(PID.TID 0000.0001) %MON advcfl_W_hf_max              =   7.3390579872986E-02
(PID.TID 0000.0001) %MON pe_b_mean                    =   4.7593355621192E-04
(PID.TID 0000.0001) %MON ke_max                       =   3.8981716087510E-02
(PID.TID 0000.0001) %MON ke_mean                      =   1.4088931509009E-04
(PID.TID 0000.0001) %MON ke_vol                       =   1.3398024453628E+18
(PID.TID 0000.0001) %MON vort_r_min                   =  -1.2549120826940E-06
(PID.TID 0000.0001) %MON vort_r_max                   =   1.2420755103728E-06
(PID.TID 0000.0001) %MON vort_a_mean                  =  -2.0493733748264E-05
(PID.TID 0000.0001) %MON vort_a_sd                    =   7.5053946292125E-05
(PID.TID 0000.0001) %MON vort_p_mean                  =  -2.4715773458176E-05
(PID.TID 0000.0001) %MON vort_p_sd                    =   1.2777073674907E-04
(PID.TID 0000.0001) %MON surfExpan_theta_mean         =   4.7739911698608E-08
(PID.TID 0000.0001) %MON surfExpan_salt_mean          =   1.4479630586353E-08
(PID.TID 0000.0001) // =======================================================
(PID.TID 0000.0001) // End MONITOR dynamic field statistics
(PID.TID 0000.0001) // =======================================================
 DRIVER_GET_EXPORT_STATE_3D:MASK : Associated & shape =          32          32          15
  Finished plug run method 
 AGCM Date: 2000/04/15  Time: 00:30:00
  Starting plug run method 
 EXTERNAL_FIELDS_LOAD,     72014 : iP,iLd,i0,i1=   12    1   12    1 ; Wght=  0.0333333333  0.9666666667
 cg2d: Sum(rhs),rhsMax =  -2.26663132707472E-12  4.25474299351470E+00
(PID.TID 0000.0001)      cg2d_init_res =   3.52044273242975E-02
(PID.TID 0000.0001)      cg2d_iters(min,last) =      -1      86
(PID.TID 0000.0001)      cg2d_last_res =   8.50968137478300E-10
(PID.TID 0000.0001) // =======================================================
(PID.TID 0000.0001) // Begin MONITOR dynamic field statistics
(PID.TID 0000.0001) // =======================================================
(PID.TID 0000.0001) %MON time_tsnumber                =                 72015
(PID.TID 0000.0001) %MON time_secondsf                =   6.2220960000000E+09
(PID.TID 0000.0001) %MON dynstat_eta_max              =   9.0040104700687E-01
(PID.TID 0000.0001) %MON dynstat_eta_min              =  -1.6107833872034E+00
(PID.TID 0000.0001) %MON dynstat_eta_mean             =   1.4097793272515E-14
(PID.TID 0000.0001) %MON dynstat_eta_sd               =   5.9762769818189E-01
(PID.TID 0000.0001) %MON dynstat_eta_del2             =   7.9133212317850E-04
(PID.TID 0000.0001) %MON dynstat_uvel_max             =   1.8570178532775E-01
(PID.TID 0000.0001) %MON dynstat_uvel_min             =  -2.8250814136264E-01
(PID.TID 0000.0001) %MON dynstat_uvel_mean            =  -4.8279133522658E-04
(PID.TID 0000.0001) %MON dynstat_uvel_sd              =   1.2016458243716E-02
(PID.TID 0000.0001) %MON dynstat_uvel_del2            =   5.0983745311761E-05
(PID.TID 0000.0001) %MON dynstat_vvel_max             =   1.7427153736936E-01
(PID.TID 0000.0001) %MON dynstat_vvel_min             =  -2.2423333222788E-01
(PID.TID 0000.0001) %MON dynstat_vvel_mean            =  -3.9974580857548E-04
(PID.TID 0000.0001) %MON dynstat_vvel_sd              =   1.2660801929808E-02
(PID.TID 0000.0001) %MON dynstat_vvel_del2            =   5.0273571543367E-05
(PID.TID 0000.0001) %MON dynstat_wvel_max             =   1.0840644579770E-04
(PID.TID 0000.0001) %MON dynstat_wvel_min             =  -2.0341147023067E-04
(PID.TID 0000.0001) %MON dynstat_wvel_mean            =   5.4779308524423E-11
(PID.TID 0000.0001) %MON dynstat_wvel_sd              =   3.8027667139163E-06
(PID.TID 0000.0001) %MON dynstat_wvel_del2            =   2.6478784986631E-08
(PID.TID 0000.0001) %MON dynstat_theta_max            =   3.1108566969654E+01
(PID.TID 0000.0001) %MON dynstat_theta_min            =  -3.2803658765429E+00
(PID.TID 0000.0001) %MON dynstat_theta_mean           =   3.9100045389489E+00
(PID.TID 0000.0001) %MON dynstat_theta_sd             =   4.5720459993391E+00
(PID.TID 0000.0001) %MON dynstat_theta_del2           =   2.7008314729830E-03
(PID.TID 0000.0001) %MON dynstat_salt_max             =   4.1394895879342E+01
(PID.TID 0000.0001) %MON dynstat_salt_min             =   1.8388324292279E+01
(PID.TID 0000.0001) %MON dynstat_salt_mean            =   3.4772075889374E+01
(PID.TID 0000.0001) %MON dynstat_salt_sd              =   5.3144432166416E-01
(PID.TID 0000.0001) %MON dynstat_salt_del2            =   8.1973578863639E-04
(PID.TID 0000.0001) %MON dynstat_sst_max              =   3.1108566969654E+01
(PID.TID 0000.0001) %MON dynstat_sst_min              =  -1.9886465695629E+00
(PID.TID 0000.0001) %MON dynstat_sst_mean             =   1.8170250789348E+01
(PID.TID 0000.0001) %MON dynstat_sst_sd               =   9.7607310287397E+00
(PID.TID 0000.0001) %MON dynstat_sst_del2             =   1.6532293077317E-02
(PID.TID 0000.0001) %MON dynstat_sss_max              =   4.1394895879342E+01
(PID.TID 0000.0001) %MON dynstat_sss_min              =   1.8388324292279E+01
(PID.TID 0000.0001) %MON dynstat_sss_mean             =   3.4626506772483E+01
(PID.TID 0000.0001) %MON dynstat_sss_sd               =   1.4649549759493E+00
(PID.TID 0000.0001) %MON dynstat_sss_del2             =   8.2598145908301E-03
(PID.TID 0000.0001) %MON forcing_qnet_max             =   4.5655909646370E+02
(PID.TID 0000.0001) %MON forcing_qnet_min             =  -2.0442805701094E+02
(PID.TID 0000.0001) %MON forcing_qnet_mean            =  -1.2317019552647E+01
(PID.TID 0000.0001) %MON forcing_qnet_sd              =   1.1339064702855E+02
(PID.TID 0000.0001) %MON forcing_qnet_del2            =   4.4067508217007E-01
(PID.TID 0000.0001) %MON forcing_qsw_max              =   0.0000000000000E+00
(PID.TID 0000.0001) %MON forcing_qsw_min              =   0.0000000000000E+00
(PID.TID 0000.0001) %MON forcing_qsw_mean             =   0.0000000000000E+00
(PID.TID 0000.0001) %MON forcing_qsw_sd               =   0.0000000000000E+00
(PID.TID 0000.0001) %MON forcing_qsw_del2             =   0.0000000000000E+00
(PID.TID 0000.0001) %MON forcing_empmr_max            =   7.6494447208479E-05
(PID.TID 0000.0001) %MON forcing_empmr_min            =  -1.5362614137596E-04
(PID.TID 0000.0001) %MON forcing_empmr_mean           =   4.1932798010144E-22
(PID.TID 0000.0001) %MON forcing_empmr_sd             =   2.4051723601802E-05
(PID.TID 0000.0001) %MON forcing_empmr_del2           =   1.2276157049243E-07
(PID.TID 0000.0001) %MON forcing_fu_max               =   2.4866343693550E-01
(PID.TID 0000.0001) %MON forcing_fu_min               =  -2.4810804207900E-01
(PID.TID 0000.0001) %MON forcing_fu_mean              =  -3.9391755645946E-03
(PID.TID 0000.0001) %MON forcing_fu_sd                =   6.5286328792105E-02
(PID.TID 0000.0001) %MON forcing_fu_del2              =   2.2797906587778E-04
(PID.TID 0000.0001) %MON forcing_fv_max               =   2.9037636245273E-01
(PID.TID 0000.0001) %MON forcing_fv_min               =  -3.3795057909504E-01
(PID.TID 0000.0001) %MON forcing_fv_mean              =  -1.3739459161841E-02
(PID.TID 0000.0001) %MON forcing_fv_sd                =   7.6635516474945E-02
(PID.TID 0000.0001) %MON forcing_fv_del2              =   2.5394204351914E-04
(PID.TID 0000.0001) %MON trAdv_CFL_u_max              =   7.9676758396127E-02
(PID.TID 0000.0001) %MON trAdv_CFL_v_max              =   8.0824874793757E-02
(PID.TID 0000.0001) %MON trAdv_CFL_w_max              =   7.3255648224669E-02
(PID.TID 0000.0001) %MON advcfl_uvel_max              =   8.0124667698815E-02
(PID.TID 0000.0001) %MON advcfl_vvel_max              =   7.5962507964557E-02
(PID.TID 0000.0001) %MON advcfl_wvel_max              =   6.6319815199735E-02
(PID.TID 0000.0001) %MON advcfl_W_hf_max              =   7.3255648224669E-02
(PID.TID 0000.0001) %MON pe_b_mean                    =   4.7580161058690E-04
(PID.TID 0000.0001) %MON ke_max                       =   3.8835967809012E-02
(PID.TID 0000.0001) %MON ke_mean                      =   1.4088331977566E-04
(PID.TID 0000.0001) %MON ke_vol                       =   1.3398024453628E+18
(PID.TID 0000.0001) %MON vort_r_min                   =  -1.2605048706010E-06
(PID.TID 0000.0001) %MON vort_r_max                   =   1.2440714794369E-06
(PID.TID 0000.0001) %MON vort_a_mean                  =  -2.0493733748264E-05
(PID.TID 0000.0001) %MON vort_a_sd                    =   7.5053946209043E-05
(PID.TID 0000.0001) %MON vort_p_mean                  =  -2.4715773436311E-05
(PID.TID 0000.0001) %MON vort_p_sd                    =   1.2777073503998E-04
(PID.TID 0000.0001) %MON surfExpan_theta_mean         =   4.7635249426964E-08
(PID.TID 0000.0001) %MON surfExpan_salt_mean          =   1.4492429141274E-08
(PID.TID 0000.0001) // =======================================================
(PID.TID 0000.0001) // End MONITOR dynamic field statistics
(PID.TID 0000.0001) // =======================================================
 DRIVER_GET_EXPORT_STATE_3D:MASK : Associated & shape =          32          32          15
  Finished plug run method 
 AGCM Date: 2000/04/15  Time: 00:45:00
  Starting plug run method 
 EXTERNAL_FIELDS_LOAD,     72015 : iP,iLd,i0,i1=   12    1    1    2 ; Wght=  1.0000000000  0.0000000000
 EXTERNAL_FIELDS_LOAD, it=     72015 : Reading new data, i0,i1=    1    2 (prev=   12    1 )
(PID.TID 0000.0001)  MDS_READ_FIELD: opening global file: trenberth_taux.bin
(PID.TID 0000.0001)  MDS_READ_FIELD: opening global file: trenberth_taux.bin
(PID.TID 0000.0001)  MDS_READ_FIELD: opening global file: trenberth_tauy.bin
(PID.TID 0000.0001)  MDS_READ_FIELD: opening global file: trenberth_tauy.bin
(PID.TID 0000.0001)  MDS_READ_FIELD: opening global file: shiQnet_cs32.bin
(PID.TID 0000.0001)  MDS_READ_FIELD: opening global file: shiQnet_cs32.bin
(PID.TID 0000.0001)  MDS_READ_FIELD: opening global file: shiEmPR_cs32.bin
(PID.TID 0000.0001)  MDS_READ_FIELD: opening global file: shiEmPR_cs32.bin
(PID.TID 0000.0001)  MDS_READ_FIELD: opening global file: lev_surfT_cs_12m.bin
(PID.TID 0000.0001)  MDS_READ_FIELD: opening global file: lev_surfT_cs_12m.bin
(PID.TID 0000.0001)  MDS_READ_FIELD: opening global file: lev_surfS_cs_12m.bin
(PID.TID 0000.0001)  MDS_READ_FIELD: opening global file: lev_surfS_cs_12m.bin
 cg2d: Sum(rhs),rhsMax =  -2.30926389122033E-12  4.25378485756544E+00
(PID.TID 0000.0001)      cg2d_init_res =   3.54775046347710E-02
(PID.TID 0000.0001)      cg2d_iters(min,last) =      -1      86
(PID.TID 0000.0001)      cg2d_last_res =   8.64483163936550E-10
(PID.TID 0000.0001) // =======================================================
(PID.TID 0000.0001) // Begin MONITOR dynamic field statistics
(PID.TID 0000.0001) // =======================================================
(PID.TID 0000.0001) %MON time_tsnumber                =                 72016
(PID.TID 0000.0001) %MON time_secondsf                =   6.2221824000000E+09
(PID.TID 0000.0001) %MON dynstat_eta_max              =   8.9921653190440E-01
(PID.TID 0000.0001) %MON dynstat_eta_min              =  -1.6102485141720E+00
(PID.TID 0000.0001) %MON dynstat_eta_mean             =   1.4125274351019E-14
(PID.TID 0000.0001) %MON dynstat_eta_sd               =   5.9754747935443E-01
(PID.TID 0000.0001) %MON dynstat_eta_del2             =   7.9184098828532E-04
(PID.TID 0000.0001) %MON dynstat_uvel_max             =   1.8522611938071E-01
(PID.TID 0000.0001) %MON dynstat_uvel_min             =  -2.8202112523176E-01
(PID.TID 0000.0001) %MON dynstat_uvel_mean            =  -4.8210634818096E-04
(PID.TID 0000.0001) %MON dynstat_uvel_sd              =   1.2017183786867E-02
(PID.TID 0000.0001) %MON dynstat_uvel_del2            =   5.0984623615308E-05
(PID.TID 0000.0001) %MON dynstat_vvel_max             =   1.7406363114631E-01
(PID.TID 0000.0001) %MON dynstat_vvel_min             =  -2.2412555652275E-01
(PID.TID 0000.0001) %MON dynstat_vvel_mean            =  -3.9933689038683E-04
(PID.TID 0000.0001) %MON dynstat_vvel_sd              =   1.2659424741257E-02
(PID.TID 0000.0001) %MON dynstat_vvel_del2            =   5.0261194245906E-05
(PID.TID 0000.0001) %MON dynstat_wvel_max             =   1.0880643752730E-04
(PID.TID 0000.0001) %MON dynstat_wvel_min             =  -2.0300980271899E-04
(PID.TID 0000.0001) %MON dynstat_wvel_mean            =   4.7112788011455E-11
(PID.TID 0000.0001) %MON dynstat_wvel_sd              =   3.8006818836419E-06
(PID.TID 0000.0001) %MON dynstat_wvel_del2            =   2.6481959017532E-08
(PID.TID 0000.0001) %MON dynstat_theta_max            =   3.1117585629996E+01
(PID.TID 0000.0001) %MON dynstat_theta_min            =  -3.2992734653954E+00
(PID.TID 0000.0001) %MON dynstat_theta_mean           =   3.9100635954158E+00
(PID.TID 0000.0001) %MON dynstat_theta_sd             =   4.5721525282160E+00
(PID.TID 0000.0001) %MON dynstat_theta_del2           =   2.7031475536947E-03
(PID.TID 0000.0001) %MON dynstat_salt_max             =   4.1395423553935E+01
(PID.TID 0000.0001) %MON dynstat_salt_min             =   1.8388696361818E+01
(PID.TID 0000.0001) %MON dynstat_salt_mean            =   3.4772076521027E+01
(PID.TID 0000.0001) %MON dynstat_salt_sd              =   5.3144095982786E-01
(PID.TID 0000.0001) %MON dynstat_salt_del2            =   8.2037347625175E-04
(PID.TID 0000.0001) %MON dynstat_sst_max              =   3.1117585629996E+01
(PID.TID 0000.0001) %MON dynstat_sst_min              =  -1.9893839397941E+00
(PID.TID 0000.0001) %MON dynstat_sst_mean             =   1.8174402271372E+01
(PID.TID 0000.0001) %MON dynstat_sst_sd               =   9.7592757752944E+00
(PID.TID 0000.0001) %MON dynstat_sst_del2             =   1.6609589779712E-02
(PID.TID 0000.0001) %MON dynstat_sss_max              =   4.1395423553935E+01
(PID.TID 0000.0001) %MON dynstat_sss_min              =   1.8388696361818E+01
(PID.TID 0000.0001) %MON dynstat_sss_mean             =   3.4626059330365E+01
(PID.TID 0000.0001) %MON dynstat_sss_sd               =   1.4645636077264E+00
(PID.TID 0000.0001) %MON dynstat_sss_del2             =   8.2712946758850E-03
(PID.TID 0000.0001) %MON forcing_qnet_max             =   4.6211611868841E+02
(PID.TID 0000.0001) %MON forcing_qnet_min             =  -2.0410376912710E+02
(PID.TID 0000.0001) %MON forcing_qnet_mean            =  -1.2329247921290E+01
(PID.TID 0000.0001) %MON forcing_qnet_sd              =   1.1327998988989E+02
(PID.TID 0000.0001) %MON forcing_qnet_del2            =   4.4323506322358E-01
(PID.TID 0000.0001) %MON forcing_qsw_max              =   0.0000000000000E+00
(PID.TID 0000.0001) %MON forcing_qsw_min              =   0.0000000000000E+00
(PID.TID 0000.0001) %MON forcing_qsw_mean             =   0.0000000000000E+00
(PID.TID 0000.0001) %MON forcing_qsw_sd               =   0.0000000000000E+00
(PID.TID 0000.0001) %MON forcing_qsw_del2             =   0.0000000000000E+00
(PID.TID 0000.0001) %MON forcing_empmr_max            =   7.6494447208479E-05
(PID.TID 0000.0001) %MON forcing_empmr_min            =  -1.5362614137596E-04
(PID.TID 0000.0001) %MON forcing_empmr_mean           =   4.1932798010144E-22
(PID.TID 0000.0001) %MON forcing_empmr_sd             =   2.4051723601802E-05
(PID.TID 0000.0001) %MON forcing_empmr_del2           =   1.2276157049243E-07
(PID.TID 0000.0001) %MON forcing_fu_max               =   2.4892781143428E-01
(PID.TID 0000.0001) %MON forcing_fu_min               =  -2.5159107438040E-01
(PID.TID 0000.0001) %MON forcing_fu_mean              =  -3.8956966288612E-03
(PID.TID 0000.0001) %MON forcing_fu_sd                =   6.5480383395885E-02
(PID.TID 0000.0001) %MON forcing_fu_del2              =   2.3114393556995E-04
(PID.TID 0000.0001) %MON forcing_fv_max               =   2.9305960402537E-01
(PID.TID 0000.0001) %MON forcing_fv_min               =  -3.3950131228473E-01
(PID.TID 0000.0001) %MON forcing_fv_mean              =  -1.3743384707768E-02
(PID.TID 0000.0001) %MON forcing_fv_sd                =   7.6816469815204E-02
(PID.TID 0000.0001) %MON forcing_fv_del2              =   2.5671701728584E-04
(PID.TID 0000.0001) %MON trAdv_CFL_u_max              =   7.9539404180856E-02
(PID.TID 0000.0001) %MON trAdv_CFL_v_max              =   8.0728393001626E-02
(PID.TID 0000.0001) %MON trAdv_CFL_w_max              =   7.3111008503139E-02
(PID.TID 0000.0001) %MON advcfl_uvel_max              =   7.9986540686044E-02
(PID.TID 0000.0001) %MON advcfl_vvel_max              =   7.5871884570958E-02
(PID.TID 0000.0001) %MON advcfl_wvel_max              =   6.6188856433663E-02
(PID.TID 0000.0001) %MON advcfl_W_hf_max              =   7.3111008503139E-02
(PID.TID 0000.0001) %MON pe_b_mean                    =   4.7567388663507E-04
(PID.TID 0000.0001) %MON ke_max                       =   3.8687305825965E-02
(PID.TID 0000.0001) %MON ke_mean                      =   1.4087471247793E-04
(PID.TID 0000.0001) %MON ke_vol                       =   1.3398024453628E+18
(PID.TID 0000.0001) %MON vort_r_min                   =  -1.2660218446842E-06
(PID.TID 0000.0001) %MON vort_r_max                   =   1.2458898684579E-06
(PID.TID 0000.0001) %MON vort_a_mean                  =  -2.0493733748264E-05
(PID.TID 0000.0001) %MON vort_a_sd                    =   7.5053946126764E-05
(PID.TID 0000.0001) %MON vort_p_mean                  =  -2.4715773412654E-05
(PID.TID 0000.0001) %MON vort_p_sd                    =   1.2777073332234E-04
(PID.TID 0000.0001) %MON surfExpan_theta_mean         =   4.7556438783568E-08
(PID.TID 0000.0001) %MON surfExpan_salt_mean          =   1.4490116164317E-08
(PID.TID 0000.0001) // =======================================================
(PID.TID 0000.0001) // End MONITOR dynamic field statistics
(PID.TID 0000.0001) // =======================================================
 DRIVER_GET_EXPORT_STATE_3D:MASK : Associated & shape =          32          32          15
  Finished plug run method 
 AGCM Date: 2000/04/15  Time: 01:00:00
 
 Writing:     40 Slices (  1 Nodes,  1 PartitionRoot) to File:  TEST.mit_ocn.20000415_0100z.nc4
 
  Starting plug run method 
 EXTERNAL_FIELDS_LOAD,     72016 : iP,iLd,i0,i1=    1    2    1    2 ; Wght=  0.9666666667  0.0333333333
 cg2d: Sum(rhs),rhsMax =  -2.25242047235952E-12  4.25272378017616E+00
(PID.TID 0000.0001)      cg2d_init_res =   3.53057852841043E-02
(PID.TID 0000.0001)      cg2d_iters(min,last) =      -1      86
(PID.TID 0000.0001)      cg2d_last_res =   8.66568066439602E-10
(PID.TID 0000.0001) // =======================================================
(PID.TID 0000.0001) // Begin MONITOR dynamic field statistics
(PID.TID 0000.0001) // =======================================================
(PID.TID 0000.0001) %MON time_tsnumber                =                 72017
(PID.TID 0000.0001) %MON time_secondsf                =   6.2222688000000E+09
(PID.TID 0000.0001) %MON dynstat_eta_max              =   8.9809593847508E-01
(PID.TID 0000.0001) %MON dynstat_eta_min              =  -1.6096441811172E+00
(PID.TID 0000.0001) %MON dynstat_eta_mean             =   1.4317641900547E-14
(PID.TID 0000.0001) %MON dynstat_eta_sd               =   5.9746715425959E-01
(PID.TID 0000.0001) %MON dynstat_eta_del2             =   7.9236347667454E-04
(PID.TID 0000.0001) %MON dynstat_uvel_max             =   1.8526188361675E-01
(PID.TID 0000.0001) %MON dynstat_uvel_min             =  -2.8152325984475E-01
(PID.TID 0000.0001) %MON dynstat_uvel_mean            =  -4.8145009072556E-04
(PID.TID 0000.0001) %MON dynstat_uvel_sd              =   1.2018018152933E-02
(PID.TID 0000.0001) %MON dynstat_uvel_del2            =   5.0987719616768E-05
(PID.TID 0000.0001) %MON dynstat_vvel_max             =   1.7382531478597E-01
(PID.TID 0000.0001) %MON dynstat_vvel_min             =  -2.2400703815936E-01
(PID.TID 0000.0001) %MON dynstat_vvel_mean            =  -3.9892551837483E-04
(PID.TID 0000.0001) %MON dynstat_vvel_sd              =   1.2657296189989E-02
(PID.TID 0000.0001) %MON dynstat_vvel_del2            =   5.0249949945758E-05
(PID.TID 0000.0001) %MON dynstat_wvel_max             =   1.0917712817818E-04
(PID.TID 0000.0001) %MON dynstat_wvel_min             =  -2.0257979267131E-04
(PID.TID 0000.0001) %MON dynstat_wvel_mean            =   2.8737514215934E-11
(PID.TID 0000.0001) %MON dynstat_wvel_sd              =   3.7985270270708E-06
(PID.TID 0000.0001) %MON dynstat_wvel_del2            =   2.6483657322987E-08
(PID.TID 0000.0001) %MON dynstat_theta_max            =   3.1126069135968E+01
(PID.TID 0000.0001) %MON dynstat_theta_min            =  -3.3183041012396E+00
(PID.TID 0000.0001) %MON dynstat_theta_mean           =   3.9101231697314E+00
(PID.TID 0000.0001) %MON dynstat_theta_sd             =   4.5722680334846E+00
(PID.TID 0000.0001) %MON dynstat_theta_del2           =   2.7047536629278E-03
(PID.TID 0000.0001) %MON dynstat_salt_max             =   4.1395955538616E+01
(PID.TID 0000.0001) %MON dynstat_salt_min             =   1.8389069961603E+01
(PID.TID 0000.0001) %MON dynstat_salt_mean            =   3.4772077171498E+01
(PID.TID 0000.0001) %MON dynstat_salt_sd              =   5.3143664627583E-01
(PID.TID 0000.0001) %MON dynstat_salt_del2            =   8.2110621310106E-04
(PID.TID 0000.0001) %MON dynstat_sst_max              =   3.1126069135968E+01
(PID.TID 0000.0001) %MON dynstat_sst_min              =  -1.9886761686229E+00
(PID.TID 0000.0001) %MON dynstat_sst_mean             =   1.8179043404217E+01
(PID.TID 0000.0001) %MON dynstat_sst_sd               =   9.7579071828817E+00
(PID.TID 0000.0001) %MON dynstat_sst_del2             =   1.6684386891663E-02
(PID.TID 0000.0001) %MON dynstat_sss_max              =   4.1395955538616E+01
(PID.TID 0000.0001) %MON dynstat_sss_min              =   1.8389069961603E+01
(PID.TID 0000.0001) %MON dynstat_sss_mean             =   3.4625733802117E+01
(PID.TID 0000.0001) %MON dynstat_sss_sd               =   1.4643782316854E+00
(PID.TID 0000.0001) %MON dynstat_sss_del2             =   8.2830824768616E-03
(PID.TID 0000.0001) %MON forcing_qnet_max             =   4.5753071201305E+02
(PID.TID 0000.0001) %MON forcing_qnet_min             =  -2.0101909770688E+02
(PID.TID 0000.0001) %MON forcing_qnet_mean            =  -1.2374912456645E+01
(PID.TID 0000.0001) %MON forcing_qnet_sd              =   1.1223184124370E+02
(PID.TID 0000.0001) %MON forcing_qnet_del2            =   4.4119059898150E-01
(PID.TID 0000.0001) %MON forcing_qsw_max              =   0.0000000000000E+00
(PID.TID 0000.0001) %MON forcing_qsw_min              =   0.0000000000000E+00
(PID.TID 0000.0001) %MON forcing_qsw_mean             =   0.0000000000000E+00
(PID.TID 0000.0001) %MON forcing_qsw_sd               =   0.0000000000000E+00
(PID.TID 0000.0001) %MON forcing_qsw_del2             =   0.0000000000000E+00
(PID.TID 0000.0001) %MON forcing_empmr_max            =   7.6494447208479E-05
(PID.TID 0000.0001) %MON forcing_empmr_min            =  -1.5362614137596E-04
(PID.TID 0000.0001) %MON forcing_empmr_mean           =   0.0000000000000E+00
(PID.TID 0000.0001) %MON forcing_empmr_sd             =   2.4051723601802E-05
(PID.TID 0000.0001) %MON forcing_empmr_del2           =   1.2276157049243E-07
(PID.TID 0000.0001) %MON forcing_fu_max               =   2.4586080052368E-01
(PID.TID 0000.0001) %MON forcing_fu_min               =  -2.4690104382675E-01
(PID.TID 0000.0001) %MON forcing_fu_mean              =  -3.9278253198990E-03
(PID.TID 0000.0001) %MON forcing_fu_sd                =   6.5282090105345E-02
(PID.TID 0000.0001) %MON forcing_fu_del2              =   2.2765741152947E-04
(PID.TID 0000.0001) %MON forcing_fv_max               =   2.9225622243089E-01
(PID.TID 0000.0001) %MON forcing_fv_min               =  -3.3606226010595E-01
(PID.TID 0000.0001) %MON forcing_fv_mean              =  -1.3741594714266E-02
(PID.TID 0000.0001) %MON forcing_fv_sd                =   7.6550053729987E-02
(PID.TID 0000.0001) %MON forcing_fv_del2              =   2.5418174123344E-04
(PID.TID 0000.0001) %MON trAdv_CFL_u_max              =   7.9398990138088E-02
(PID.TID 0000.0001) %MON trAdv_CFL_v_max              =   8.0617808208516E-02
(PID.TID 0000.0001) %MON trAdv_CFL_w_max              =   7.2956162957572E-02
(PID.TID 0000.0001) %MON advcfl_uvel_max              =   7.9845336618433E-02
(PID.TID 0000.0001) %MON advcfl_vvel_max              =   7.5768005826939E-02
(PID.TID 0000.0001) %MON advcfl_wvel_max              =   6.6048656931326E-02
(PID.TID 0000.0001) %MON advcfl_W_hf_max              =   7.2956162957572E-02
(PID.TID 0000.0001) %MON pe_b_mean                    =   4.7554601066440E-04
(PID.TID 0000.0001) %MON ke_max                       =   3.8538352181519E-02
(PID.TID 0000.0001) %MON ke_mean                      =   1.4085849666395E-04
(PID.TID 0000.0001) %MON ke_vol                       =   1.3398024453628E+18
(PID.TID 0000.0001) %MON vort_r_min                   =  -1.2712677454035E-06
(PID.TID 0000.0001) %MON vort_r_max                   =   1.2473146730788E-06
(PID.TID 0000.0001) %MON vort_a_mean                  =  -2.0493733748264E-05
(PID.TID 0000.0001) %MON vort_a_sd                    =   7.5053946045890E-05
(PID.TID 0000.0001) %MON vort_p_mean                  =  -2.4715773387500E-05
(PID.TID 0000.0001) %MON vort_p_sd                    =   1.2777073158876E-04
(PID.TID 0000.0001) %MON surfExpan_theta_mean         =   4.7443487913737E-08
(PID.TID 0000.0001) %MON surfExpan_salt_mean          =   1.4497194996628E-08
(PID.TID 0000.0001) // =======================================================
(PID.TID 0000.0001) // End MONITOR dynamic field statistics
(PID.TID 0000.0001) // =======================================================
 DRIVER_GET_EXPORT_STATE_3D:MASK : Associated & shape =          32          32          15
  Finished plug run method 
 AGCM Date: 2000/04/15  Time: 01:15:00
  Starting plug run method 
 EXTERNAL_FIELDS_LOAD,     72017 : iP,iLd,i0,i1=    1    2    1    2 ; Wght=  0.9333333333  0.0666666667
 cg2d: Sum(rhs),rhsMax =  -2.28794760914752E-12  4.25172908352945E+00
(PID.TID 0000.0001)      cg2d_init_res =   3.64127678673927E-02
(PID.TID 0000.0001)      cg2d_iters(min,last) =      -1      86
(PID.TID 0000.0001)      cg2d_last_res =   8.70420570156124E-10
(PID.TID 0000.0001) // =======================================================
(PID.TID 0000.0001) // Begin MONITOR dynamic field statistics
(PID.TID 0000.0001) // =======================================================
(PID.TID 0000.0001) %MON time_tsnumber                =                 72018
(PID.TID 0000.0001) %MON time_secondsf                =   6.2223552000000E+09
(PID.TID 0000.0001) %MON dynstat_eta_max              =   8.9702444357370E-01
(PID.TID 0000.0001) %MON dynstat_eta_min              =  -1.6090346354727E+00
(PID.TID 0000.0001) %MON dynstat_eta_mean             =   1.4537490528578E-14
(PID.TID 0000.0001) %MON dynstat_eta_sd               =   5.9739033512186E-01
(PID.TID 0000.0001) %MON dynstat_eta_del2             =   7.9293929139163E-04
(PID.TID 0000.0001) %MON dynstat_uvel_max             =   1.8525593558117E-01
(PID.TID 0000.0001) %MON dynstat_uvel_min             =  -2.8101302051875E-01
(PID.TID 0000.0001) %MON dynstat_uvel_mean            =  -4.8082370770037E-04
(PID.TID 0000.0001) %MON dynstat_uvel_sd              =   1.2018880567511E-02
(PID.TID 0000.0001) %MON dynstat_uvel_del2            =   5.0993594163957E-05
(PID.TID 0000.0001) %MON dynstat_vvel_max             =   1.7355834742513E-01
(PID.TID 0000.0001) %MON dynstat_vvel_min             =  -2.2388090106369E-01
(PID.TID 0000.0001) %MON dynstat_vvel_mean            =  -3.9850257808419E-04
(PID.TID 0000.0001) %MON dynstat_vvel_sd              =   1.2654615633762E-02
(PID.TID 0000.0001) %MON dynstat_vvel_del2            =   5.0239459548616E-05
(PID.TID 0000.0001) %MON dynstat_wvel_max             =   1.0950795287320E-04
(PID.TID 0000.0001) %MON dynstat_wvel_min             =  -2.0212863140308E-04
(PID.TID 0000.0001) %MON dynstat_wvel_mean            =   1.4620325511429E-11
(PID.TID 0000.0001) %MON dynstat_wvel_sd              =   3.7962335147885E-06
(PID.TID 0000.0001) %MON dynstat_wvel_del2            =   2.6484259861308E-08
(PID.TID 0000.0001) %MON dynstat_theta_max            =   3.1134017077195E+01
(PID.TID 0000.0001) %MON dynstat_theta_min            =  -3.3374523807322E+00
(PID.TID 0000.0001) %MON dynstat_theta_mean           =   3.9101832592171E+00
(PID.TID 0000.0001) %MON dynstat_theta_sd             =   4.5723935721366E+00
(PID.TID 0000.0001) %MON dynstat_theta_del2           =   2.7086238586066E-03
(PID.TID 0000.0001) %MON dynstat_salt_max             =   4.1396495705627E+01
(PID.TID 0000.0001) %MON dynstat_salt_min             =   1.8389444992927E+01
(PID.TID 0000.0001) %MON dynstat_salt_mean            =   3.4772077837923E+01
(PID.TID 0000.0001) %MON dynstat_salt_sd              =   5.3143330995485E-01
(PID.TID 0000.0001) %MON dynstat_salt_del2            =   8.2243010266355E-04
(PID.TID 0000.0001) %MON dynstat_sst_max              =   3.1134017077195E+01
(PID.TID 0000.0001) %MON dynstat_sst_min              =  -1.9877257649294E+00
(PID.TID 0000.0001) %MON dynstat_sst_mean             =   1.8184240202108E+01
(PID.TID 0000.0001) %MON dynstat_sst_sd               =   9.7565401093878E+00
(PID.TID 0000.0001) %MON dynstat_sst_del2             =   1.6809362435301E-02
(PID.TID 0000.0001) %MON dynstat_sss_max              =   4.1396495705627E+01
(PID.TID 0000.0001) %MON dynstat_sss_min              =   1.8389444992927E+01
(PID.TID 0000.0001) %MON dynstat_sss_mean             =   3.4625537803684E+01
(PID.TID 0000.0001) %MON dynstat_sss_sd               =   1.4641990501674E+00
(PID.TID 0000.0001) %MON dynstat_sss_del2             =   8.3008421791890E-03
(PID.TID 0000.0001) %MON forcing_qnet_max             =   4.5294530533769E+02
(PID.TID 0000.0001) %MON forcing_qnet_min             =  -1.9793442628666E+02
(PID.TID 0000.0001) %MON forcing_qnet_mean            =  -1.2420576992001E+01
(PID.TID 0000.0001) %MON forcing_qnet_sd              =   1.1119236898197E+02
(PID.TID 0000.0001) %MON forcing_qnet_del2            =   4.3924090499131E-01
(PID.TID 0000.0001) %MON forcing_qsw_max              =   0.0000000000000E+00
(PID.TID 0000.0001) %MON forcing_qsw_min              =   0.0000000000000E+00
(PID.TID 0000.0001) %MON forcing_qsw_mean             =   0.0000000000000E+00
(PID.TID 0000.0001) %MON forcing_qsw_sd               =   0.0000000000000E+00
(PID.TID 0000.0001) %MON forcing_qsw_del2             =   0.0000000000000E+00
(PID.TID 0000.0001) %MON forcing_empmr_max            =   7.6494447208479E-05
(PID.TID 0000.0001) %MON forcing_empmr_min            =  -1.5362614137596E-04
(PID.TID 0000.0001) %MON forcing_empmr_mean           =   8.3865596020288E-22
(PID.TID 0000.0001) %MON forcing_empmr_sd             =   2.4051723601802E-05
(PID.TID 0000.0001) %MON forcing_empmr_del2           =   1.2276157049243E-07
(PID.TID 0000.0001) %MON forcing_fu_max               =   2.4279378961307E-01
(PID.TID 0000.0001) %MON forcing_fu_min               =  -2.4221101327311E-01
(PID.TID 0000.0001) %MON forcing_fu_mean              =  -3.9599540109368E-03
(PID.TID 0000.0001) %MON forcing_fu_sd                =   6.5097565012911E-02
(PID.TID 0000.0001) %MON forcing_fu_del2              =   2.2436904772887E-04
(PID.TID 0000.0001) %MON forcing_fv_max               =   2.9145284083641E-01
(PID.TID 0000.0001) %MON forcing_fv_min               =  -3.3262320792717E-01
(PID.TID 0000.0001) %MON forcing_fv_mean              =  -1.3739804720763E-02
(PID.TID 0000.0001) %MON forcing_fv_sd                =   7.6299912613877E-02
(PID.TID 0000.0001) %MON forcing_fv_del2              =   2.5181803534899E-04
(PID.TID 0000.0001) %MON trAdv_CFL_u_max              =   7.9255086219683E-02
(PID.TID 0000.0001) %MON trAdv_CFL_v_max              =   8.0493937861568E-02
(PID.TID 0000.0001) %MON trAdv_CFL_w_max              =   7.2793703151942E-02
(PID.TID 0000.0001) %MON advcfl_uvel_max              =   7.9700623067011E-02
(PID.TID 0000.0001) %MON advcfl_vvel_max              =   7.5651638515440E-02
(PID.TID 0000.0001) %MON advcfl_wvel_max              =   6.5901561332930E-02
(PID.TID 0000.0001) %MON advcfl_W_hf_max              =   7.2793703151942E-02
(PID.TID 0000.0001) %MON pe_b_mean                    =   4.7542373219018E-04
(PID.TID 0000.0001) %MON ke_max                       =   3.8388151415003E-02
(PID.TID 0000.0001) %MON ke_mean                      =   1.4083612315666E-04
(PID.TID 0000.0001) %MON ke_vol                       =   1.3398024453628E+18
(PID.TID 0000.0001) %MON vort_r_min                   =  -1.2762929164899E-06
(PID.TID 0000.0001) %MON vort_r_max                   =   1.2484044158424E-06
(PID.TID 0000.0001) %MON vort_a_mean                  =  -2.0493733748264E-05
(PID.TID 0000.0001) %MON vort_a_sd                    =   7.5053945971934E-05
(PID.TID 0000.0001) %MON vort_p_mean                  =  -2.4715773360480E-05
(PID.TID 0000.0001) %MON vort_p_sd                    =   1.2777072985759E-04
(PID.TID 0000.0001) %MON surfExpan_theta_mean         =   4.7351389146869E-08
(PID.TID 0000.0001) %MON surfExpan_salt_mean          =   1.4529844027223E-08
(PID.TID 0000.0001) // =======================================================
(PID.TID 0000.0001) // End MONITOR dynamic field statistics
(PID.TID 0000.0001) // =======================================================
 DRIVER_GET_EXPORT_STATE_3D:MASK : Associated & shape =          32          32          15
  Finished plug run method 
 AGCM Date: 2000/04/15  Time: 01:30:00
  Starting plug run method 
 EXTERNAL_FIELDS_LOAD,     72018 : iP,iLd,i0,i1=    1    2    1    2 ; Wght=  0.9000000000  0.1000000000
 cg2d: Sum(rhs),rhsMax =  -2.22399876292911E-12  4.25068983918074E+00
(PID.TID 0000.0001)      cg2d_init_res =   3.81588646516096E-02
(PID.TID 0000.0001)      cg2d_iters(min,last) =      -1      86
(PID.TID 0000.0001)      cg2d_last_res =   8.90372633545702E-10
(PID.TID 0000.0001) // =======================================================
(PID.TID 0000.0001) // Begin MONITOR dynamic field statistics
(PID.TID 0000.0001) // =======================================================
(PID.TID 0000.0001) %MON time_tsnumber                =                 72019
(PID.TID 0000.0001) %MON time_secondsf                =   6.2224416000000E+09
(PID.TID 0000.0001) %MON dynstat_eta_max              =   8.9598707873809E-01
(PID.TID 0000.0001) %MON dynstat_eta_min              =  -1.6084365465812E+00
(PID.TID 0000.0001) %MON dynstat_eta_mean             =   1.4152755429523E-14
(PID.TID 0000.0001) %MON dynstat_eta_sd               =   5.9731879581892E-01
(PID.TID 0000.0001) %MON dynstat_eta_del2             =   7.9361263990257E-04
(PID.TID 0000.0001) %MON dynstat_uvel_max             =   1.8518514872426E-01
(PID.TID 0000.0001) %MON dynstat_uvel_min             =  -2.8049040778134E-01
(PID.TID 0000.0001) %MON dynstat_uvel_mean            =  -4.8023798023686E-04
(PID.TID 0000.0001) %MON dynstat_uvel_sd              =   1.2019719852236E-02
(PID.TID 0000.0001) %MON dynstat_uvel_del2            =   5.1002534157699E-05
(PID.TID 0000.0001) %MON dynstat_vvel_max             =   1.7326485736948E-01
(PID.TID 0000.0001) %MON dynstat_vvel_min             =  -2.2374754648326E-01
(PID.TID 0000.0001) %MON dynstat_vvel_mean            =  -3.9805171741999E-04
(PID.TID 0000.0001) %MON dynstat_vvel_sd              =   1.2651459805258E-02
(PID.TID 0000.0001) %MON dynstat_vvel_del2            =   5.0229686752789E-05
(PID.TID 0000.0001) %MON dynstat_wvel_max             =   1.0979251646811E-04
(PID.TID 0000.0001) %MON dynstat_wvel_min             =  -2.0166270762902E-04
(PID.TID 0000.0001) %MON dynstat_wvel_mean            =   5.1864153640000E-12
(PID.TID 0000.0001) %MON dynstat_wvel_sd              =   3.7937782757104E-06
(PID.TID 0000.0001) %MON dynstat_wvel_del2            =   2.6484604739644E-08
(PID.TID 0000.0001) %MON dynstat_theta_max            =   3.1143375782266E+01
(PID.TID 0000.0001) %MON dynstat_theta_min            =  -3.3567199582645E+00
(PID.TID 0000.0001) %MON dynstat_theta_mean           =   3.9102435912459E+00
(PID.TID 0000.0001) %MON dynstat_theta_sd             =   4.5725294861575E+00
(PID.TID 0000.0001) %MON dynstat_theta_del2           =   2.7156430317397E-03
(PID.TID 0000.0001) %MON dynstat_salt_max             =   4.1397044866879E+01
(PID.TID 0000.0001) %MON dynstat_salt_min             =   1.8389821363868E+01
(PID.TID 0000.0001) %MON dynstat_salt_mean            =   3.4772078517114E+01
(PID.TID 0000.0001) %MON dynstat_salt_sd              =   5.3143010687588E-01
(PID.TID 0000.0001) %MON dynstat_salt_del2            =   8.2403835027797E-04
(PID.TID 0000.0001) %MON dynstat_sst_max              =   3.1143375782266E+01
(PID.TID 0000.0001) %MON dynstat_sst_min              =  -1.9867358863811E+00
(PID.TID 0000.0001) %MON dynstat_sst_mean             =   1.8189737592373E+01
(PID.TID 0000.0001) %MON dynstat_sst_sd               =   9.7551503414087E+00
(PID.TID 0000.0001) %MON dynstat_sst_del2             =   1.6974386400451E-02
(PID.TID 0000.0001) %MON dynstat_sss_max              =   4.1397044866879E+01
(PID.TID 0000.0001) %MON dynstat_sss_min              =   1.8389821363868E+01
(PID.TID 0000.0001) %MON dynstat_sss_mean             =   3.4625378694062E+01
(PID.TID 0000.0001) %MON dynstat_sss_sd               =   1.4640518975897E+00
(PID.TID 0000.0001) %MON dynstat_sss_del2             =   8.3206783763035E-03
(PID.TID 0000.0001) %MON forcing_qnet_max             =   4.4835989866233E+02
(PID.TID 0000.0001) %MON forcing_qnet_min             =  -1.9586302274640E+02
(PID.TID 0000.0001) %MON forcing_qnet_mean            =  -1.2466241527356E+01
(PID.TID 0000.0001) %MON forcing_qnet_sd              =   1.1016181871259E+02
(PID.TID 0000.0001) %MON forcing_qnet_del2            =   4.3738724859626E-01
(PID.TID 0000.0001) %MON forcing_qsw_max              =   0.0000000000000E+00
(PID.TID 0000.0001) %MON forcing_qsw_min              =   0.0000000000000E+00
(PID.TID 0000.0001) %MON forcing_qsw_mean             =   0.0000000000000E+00
(PID.TID 0000.0001) %MON forcing_qsw_sd               =   0.0000000000000E+00
(PID.TID 0000.0001) %MON forcing_qsw_del2             =   0.0000000000000E+00
(PID.TID 0000.0001) %MON forcing_empmr_max            =   7.6494447208479E-05
(PID.TID 0000.0001) %MON forcing_empmr_min            =  -1.5362614137596E-04
(PID.TID 0000.0001) %MON forcing_empmr_mean           =   0.0000000000000E+00
(PID.TID 0000.0001) %MON forcing_empmr_sd             =   2.4051723601802E-05
(PID.TID 0000.0001) %MON forcing_empmr_del2           =   1.2276157049243E-07
(PID.TID 0000.0001) %MON forcing_fu_max               =   2.3972677870247E-01
(PID.TID 0000.0001) %MON forcing_fu_min               =  -2.3770170012775E-01
(PID.TID 0000.0001) %MON forcing_fu_mean              =  -3.9920827019745E-03
(PID.TID 0000.0001) %MON forcing_fu_sd                =   6.4926925508109E-02
(PID.TID 0000.0001) %MON forcing_fu_del2              =   2.2128767840564E-04
(PID.TID 0000.0001) %MON forcing_fv_max               =   2.9064945924193E-01
(PID.TID 0000.0001) %MON forcing_fv_min               =  -3.2918415574839E-01
(PID.TID 0000.0001) %MON forcing_fv_mean              =  -1.3738014727260E-02
(PID.TID 0000.0001) %MON forcing_fv_sd                =   7.6066207026079E-02
(PID.TID 0000.0001) %MON forcing_fv_del2              =   2.4963077337507E-04
(PID.TID 0000.0001) %MON trAdv_CFL_u_max              =   7.9107692626056E-02
(PID.TID 0000.0001) %MON trAdv_CFL_v_max              =   8.0357768107782E-02
(PID.TID 0000.0001) %MON trAdv_CFL_w_max              =   7.2625928154003E-02
(PID.TID 0000.0001) %MON advcfl_uvel_max              =   7.9552400181404E-02
(PID.TID 0000.0001) %MON advcfl_vvel_max              =   7.5523710334933E-02
(PID.TID 0000.0001) %MON advcfl_wvel_max              =   6.5749652600557E-02
(PID.TID 0000.0001) %MON advcfl_W_hf_max              =   7.2625928154003E-02
(PID.TID 0000.0001) %MON pe_b_mean                    =   4.7530987214287E-04
(PID.TID 0000.0001) %MON ke_max                       =   3.8236699456113E-02
(PID.TID 0000.0001) %MON ke_mean                      =   1.4080793028650E-04
(PID.TID 0000.0001) %MON ke_vol                       =   1.3398024453628E+18
(PID.TID 0000.0001) %MON vort_r_min                   =  -1.2810818938993E-06
(PID.TID 0000.0001) %MON vort_r_max                   =   1.2491472084100E-06
(PID.TID 0000.0001) %MON vort_a_mean                  =  -2.0493733748264E-05
(PID.TID 0000.0001) %MON vort_a_sd                    =   7.5053945907562E-05
(PID.TID 0000.0001) %MON vort_p_mean                  =  -2.4715773327923E-05
(PID.TID 0000.0001) %MON vort_p_sd                    =   1.2777072809783E-04
(PID.TID 0000.0001) %MON surfExpan_theta_mean         =   4.7335845882232E-08
(PID.TID 0000.0001) %MON surfExpan_salt_mean          =   1.4604695603766E-08
(PID.TID 0000.0001) // =======================================================
(PID.TID 0000.0001) // End MONITOR dynamic field statistics
(PID.TID 0000.0001) // =======================================================
 DRIVER_GET_EXPORT_STATE_3D:MASK : Associated & shape =          32          32          15
  Finished plug run method 
 AGCM Date: 2000/04/15  Time: 01:45:00
  Starting plug run method 
 EXTERNAL_FIELDS_LOAD,     72019 : iP,iLd,i0,i1=    1    2    1    2 ; Wght=  0.8666666667  0.1333333333
 cg2d: Sum(rhs),rhsMax =  -2.20978790821391E-12  4.24956972529272E+00
(PID.TID 0000.0001)      cg2d_init_res =   3.75393124852200E-02
(PID.TID 0000.0001)      cg2d_iters(min,last) =      -1      86
(PID.TID 0000.0001)      cg2d_last_res =   8.59146929741537E-10
(PID.TID 0000.0001) // =======================================================
(PID.TID 0000.0001) // Begin MONITOR dynamic field statistics
(PID.TID 0000.0001) // =======================================================
(PID.TID 0000.0001) %MON time_tsnumber                =                 72020
(PID.TID 0000.0001) %MON time_secondsf                =   6.2225280000000E+09
(PID.TID 0000.0001) %MON dynstat_eta_max              =   8.9497902290909E-01
(PID.TID 0000.0001) %MON dynstat_eta_min              =  -1.6078507437361E+00
(PID.TID 0000.0001) %MON dynstat_eta_mean             =   1.4619933764090E-14
(PID.TID 0000.0001) %MON dynstat_eta_sd               =   5.9725270259665E-01
(PID.TID 0000.0001) %MON dynstat_eta_del2             =   7.9427512944211E-04
(PID.TID 0000.0001) %MON dynstat_uvel_max             =   1.8505065607556E-01
(PID.TID 0000.0001) %MON dynstat_uvel_min             =  -2.7995549180615E-01
(PID.TID 0000.0001) %MON dynstat_uvel_mean            =  -4.7968757330203E-04
(PID.TID 0000.0001) %MON dynstat_uvel_sd              =   1.2020486413130E-02
(PID.TID 0000.0001) %MON dynstat_uvel_del2            =   5.1014223488199E-05
(PID.TID 0000.0001) %MON dynstat_vvel_max             =   1.7294720913726E-01
(PID.TID 0000.0001) %MON dynstat_vvel_min             =  -2.2360734857706E-01
(PID.TID 0000.0001) %MON dynstat_vvel_mean            =  -3.9757070239788E-04
(PID.TID 0000.0001) %MON dynstat_vvel_sd              =   1.2647905176423E-02
(PID.TID 0000.0001) %MON dynstat_vvel_del2            =   5.0220373922186E-05
(PID.TID 0000.0001) %MON dynstat_wvel_max             =   1.1002610885256E-04
(PID.TID 0000.0001) %MON dynstat_wvel_min             =  -2.0118993353423E-04
(PID.TID 0000.0001) %MON dynstat_wvel_mean            =  -4.1839557442664E-12
(PID.TID 0000.0001) %MON dynstat_wvel_sd              =   3.7911366314057E-06
(PID.TID 0000.0001) %MON dynstat_wvel_del2            =   2.6484852914834E-08
(PID.TID 0000.0001) %MON dynstat_theta_max            =   3.1154221596562E+01
(PID.TID 0000.0001) %MON dynstat_theta_min            =  -3.3761129426844E+00
(PID.TID 0000.0001) %MON dynstat_theta_mean           =   3.9103041032825E+00
(PID.TID 0000.0001) %MON dynstat_theta_sd             =   4.5726773633711E+00
(PID.TID 0000.0001) %MON dynstat_theta_del2           =   2.7206266301785E-03
(PID.TID 0000.0001) %MON dynstat_salt_max             =   4.1397603428357E+01
(PID.TID 0000.0001) %MON dynstat_salt_min             =   1.8390198997080E+01
(PID.TID 0000.0001) %MON dynstat_salt_mean            =   3.4772079208514E+01
(PID.TID 0000.0001) %MON dynstat_salt_sd              =   5.3142693316201E-01
(PID.TID 0000.0001) %MON dynstat_salt_del2            =   8.2471996858995E-04
(PID.TID 0000.0001) %MON dynstat_sst_max              =   3.1154221596562E+01
(PID.TID 0000.0001) %MON dynstat_sst_min              =  -1.9856988144511E+00
(PID.TID 0000.0001) %MON dynstat_sst_mean             =   1.8195002353356E+01
(PID.TID 0000.0001) %MON dynstat_sst_sd               =   9.7542250640730E+00
(PID.TID 0000.0001) %MON dynstat_sst_del2             =   1.7105384249756E-02
(PID.TID 0000.0001) %MON dynstat_sss_max              =   4.1397603428357E+01
(PID.TID 0000.0001) %MON dynstat_sss_min              =   1.8390198997080E+01
(PID.TID 0000.0001) %MON dynstat_sss_mean             =   3.4625143914141E+01
(PID.TID 0000.0001) %MON dynstat_sss_sd               =   1.4638294442949E+00
(PID.TID 0000.0001) %MON dynstat_sss_del2             =   8.3340776441947E-03
(PID.TID 0000.0001) %MON forcing_qnet_max             =   4.4486238709081E+02
(PID.TID 0000.0001) %MON forcing_qnet_min             =  -1.9564239975390E+02
(PID.TID 0000.0001) %MON forcing_qnet_mean            =  -1.2511906062711E+01
(PID.TID 0000.0001) %MON forcing_qnet_sd              =   1.0914044317154E+02
(PID.TID 0000.0001) %MON forcing_qnet_del2            =   4.3563085574914E-01
(PID.TID 0000.0001) %MON forcing_qsw_max              =   0.0000000000000E+00
(PID.TID 0000.0001) %MON forcing_qsw_min              =   0.0000000000000E+00
(PID.TID 0000.0001) %MON forcing_qsw_mean             =   0.0000000000000E+00
(PID.TID 0000.0001) %MON forcing_qsw_sd               =   0.0000000000000E+00
(PID.TID 0000.0001) %MON forcing_qsw_del2             =   0.0000000000000E+00
(PID.TID 0000.0001) %MON forcing_empmr_max            =   7.6494447208479E-05
(PID.TID 0000.0001) %MON forcing_empmr_min            =  -1.5362614137596E-04
(PID.TID 0000.0001) %MON forcing_empmr_mean           =  -4.1932798010144E-22
(PID.TID 0000.0001) %MON forcing_empmr_sd             =   2.4051723601802E-05
(PID.TID 0000.0001) %MON forcing_empmr_del2           =   1.2276157049243E-07
(PID.TID 0000.0001) %MON forcing_fu_max               =   2.3665976779186E-01
(PID.TID 0000.0001) %MON forcing_fu_min               =  -2.3356264696351E-01
(PID.TID 0000.0001) %MON forcing_fu_mean              =  -4.0242113930123E-03
(PID.TID 0000.0001) %MON forcing_fu_sd                =   6.4770281337189E-02
(PID.TID 0000.0001) %MON forcing_fu_del2              =   2.1842206420252E-04
(PID.TID 0000.0001) %MON forcing_fv_max               =   2.8984607764745E-01
(PID.TID 0000.0001) %MON forcing_fv_min               =  -3.2574510356961E-01
(PID.TID 0000.0001) %MON forcing_fv_mean              =  -1.3736224733758E-02
(PID.TID 0000.0001) %MON forcing_fv_sd                =   7.5849088889787E-02
(PID.TID 0000.0001) %MON forcing_fv_del2              =   2.4762463092934E-04
(PID.TID 0000.0001) %MON trAdv_CFL_u_max              =   7.8956829147623E-02
(PID.TID 0000.0001) %MON trAdv_CFL_v_max              =   8.0210395006200E-02
(PID.TID 0000.0001) %MON trAdv_CFL_w_max              =   7.2455688000518E-02
(PID.TID 0000.0001) %MON advcfl_uvel_max              =   7.9400687864186E-02
(PID.TID 0000.0001) %MON advcfl_vvel_max              =   7.5385251945606E-02
(PID.TID 0000.0001) %MON advcfl_wvel_max              =   6.5595510405122E-02
(PID.TID 0000.0001) %MON advcfl_W_hf_max              =   7.2455688000518E-02
(PID.TID 0000.0001) %MON pe_b_mean                    =   4.7520469205067E-04
(PID.TID 0000.0001) %MON ke_max                       =   3.8084002350367E-02
(PID.TID 0000.0001) %MON ke_mean                      =   1.4077426861031E-04
(PID.TID 0000.0001) %MON ke_vol                       =   1.3398024453628E+18
(PID.TID 0000.0001) %MON vort_r_min                   =  -1.2856222617943E-06
(PID.TID 0000.0001) %MON vort_r_max                   =   1.2495342979527E-06
(PID.TID 0000.0001) %MON vort_a_mean                  =  -2.0493733748264E-05
(PID.TID 0000.0001) %MON vort_a_sd                    =   7.5053945852905E-05
(PID.TID 0000.0001) %MON vort_p_mean                  =  -2.4715773289652E-05
(PID.TID 0000.0001) %MON vort_p_sd                    =   1.2777072624995E-04
(PID.TID 0000.0001) %MON surfExpan_theta_mean         =   4.7370932551607E-08
(PID.TID 0000.0001) %MON surfExpan_salt_mean          =   1.4719333471635E-08
(PID.TID 0000.0001) // =======================================================
(PID.TID 0000.0001) // End MONITOR dynamic field statistics
(PID.TID 0000.0001) // =======================================================
(PID.TID 0000.0001) %CHECKPOINT     72020 0000072020
 DRIVER_GET_EXPORT_STATE_3D:MASK : Associated & shape =          32          32          15
  Finished plug run method 
 AGCM Date: 2000/04/15  Time: 02:00:00
 
 Writing:     40 Slices (  1 Nodes,  1 PartitionRoot) to File:  TEST.mit_ocn.20000415_0200z.nc4
 
  Starting plug run method 
 EXTERNAL_FIELDS_LOAD,     72020 : iP,iLd,i0,i1=    1    2    1    2 ; Wght=  0.8333333333  0.1666666667
 cg2d: Sum(rhs),rhsMax =  -2.26663132707472E-12  4.24834332297018E+00
(PID.TID 0000.0001)      cg2d_init_res =   3.49751074524850E-02
(PID.TID 0000.0001)      cg2d_iters(min,last) =      -1      86
(PID.TID 0000.0001)      cg2d_last_res =   8.42661370570262E-10
(PID.TID 0000.0001) // =======================================================
(PID.TID 0000.0001) // Begin MONITOR dynamic field statistics
(PID.TID 0000.0001) // =======================================================
(PID.TID 0000.0001) %MON time_tsnumber                =                 72021
(PID.TID 0000.0001) %MON time_secondsf                =   6.2226144000000E+09
(PID.TID 0000.0001) %MON dynstat_eta_max              =   8.9399947495270E-01
(PID.TID 0000.0001) %MON dynstat_eta_min              =  -1.6072755844944E+00
(PID.TID 0000.0001) %MON dynstat_eta_mean             =   1.4152755429523E-14
(PID.TID 0000.0001) %MON dynstat_eta_sd               =   5.9719140054346E-01
(PID.TID 0000.0001) %MON dynstat_eta_del2             =   7.9480084057246E-04
(PID.TID 0000.0001) %MON dynstat_uvel_max             =   1.8485442259772E-01
(PID.TID 0000.0001) %MON dynstat_uvel_min             =  -2.7940840411627E-01
(PID.TID 0000.0001) %MON dynstat_uvel_mean            =  -4.7916172739344E-04
(PID.TID 0000.0001) %MON dynstat_uvel_sd              =   1.2021134745433E-02
(PID.TID 0000.0001) %MON dynstat_uvel_del2            =   5.1027918049160E-05
(PID.TID 0000.0001) %MON dynstat_vvel_max             =   1.7260809495998E-01
(PID.TID 0000.0001) %MON dynstat_vvel_min             =  -2.2346065942222E-01
(PID.TID 0000.0001) %MON dynstat_vvel_mean            =  -3.9706424918032E-04
(PID.TID 0000.0001) %MON dynstat_vvel_sd              =   1.2644035922519E-02
(PID.TID 0000.0001) %MON dynstat_vvel_del2            =   5.0211481050009E-05
(PID.TID 0000.0001) %MON dynstat_wvel_max             =   1.1020481433935E-04
(PID.TID 0000.0001) %MON dynstat_wvel_min             =  -2.0071835236450E-04
(PID.TID 0000.0001) %MON dynstat_wvel_mean            =  -1.4745224518887E-11
(PID.TID 0000.0001) %MON dynstat_wvel_sd              =   3.7882756401907E-06
(PID.TID 0000.0001) %MON dynstat_wvel_del2            =   2.6485396833268E-08
(PID.TID 0000.0001) %MON dynstat_theta_max            =   3.1164358418048E+01
(PID.TID 0000.0001) %MON dynstat_theta_min            =  -3.3956276715143E+00
(PID.TID 0000.0001) %MON dynstat_theta_mean           =   3.9103649782774E+00
(PID.TID 0000.0001) %MON dynstat_theta_sd             =   4.5728359485384E+00
(PID.TID 0000.0001) %MON dynstat_theta_del2           =   2.7237220015031E-03
(PID.TID 0000.0001) %MON dynstat_salt_max             =   4.1398171622492E+01
(PID.TID 0000.0001) %MON dynstat_salt_min             =   1.8390577846854E+01
(PID.TID 0000.0001) %MON dynstat_salt_mean            =   3.4772079914111E+01
(PID.TID 0000.0001) %MON dynstat_salt_sd              =   5.3142408450469E-01
(PID.TID 0000.0001) %MON dynstat_salt_del2            =   8.2521918226100E-04
(PID.TID 0000.0001) %MON dynstat_sst_max              =   3.1164358418048E+01
(PID.TID 0000.0001) %MON dynstat_sst_min              =  -2.0445770821602E+00
(PID.TID 0000.0001) %MON dynstat_sst_mean             =   1.8199782291427E+01
(PID.TID 0000.0001) %MON dynstat_sst_sd               =   9.7541688030430E+00
(PID.TID 0000.0001) %MON dynstat_sst_del2             =   1.7167309952449E-02
(PID.TID 0000.0001) %MON dynstat_sss_max              =   4.1398171622492E+01
(PID.TID 0000.0001) %MON dynstat_sss_min              =   1.8390577846854E+01
(PID.TID 0000.0001) %MON dynstat_sss_mean             =   3.4624806887707E+01
(PID.TID 0000.0001) %MON dynstat_sss_sd               =   1.4635887414286E+00
(PID.TID 0000.0001) %MON dynstat_sss_del2             =   8.3420951370004E-03
(PID.TID 0000.0001) %MON forcing_qnet_max             =   4.4307014545936E+02
(PID.TID 0000.0001) %MON forcing_qnet_min             =  -1.9542177676140E+02
(PID.TID 0000.0001) %MON forcing_qnet_mean            =  -1.2557570598066E+01
(PID.TID 0000.0001) %MON forcing_qnet_sd              =   1.0812850235098E+02
(PID.TID 0000.0001) %MON forcing_qnet_del2            =   4.3397290739853E-01
(PID.TID 0000.0001) %MON forcing_qsw_max              =   0.0000000000000E+00
(PID.TID 0000.0001) %MON forcing_qsw_min              =   0.0000000000000E+00
(PID.TID 0000.0001) %MON forcing_qsw_mean             =   0.0000000000000E+00
(PID.TID 0000.0001) %MON forcing_qsw_sd               =   0.0000000000000E+00
(PID.TID 0000.0001) %MON forcing_qsw_del2             =   0.0000000000000E+00
(PID.TID 0000.0001) %MON forcing_empmr_max            =   7.6494447208479E-05
(PID.TID 0000.0001) %MON forcing_empmr_min            =  -1.5362614137596E-04
(PID.TID 0000.0001) %MON forcing_empmr_mean           =   8.3865596020288E-22
(PID.TID 0000.0001) %MON forcing_empmr_sd             =   2.4051723601802E-05
(PID.TID 0000.0001) %MON forcing_empmr_del2           =   1.2276157049243E-07
(PID.TID 0000.0001) %MON forcing_fu_max               =   2.3359275688126E-01
(PID.TID 0000.0001) %MON forcing_fu_min               =  -2.2942359379928E-01
(PID.TID 0000.0001) %MON forcing_fu_mean              =  -4.0563400840501E-03
(PID.TID 0000.0001) %MON forcing_fu_sd                =   6.4627734265556E-02
(PID.TID 0000.0001) %MON forcing_fu_del2              =   2.1578080111018E-04
(PID.TID 0000.0001) %MON forcing_fv_max               =   2.8904269605297E-01
(PID.TID 0000.0001) %MON forcing_fv_min               =  -3.2230605139082E-01
(PID.TID 0000.0001) %MON forcing_fv_mean              =  -1.3734434740255E-02
(PID.TID 0000.0001) %MON forcing_fv_sd                =   7.5648701027280E-02
(PID.TID 0000.0001) %MON forcing_fv_del2              =   2.4580404270106E-04
(PID.TID 0000.0001) %MON trAdv_CFL_u_max              =   7.8802532860966E-02
(PID.TID 0000.0001) %MON trAdv_CFL_v_max              =   8.0053067012222E-02
(PID.TID 0000.0001) %MON trAdv_CFL_w_max              =   7.2285879491137E-02
(PID.TID 0000.0001) %MON advcfl_uvel_max              =   7.9245523417803E-02
(PID.TID 0000.0001) %MON advcfl_vvel_max              =   7.5237436853242E-02
(PID.TID 0000.0001) %MON advcfl_wvel_max              =   6.5441757148276E-02
(PID.TID 0000.0001) %MON advcfl_W_hf_max              =   7.2285879491137E-02
(PID.TID 0000.0001) %MON pe_b_mean                    =   4.7510714698080E-04
(PID.TID 0000.0001) %MON ke_max                       =   3.7930076752756E-02
(PID.TID 0000.0001) %MON ke_mean                      =   1.4073562378208E-04
(PID.TID 0000.0001) %MON ke_vol                       =   1.3398024453628E+18
(PID.TID 0000.0001) %MON vort_r_min                   =  -1.2899045359160E-06
(PID.TID 0000.0001) %MON vort_r_max                   =   1.2495520316833E-06
(PID.TID 0000.0001) %MON vort_a_mean                  =  -2.0493733748264E-05
(PID.TID 0000.0001) %MON vort_a_sd                    =   7.5053945806273E-05
(PID.TID 0000.0001) %MON vort_p_mean                  =  -2.4715773245867E-05
(PID.TID 0000.0001) %MON vort_p_sd                    =   1.2777072424392E-04
(PID.TID 0000.0001) %MON surfExpan_theta_mean         =   4.7451514223428E-08
(PID.TID 0000.0001) %MON surfExpan_salt_mean          =   1.4861759848030E-08
(PID.TID 0000.0001) // =======================================================
(PID.TID 0000.0001) // End MONITOR dynamic field statistics
(PID.TID 0000.0001) // =======================================================
 DRIVER_GET_EXPORT_STATE_3D:MASK : Associated & shape =          32          32          15
  Finished plug run method 
 AGCM Date: 2000/04/15  Time: 02:15:00
  Starting plug run method 
 EXTERNAL_FIELDS_LOAD,     72021 : iP,iLd,i0,i1=    1    2    1    2 ; Wght=  0.8000000000  0.2000000000
 cg2d: Sum(rhs),rhsMax =  -2.20268248085631E-12  4.24698563548118E+00
(PID.TID 0000.0001)      cg2d_init_res =   3.35902407221758E-02
(PID.TID 0000.0001)      cg2d_iters(min,last) =      -1      86
(PID.TID 0000.0001)      cg2d_last_res =   8.27939592933235E-10
(PID.TID 0000.0001) // =======================================================
(PID.TID 0000.0001) // Begin MONITOR dynamic field statistics
(PID.TID 0000.0001) // =======================================================
(PID.TID 0000.0001) %MON time_tsnumber                =                 72022
(PID.TID 0000.0001) %MON time_secondsf                =   6.2227008000000E+09
(PID.TID 0000.0001) %MON dynstat_eta_max              =   8.9305096568780E-01
(PID.TID 0000.0001) %MON dynstat_eta_min              =  -1.6067104882471E+00
(PID.TID 0000.0001) %MON dynstat_eta_mean             =   1.4482528371570E-14
(PID.TID 0000.0001) %MON dynstat_eta_sd               =   5.9713478257998E-01
(PID.TID 0000.0001) %MON dynstat_eta_del2             =   7.9530236345471E-04
(PID.TID 0000.0001) %MON dynstat_uvel_max             =   1.8459911951068E-01
(PID.TID 0000.0001) %MON dynstat_uvel_min             =  -2.7884931505514E-01
(PID.TID 0000.0001) %MON dynstat_uvel_mean            =  -4.7865476490810E-04
(PID.TID 0000.0001) %MON dynstat_uvel_sd              =   1.2021629095198E-02
(PID.TID 0000.0001) %MON dynstat_uvel_del2            =   5.1043636976396E-05
(PID.TID 0000.0001) %MON dynstat_vvel_max             =   1.7225040102030E-01
(PID.TID 0000.0001) %MON dynstat_vvel_min             =  -2.2330781260634E-01
(PID.TID 0000.0001) %MON dynstat_vvel_mean            =  -3.9653934695983E-04
(PID.TID 0000.0001) %MON dynstat_vvel_sd              =   1.2639933581240E-02
(PID.TID 0000.0001) %MON dynstat_vvel_del2            =   5.0202989365277E-05
(PID.TID 0000.0001) %MON dynstat_wvel_max             =   1.1032519770468E-04
(PID.TID 0000.0001) %MON dynstat_wvel_min             =  -2.0025429340886E-04
(PID.TID 0000.0001) %MON dynstat_wvel_mean            =  -2.4504033224328E-11
(PID.TID 0000.0001) %MON dynstat_wvel_sd              =   3.7851458430094E-06
(PID.TID 0000.0001) %MON dynstat_wvel_del2            =   2.6486357726757E-08
(PID.TID 0000.0001) %MON dynstat_theta_max            =   3.1173802890123E+01
(PID.TID 0000.0001) %MON dynstat_theta_min            =  -3.4152708495735E+00
(PID.TID 0000.0001) %MON dynstat_theta_mean           =   3.9104265812321E+00
(PID.TID 0000.0001) %MON dynstat_theta_sd             =   4.5730034885830E+00
(PID.TID 0000.0001) %MON dynstat_theta_del2           =   2.7261470863737E-03
(PID.TID 0000.0001) %MON dynstat_salt_max             =   4.1398749613856E+01
(PID.TID 0000.0001) %MON dynstat_salt_min             =   1.8390957909760E+01
(PID.TID 0000.0001) %MON dynstat_salt_mean            =   3.4772080636706E+01
(PID.TID 0000.0001) %MON dynstat_salt_sd              =   5.3142134405716E-01
(PID.TID 0000.0001) %MON dynstat_salt_del2            =   8.2574124185243E-04
(PID.TID 0000.0001) %MON dynstat_sst_max              =   3.1173802890123E+01
(PID.TID 0000.0001) %MON dynstat_sst_min              =  -2.0432007665033E+00
(PID.TID 0000.0001) %MON dynstat_sst_mean             =   1.8204633077522E+01
(PID.TID 0000.0001) %MON dynstat_sst_sd               =   9.7543582176840E+00
(PID.TID 0000.0001) %MON dynstat_sst_del2             =   1.7205809811269E-02
(PID.TID 0000.0001) %MON dynstat_sss_max              =   4.1398749613856E+01
(PID.TID 0000.0001) %MON dynstat_sss_min              =   1.8390957909760E+01
(PID.TID 0000.0001) %MON dynstat_sss_mean             =   3.4624471639824E+01
(PID.TID 0000.0001) %MON dynstat_sss_sd               =   1.4633602586743E+00
(PID.TID 0000.0001) %MON dynstat_sss_del2             =   8.3496324926128E-03
(PID.TID 0000.0001) %MON forcing_qnet_max             =   4.4127790382791E+02
(PID.TID 0000.0001) %MON forcing_qnet_min             =  -1.9520115376890E+02
(PID.TID 0000.0001) %MON forcing_qnet_mean            =  -1.2603235133421E+01
(PID.TID 0000.0001) %MON forcing_qnet_sd              =   1.0712626361927E+02
(PID.TID 0000.0001) %MON forcing_qnet_del2            =   4.3241453590302E-01
(PID.TID 0000.0001) %MON forcing_qsw_max              =   0.0000000000000E+00
(PID.TID 0000.0001) %MON forcing_qsw_min              =   0.0000000000000E+00
(PID.TID 0000.0001) %MON forcing_qsw_mean             =   0.0000000000000E+00
(PID.TID 0000.0001) %MON forcing_qsw_sd               =   0.0000000000000E+00
(PID.TID 0000.0001) %MON forcing_qsw_del2             =   0.0000000000000E+00
(PID.TID 0000.0001) %MON forcing_empmr_max            =   7.6494447208479E-05
(PID.TID 0000.0001) %MON forcing_empmr_min            =  -1.5362614137596E-04
(PID.TID 0000.0001) %MON forcing_empmr_mean           =   8.3865596020288E-22
(PID.TID 0000.0001) %MON forcing_empmr_sd             =   2.4051723601802E-05
(PID.TID 0000.0001) %MON forcing_empmr_del2           =   1.2276157049243E-07
(PID.TID 0000.0001) %MON forcing_fu_max               =   2.3360841297569E-01
(PID.TID 0000.0001) %MON forcing_fu_min               =  -2.2528454063504E-01
(PID.TID 0000.0001) %MON forcing_fu_mean              =  -4.0884687750879E-03
(PID.TID 0000.0001) %MON forcing_fu_sd                =   6.4499377759306E-02
(PID.TID 0000.0001) %MON forcing_fu_del2              =   2.1337222079255E-04
(PID.TID 0000.0001) %MON forcing_fv_max               =   2.8823931445849E-01
(PID.TID 0000.0001) %MON forcing_fv_min               =  -3.1886699921204E-01
(PID.TID 0000.0001) %MON forcing_fv_mean              =  -1.3732644746753E-02
(PID.TID 0000.0001) %MON forcing_fv_sd                =   7.5465176713809E-02
(PID.TID 0000.0001) %MON forcing_fv_del2              =   2.4417315927785E-04
(PID.TID 0000.0001) %MON trAdv_CFL_u_max              =   7.8644851790106E-02
(PID.TID 0000.0001) %MON trAdv_CFL_v_max              =   7.9887122645898E-02
(PID.TID 0000.0001) %MON trAdv_CFL_w_max              =   7.2118781489557E-02
(PID.TID 0000.0001) %MON advcfl_uvel_max              =   7.9086955154880E-02
(PID.TID 0000.0001) %MON advcfl_vvel_max              =   7.5081523104204E-02
(PID.TID 0000.0001) %MON advcfl_wvel_max              =   6.5290456417077E-02
(PID.TID 0000.0001) %MON advcfl_W_hf_max              =   7.2118781489557E-02
(PID.TID 0000.0001) %MON pe_b_mean                    =   4.7501706422361E-04
(PID.TID 0000.0001) %MON ke_max                       =   3.7774943324404E-02
(PID.TID 0000.0001) %MON ke_mean                      =   1.4069256042055E-04
(PID.TID 0000.0001) %MON ke_vol                       =   1.3398024453628E+18
(PID.TID 0000.0001) %MON vort_r_min                   =  -1.2939219568468E-06
(PID.TID 0000.0001) %MON vort_r_max                   =   1.2491983470943E-06
(PID.TID 0000.0001) %MON vort_a_mean                  =  -2.0493733748264E-05
(PID.TID 0000.0001) %MON vort_a_sd                    =   7.5053945766457E-05
(PID.TID 0000.0001) %MON vort_p_mean                  =  -2.4715773197003E-05
(PID.TID 0000.0001) %MON vort_p_sd                    =   1.2777072206409E-04
(PID.TID 0000.0001) %MON surfExpan_theta_mean         =   4.7542072820732E-08
(PID.TID 0000.0001) %MON surfExpan_salt_mean          =   1.5005982072004E-08
(PID.TID 0000.0001) // =======================================================
(PID.TID 0000.0001) // End MONITOR dynamic field statistics
(PID.TID 0000.0001) // =======================================================
 DRIVER_GET_EXPORT_STATE_3D:MASK : Associated & shape =          32          32          15
  Finished plug run method 
 AGCM Date: 2000/04/15  Time: 02:30:00
  Starting plug run method 
 EXTERNAL_FIELDS_LOAD,     72022 : iP,iLd,i0,i1=    1    2    1    2 ; Wght=  0.7666666667  0.2333333333
 cg2d: Sum(rhs),rhsMax =  -2.36610731008113E-12  4.24547436411507E+00
(PID.TID 0000.0001)      cg2d_init_res =   3.34128928558967E-02
(PID.TID 0000.0001)      cg2d_iters(min,last) =      -1      86
(PID.TID 0000.0001)      cg2d_last_res =   8.25599125554700E-10
(PID.TID 0000.0001) // =======================================================
(PID.TID 0000.0001) // Begin MONITOR dynamic field statistics
(PID.TID 0000.0001) // =======================================================
(PID.TID 0000.0001) %MON time_tsnumber                =                 72023
(PID.TID 0000.0001) %MON time_secondsf                =   6.2227872000000E+09
(PID.TID 0000.0001) %MON dynstat_eta_max              =   8.9213836108414E-01
(PID.TID 0000.0001) %MON dynstat_eta_min              =  -1.6061560154642E+00
(PID.TID 0000.0001) %MON dynstat_eta_mean             =   1.4180236508027E-14
(PID.TID 0000.0001) %MON dynstat_eta_sd               =   5.9708307986660E-01
(PID.TID 0000.0001) %MON dynstat_eta_del2             =   7.9578875788762E-04
(PID.TID 0000.0001) %MON dynstat_uvel_max             =   1.8428803822759E-01
(PID.TID 0000.0001) %MON dynstat_uvel_min             =  -2.7827840987533E-01
(PID.TID 0000.0001) %MON dynstat_uvel_mean            =  -4.7816047216358E-04
(PID.TID 0000.0001) %MON dynstat_uvel_sd              =   1.2021943396348E-02
(PID.TID 0000.0001) %MON dynstat_uvel_del2            =   5.1061296146257E-05
(PID.TID 0000.0001) %MON dynstat_vvel_max             =   1.7194667149216E-01
(PID.TID 0000.0001) %MON dynstat_vvel_min             =  -2.2314912157406E-01
(PID.TID 0000.0001) %MON dynstat_vvel_mean            =  -3.9600283967867E-04
(PID.TID 0000.0001) %MON dynstat_vvel_sd              =   1.2635676249543E-02
(PID.TID 0000.0001) %MON dynstat_vvel_del2            =   5.0194869707826E-05
(PID.TID 0000.0001) %MON dynstat_wvel_max             =   1.1038520160948E-04
(PID.TID 0000.0001) %MON dynstat_wvel_min             =  -1.9980330181904E-04
(PID.TID 0000.0001) %MON dynstat_wvel_mean            =  -3.3748009583833E-11
(PID.TID 0000.0001) %MON dynstat_wvel_sd              =   3.7817107563831E-06
(PID.TID 0000.0001) %MON dynstat_wvel_del2            =   2.6487801986048E-08
(PID.TID 0000.0001) %MON dynstat_theta_max            =   3.1182572733244E+01
(PID.TID 0000.0001) %MON dynstat_theta_min            =  -3.4350316455930E+00
(PID.TID 0000.0001) %MON dynstat_theta_mean           =   3.9104886456382E+00
(PID.TID 0000.0001) %MON dynstat_theta_sd             =   4.5731798233139E+00
(PID.TID 0000.0001) %MON dynstat_theta_del2           =   2.7274286428787E-03
(PID.TID 0000.0001) %MON dynstat_salt_max             =   4.1399337454478E+01
(PID.TID 0000.0001) %MON dynstat_salt_min             =   1.8391339238109E+01
(PID.TID 0000.0001) %MON dynstat_salt_mean            =   3.4772081376867E+01
(PID.TID 0000.0001) %MON dynstat_salt_sd              =   5.3141861533676E-01
(PID.TID 0000.0001) %MON dynstat_salt_del2            =   8.2601385959079E-04
(PID.TID 0000.0001) %MON dynstat_sst_max              =   3.1182572733244E+01
(PID.TID 0000.0001) %MON dynstat_sst_min              =  -2.0414371032056E+00
(PID.TID 0000.0001) %MON dynstat_sst_mean             =   1.8209576785818E+01
(PID.TID 0000.0001) %MON dynstat_sst_sd               =   9.7548003967430E+00
(PID.TID 0000.0001) %MON dynstat_sst_del2             =   1.7222127097643E-02
(PID.TID 0000.0001) %MON dynstat_sss_max              =   4.1399337454478E+01
(PID.TID 0000.0001) %MON dynstat_sss_min              =   1.8391339238109E+01
(PID.TID 0000.0001) %MON dynstat_sss_mean             =   3.4624161371949E+01
(PID.TID 0000.0001) %MON dynstat_sss_sd               =   1.4631719284534E+00
(PID.TID 0000.0001) %MON dynstat_sss_del2             =   8.3545065939913E-03
(PID.TID 0000.0001) %MON forcing_qnet_max             =   4.3948566219646E+02
(PID.TID 0000.0001) %MON forcing_qnet_min             =  -1.9498053077639E+02
(PID.TID 0000.0001) %MON forcing_qnet_mean            =  -1.2648899668777E+01
(PID.TID 0000.0001) %MON forcing_qnet_sd              =   1.0613400183143E+02
(PID.TID 0000.0001) %MON forcing_qnet_del2            =   4.3095682149563E-01
(PID.TID 0000.0001) %MON forcing_qsw_max              =   0.0000000000000E+00
(PID.TID 0000.0001) %MON forcing_qsw_min              =   0.0000000000000E+00
(PID.TID 0000.0001) %MON forcing_qsw_mean             =   0.0000000000000E+00
(PID.TID 0000.0001) %MON forcing_qsw_sd               =   0.0000000000000E+00
(PID.TID 0000.0001) %MON forcing_qsw_del2             =   0.0000000000000E+00
(PID.TID 0000.0001) %MON forcing_empmr_max            =   7.6494447208479E-05
(PID.TID 0000.0001) %MON forcing_empmr_min            =  -1.5362614137596E-04
(PID.TID 0000.0001) %MON forcing_empmr_mean           =  -4.1932798010144E-22
(PID.TID 0000.0001) %MON forcing_empmr_sd             =   2.4051723601802E-05
(PID.TID 0000.0001) %MON forcing_empmr_del2           =   1.2276157049243E-07
(PID.TID 0000.0001) %MON forcing_fu_max               =   2.3422413975100E-01
(PID.TID 0000.0001) %MON forcing_fu_min               =  -2.2114548747080E-01
(PID.TID 0000.0001) %MON forcing_fu_mean              =  -4.1205974661256E-03
(PID.TID 0000.0001) %MON forcing_fu_sd                =   6.4385296688092E-02
(PID.TID 0000.0001) %MON forcing_fu_del2              =   2.1120428396477E-04
(PID.TID 0000.0001) %MON forcing_fv_max               =   2.8743593286400E-01
(PID.TID 0000.0001) %MON forcing_fv_min               =  -3.1542794703326E-01
(PID.TID 0000.0001) %MON forcing_fv_mean              =  -1.3730854753250E-02
(PID.TID 0000.0001) %MON forcing_fv_sd                =   7.5298639253347E-02
(PID.TID 0000.0001) %MON forcing_fv_del2              =   2.4273580443253E-04
(PID.TID 0000.0001) %MON trAdv_CFL_u_max              =   7.8483838171336E-02
(PID.TID 0000.0001) %MON trAdv_CFL_v_max              =   7.9746206825263E-02
(PID.TID 0000.0001) %MON trAdv_CFL_w_max              =   7.1956388740868E-02
(PID.TID 0000.0001) %MON advcfl_uvel_max              =   7.8925035616564E-02
(PID.TID 0000.0001) %MON advcfl_vvel_max              =   7.4949131681897E-02
(PID.TID 0000.0001) %MON advcfl_wvel_max              =   6.5143416140247E-02
(PID.TID 0000.0001) %MON advcfl_W_hf_max              =   7.1956388740868E-02
(PID.TID 0000.0001) %MON pe_b_mean                    =   4.7493480940077E-04
(PID.TID 0000.0001) %MON ke_max                       =   3.7618619544972E-02
(PID.TID 0000.0001) %MON ke_mean                      =   1.4064570838687E-04
(PID.TID 0000.0001) %MON ke_vol                       =   1.3398024453628E+18
(PID.TID 0000.0001) %MON vort_r_min                   =  -1.2976704957814E-06
(PID.TID 0000.0001) %MON vort_r_max                   =   1.2484759724794E-06
(PID.TID 0000.0001) %MON vort_a_mean                  =  -2.0493733748264E-05
(PID.TID 0000.0001) %MON vort_a_sd                    =   7.5053945732456E-05
(PID.TID 0000.0001) %MON vort_p_mean                  =  -2.4715773144122E-05
(PID.TID 0000.0001) %MON vort_p_sd                    =   1.2777071976298E-04
(PID.TID 0000.0001) %MON surfExpan_theta_mean         =   4.7646694555271E-08
(PID.TID 0000.0001) %MON surfExpan_salt_mean          =   1.5136742540964E-08
(PID.TID 0000.0001) // =======================================================
(PID.TID 0000.0001) // End MONITOR dynamic field statistics
(PID.TID 0000.0001) // =======================================================
 DRIVER_GET_EXPORT_STATE_3D:MASK : Associated & shape =          32          32          15
  Finished plug run method 
 AGCM Date: 2000/04/15  Time: 02:45:00
  Starting plug run method 
 EXTERNAL_FIELDS_LOAD,     72023 : iP,iLd,i0,i1=    1    2    1    2 ; Wght=  0.7333333333  0.2666666667
 cg2d: Sum(rhs),rhsMax =  -2.20268248085631E-12  4.24379159286911E+00
(PID.TID 0000.0001)      cg2d_init_res =   3.32521662010905E-02
(PID.TID 0000.0001)      cg2d_iters(min,last) =      -1      86
(PID.TID 0000.0001)      cg2d_last_res =   8.22769615860570E-10
(PID.TID 0000.0001) // =======================================================
(PID.TID 0000.0001) // Begin MONITOR dynamic field statistics
(PID.TID 0000.0001) // =======================================================
(PID.TID 0000.0001) %MON time_tsnumber                =                 72024
(PID.TID 0000.0001) %MON time_secondsf                =   6.2228736000000E+09
(PID.TID 0000.0001) %MON dynstat_eta_max              =   8.9126504269635E-01
(PID.TID 0000.0001) %MON dynstat_eta_min              =  -1.6056132193556E+00
(PID.TID 0000.0001) %MON dynstat_eta_mean             =   1.3987868958499E-14
(PID.TID 0000.0001) %MON dynstat_eta_sd               =   5.9703636310384E-01
(PID.TID 0000.0001) %MON dynstat_eta_del2             =   7.9626702802679E-04
(PID.TID 0000.0001) %MON dynstat_uvel_max             =   1.8392501779576E-01
(PID.TID 0000.0001) %MON dynstat_uvel_min             =  -2.7769587787983E-01
(PID.TID 0000.0001) %MON dynstat_uvel_mean            =  -4.7767386463643E-04
(PID.TID 0000.0001) %MON dynstat_uvel_sd              =   1.2022061364171E-02
(PID.TID 0000.0001) %MON dynstat_uvel_del2            =   5.1080740819992E-05
(PID.TID 0000.0001) %MON dynstat_vvel_max             =   1.7319196217177E-01
(PID.TID 0000.0001) %MON dynstat_vvel_min             =  -2.2298487966489E-01
(PID.TID 0000.0001) %MON dynstat_vvel_mean            =  -3.9546013294693E-04
(PID.TID 0000.0001) %MON dynstat_vvel_sd              =   1.2631338165095E-02
(PID.TID 0000.0001) %MON dynstat_vvel_del2            =   5.0187154370114E-05
(PID.TID 0000.0001) %MON dynstat_wvel_max             =   1.1038398728636E-04
(PID.TID 0000.0001) %MON dynstat_wvel_min             =  -1.9937063034585E-04
(PID.TID 0000.0001) %MON dynstat_wvel_mean            =  -4.1204799176652E-11
(PID.TID 0000.0001) %MON dynstat_wvel_sd              =   3.7779446593783E-06
(PID.TID 0000.0001) %MON dynstat_wvel_del2            =   2.6489736250726E-08
(PID.TID 0000.0001) %MON dynstat_theta_max            =   3.1190686504126E+01
(PID.TID 0000.0001) %MON dynstat_theta_min            =  -3.4549189286589E+00
(PID.TID 0000.0001) %MON dynstat_theta_mean           =   3.9105510130161E+00
(PID.TID 0000.0001) %MON dynstat_theta_sd             =   4.5733641551369E+00
(PID.TID 0000.0001) %MON dynstat_theta_del2           =   2.7279509600049E-03
(PID.TID 0000.0001) %MON dynstat_salt_max             =   4.1399934998244E+01
(PID.TID 0000.0001) %MON dynstat_salt_min             =   1.8391721956962E+01
(PID.TID 0000.0001) %MON dynstat_salt_mean            =   3.4772082134515E+01
(PID.TID 0000.0001) %MON dynstat_salt_sd              =   5.3141553635022E-01
(PID.TID 0000.0001) %MON dynstat_salt_del2            =   8.2611434718448E-04
(PID.TID 0000.0001) %MON dynstat_sst_max              =   3.1190686504126E+01
(PID.TID 0000.0001) %MON dynstat_sst_min              =  -2.0395342178391E+00
(PID.TID 0000.0001) %MON dynstat_sst_mean             =   1.8214668623029E+01
(PID.TID 0000.0001) %MON dynstat_sst_sd               =   9.7553746197018E+00
(PID.TID 0000.0001) %MON dynstat_sst_del2             =   1.7225265244805E-02
(PID.TID 0000.0001) %MON dynstat_sss_max              =   4.1399934998244E+01
(PID.TID 0000.0001) %MON dynstat_sss_min              =   1.8391721956962E+01
(PID.TID 0000.0001) %MON dynstat_sss_mean             =   3.4623868791249E+01
(PID.TID 0000.0001) %MON dynstat_sss_sd               =   1.4629900354467E+00
(PID.TID 0000.0001) %MON dynstat_sss_del2             =   8.3577833234607E-03
(PID.TID 0000.0001) %MON forcing_qnet_max             =   4.3769342056501E+02
(PID.TID 0000.0001) %MON forcing_qnet_min             =  -1.9475990778389E+02
(PID.TID 0000.0001) %MON forcing_qnet_mean            =  -1.2694564204132E+01
(PID.TID 0000.0001) %MON forcing_qnet_sd              =   1.0515199942871E+02
(PID.TID 0000.0001) %MON forcing_qnet_del2            =   4.2960078882154E-01
(PID.TID 0000.0001) %MON forcing_qsw_max              =   0.0000000000000E+00
(PID.TID 0000.0001) %MON forcing_qsw_min              =   0.0000000000000E+00
(PID.TID 0000.0001) %MON forcing_qsw_mean             =   0.0000000000000E+00
(PID.TID 0000.0001) %MON forcing_qsw_sd               =   0.0000000000000E+00
(PID.TID 0000.0001) %MON forcing_qsw_del2             =   0.0000000000000E+00
(PID.TID 0000.0001) %MON forcing_empmr_max            =   7.6494447208479E-05
(PID.TID 0000.0001) %MON forcing_empmr_min            =  -1.5362614137596E-04
(PID.TID 0000.0001) %MON forcing_empmr_mean           =   0.0000000000000E+00
(PID.TID 0000.0001) %MON forcing_empmr_sd             =   2.4051723601802E-05
(PID.TID 0000.0001) %MON forcing_empmr_del2           =   1.2276157049243E-07
(PID.TID 0000.0001) %MON forcing_fu_max               =   2.3483986652631E-01
(PID.TID 0000.0001) %MON forcing_fu_min               =  -2.1700643430657E-01
(PID.TID 0000.0001) %MON forcing_fu_mean              =  -4.1527261571634E-03
(PID.TID 0000.0001) %MON forcing_fu_sd                =   6.4285567051456E-02
(PID.TID 0000.0001) %MON forcing_fu_del2              =   2.0928446909680E-04
(PID.TID 0000.0001) %MON forcing_fv_max               =   2.8663255126952E-01
(PID.TID 0000.0001) %MON forcing_fv_min               =  -3.1198889485448E-01
(PID.TID 0000.0001) %MON forcing_fv_mean              =  -1.3729064759748E-02
(PID.TID 0000.0001) %MON forcing_fv_sd                =   7.5149201579208E-02
(PID.TID 0000.0001) %MON forcing_fv_del2              =   2.4149543377367E-04
(PID.TID 0000.0001) %MON trAdv_CFL_u_max              =   7.8319545391326E-02
(PID.TID 0000.0001) %MON trAdv_CFL_v_max              =   8.0323702989036E-02
(PID.TID 0000.0001) %MON trAdv_CFL_w_max              =   7.1800592059661E-02
(PID.TID 0000.0001) %MON advcfl_uvel_max              =   7.8759818492775E-02
(PID.TID 0000.0001) %MON advcfl_vvel_max              =   7.5491936345217E-02
(PID.TID 0000.0001) %MON advcfl_wvel_max              =   6.5002348912760E-02
(PID.TID 0000.0001) %MON advcfl_W_hf_max              =   7.1800592059661E-02
(PID.TID 0000.0001) %MON pe_b_mean                    =   4.7486049294607E-04
(PID.TID 0000.0001) %MON ke_max                       =   3.7461116578897E-02
(PID.TID 0000.0001) %MON ke_mean                      =   1.4059575929623E-04
(PID.TID 0000.0001) %MON ke_vol                       =   1.3398024453628E+18
(PID.TID 0000.0001) %MON vort_r_min                   =  -1.3011487939299E-06
(PID.TID 0000.0001) %MON vort_r_max                   =   1.2473791266613E-06
(PID.TID 0000.0001) %MON vort_a_mean                  =  -2.0493733748264E-05
(PID.TID 0000.0001) %MON vort_a_sd                    =   7.5053945703798E-05
(PID.TID 0000.0001) %MON vort_p_mean                  =  -2.4715773088045E-05
(PID.TID 0000.0001) %MON vort_p_sd                    =   1.2777071740417E-04
(PID.TID 0000.0001) %MON surfExpan_theta_mean         =   4.7772394628844E-08
(PID.TID 0000.0001) %MON surfExpan_salt_mean          =   1.5242626991316E-08
(PID.TID 0000.0001) // =======================================================
(PID.TID 0000.0001) // End MONITOR dynamic field statistics
(PID.TID 0000.0001) // =======================================================
 DRIVER_GET_EXPORT_STATE_3D:MASK : Associated & shape =          32          32          15
  Finished plug run method 
 AGCM Date: 2000/04/15  Time: 03:00:00
 
 Writing:    147 Slices (  1 Nodes,  1 PartitionRoot) to File:  TEST.geosgcm_surf.20000415_0130z.nc4
 Writing:     40 Slices (  1 Nodes,  1 PartitionRoot) to File:  TEST.mit_ocn.20000415_0300z.nc4
 
  Starting plug run method 
 EXTERNAL_FIELDS_LOAD,     72024 : iP,iLd,i0,i1=    1    2    1    2 ; Wght=  0.7000000000  0.3000000000
 cg2d: Sum(rhs),rhsMax =  -2.26663132707472E-12  4.24192424870365E+00
(PID.TID 0000.0001)      cg2d_init_res =   3.32378526670239E-02
(PID.TID 0000.0001)      cg2d_iters(min,last) =      -1      86
(PID.TID 0000.0001)      cg2d_last_res =   8.20917044769978E-10
(PID.TID 0000.0001) // =======================================================
(PID.TID 0000.0001) // Begin MONITOR dynamic field statistics
(PID.TID 0000.0001) // =======================================================
(PID.TID 0000.0001) %MON time_tsnumber                =                 72025
(PID.TID 0000.0001) %MON time_secondsf                =   6.2229600000000E+09
(PID.TID 0000.0001) %MON dynstat_eta_max              =   8.9043164156731E-01
(PID.TID 0000.0001) %MON dynstat_eta_min              =  -1.6050833360439E+00
(PID.TID 0000.0001) %MON dynstat_eta_mean             =   1.4097793272515E-14
(PID.TID 0000.0001) %MON dynstat_eta_sd               =   5.9699433004264E-01
(PID.TID 0000.0001) %MON dynstat_eta_del2             =   7.9673855636767E-04
(PID.TID 0000.0001) %MON dynstat_uvel_max             =   1.8351437044141E-01
(PID.TID 0000.0001) %MON dynstat_uvel_min             =  -2.7710192111886E-01
(PID.TID 0000.0001) %MON dynstat_uvel_mean            =  -4.7719219199351E-04
(PID.TID 0000.0001) %MON dynstat_uvel_sd              =   1.2021979354570E-02
(PID.TID 0000.0001) %MON dynstat_uvel_del2            =   5.1101783769435E-05
(PID.TID 0000.0001) %MON dynstat_vvel_max             =   1.7439799875705E-01
(PID.TID 0000.0001) %MON dynstat_vvel_min             =  -2.2281535943784E-01
(PID.TID 0000.0001) %MON dynstat_vvel_mean            =  -3.9491443403508E-04
(PID.TID 0000.0001) %MON dynstat_vvel_sd              =   1.2626984368996E-02
(PID.TID 0000.0001) %MON dynstat_vvel_del2            =   5.0179874082398E-05
(PID.TID 0000.0001) %MON dynstat_wvel_max             =   1.1032176080054E-04
(PID.TID 0000.0001) %MON dynstat_wvel_min             =  -1.9896109438468E-04
(PID.TID 0000.0001) %MON dynstat_wvel_mean            =  -4.6133045385549E-11
(PID.TID 0000.0001) %MON dynstat_wvel_sd              =   3.7738340378620E-06
(PID.TID 0000.0001) %MON dynstat_wvel_del2            =   2.6492100204500E-08
(PID.TID 0000.0001) %MON dynstat_theta_max            =   3.1198163395842E+01
(PID.TID 0000.0001) %MON dynstat_theta_min            =  -3.4749113181290E+00
(PID.TID 0000.0001) %MON dynstat_theta_mean           =   3.9106136584098E+00
(PID.TID 0000.0001) %MON dynstat_theta_sd             =   4.5735562280617E+00
(PID.TID 0000.0001) %MON dynstat_theta_del2           =   2.7278345139098E-03
(PID.TID 0000.0001) %MON dynstat_salt_max             =   4.1400541840887E+01
(PID.TID 0000.0001) %MON dynstat_salt_min             =   1.8392106286397E+01
(PID.TID 0000.0001) %MON dynstat_salt_mean            =   3.4772082909557E+01
(PID.TID 0000.0001) %MON dynstat_salt_sd              =   5.3141219480031E-01
(PID.TID 0000.0001) %MON dynstat_salt_del2            =   8.2608233194501E-04
(PID.TID 0000.0001) %MON dynstat_sst_max              =   3.1198163395842E+01
(PID.TID 0000.0001) %MON dynstat_sst_min              =  -2.0375389262864E+00
(PID.TID 0000.0001) %MON dynstat_sst_mean             =   1.8219985358434E+01
(PID.TID 0000.0001) %MON dynstat_sst_sd               =   9.7560222701774E+00
(PID.TID 0000.0001) %MON dynstat_sst_del2             =   1.7221937024446E-02
(PID.TID 0000.0001) %MON dynstat_sss_max              =   4.1400541840887E+01
(PID.TID 0000.0001) %MON dynstat_sss_min              =   1.8392106286397E+01
(PID.TID 0000.0001) %MON dynstat_sss_mean             =   3.4623625093981E+01
(PID.TID 0000.0001) %MON dynstat_sss_sd               =   1.4628582846308E+00
(PID.TID 0000.0001) %MON dynstat_sss_del2             =   8.3611052418226E-03
(PID.TID 0000.0001) %MON forcing_qnet_max             =   4.3590117893356E+02
(PID.TID 0000.0001) %MON forcing_qnet_min             =  -1.9453928479139E+02
(PID.TID 0000.0001) %MON forcing_qnet_mean            =  -1.2740228739487E+01
(PID.TID 0000.0001) %MON forcing_qnet_sd              =   1.0418054652539E+02
(PID.TID 0000.0001) %MON forcing_qnet_del2            =   4.2834740357292E-01
(PID.TID 0000.0001) %MON forcing_qsw_max              =   0.0000000000000E+00
(PID.TID 0000.0001) %MON forcing_qsw_min              =   0.0000000000000E+00
(PID.TID 0000.0001) %MON forcing_qsw_mean             =   0.0000000000000E+00
(PID.TID 0000.0001) %MON forcing_qsw_sd               =   0.0000000000000E+00
(PID.TID 0000.0001) %MON forcing_qsw_del2             =   0.0000000000000E+00
(PID.TID 0000.0001) %MON forcing_empmr_max            =   7.6494447208479E-05
(PID.TID 0000.0001) %MON forcing_empmr_min            =  -1.5362614137596E-04
(PID.TID 0000.0001) %MON forcing_empmr_mean           =  -4.1932798010144E-22
(PID.TID 0000.0001) %MON forcing_empmr_sd             =   2.4051723601802E-05
(PID.TID 0000.0001) %MON forcing_empmr_del2           =   1.2276157049243E-07
(PID.TID 0000.0001) %MON forcing_fu_max               =   2.3555535449458E-01
(PID.TID 0000.0001) %MON forcing_fu_min               =  -2.1286738114233E-01
(PID.TID 0000.0001) %MON forcing_fu_mean              =  -4.1848548482012E-03
(PID.TID 0000.0001) %MON forcing_fu_sd                =   6.4200255730631E-02
(PID.TID 0000.0001) %MON forcing_fu_del2              =   2.0761965929584E-04
(PID.TID 0000.0001) %MON forcing_fv_max               =   2.8582916967504E-01
(PID.TID 0000.0001) %MON forcing_fv_min               =  -3.0854984267570E-01
(PID.TID 0000.0001) %MON forcing_fv_mean              =  -1.3727274766245E-02
(PID.TID 0000.0001) %MON forcing_fv_sd                =   7.5016965882437E-02
(PID.TID 0000.0001) %MON forcing_fv_del2              =   2.4045509570770E-04
(PID.TID 0000.0001) %MON trAdv_CFL_u_max              =   7.8152030436064E-02
(PID.TID 0000.0001) %MON trAdv_CFL_v_max              =   8.0882993789683E-02
(PID.TID 0000.0001) %MON trAdv_CFL_w_max              =   7.1653126093115E-02
(PID.TID 0000.0001) %MON advcfl_uvel_max              =   7.8591361088784E-02
(PID.TID 0000.0001) %MON advcfl_vvel_max              =   7.6017630701838E-02
(PID.TID 0000.0001) %MON advcfl_wvel_max              =   6.4868824735230E-02
(PID.TID 0000.0001) %MON advcfl_W_hf_max              =   7.1653126093115E-02
(PID.TID 0000.0001) %MON pe_b_mean                    =   4.7479363223615E-04
(PID.TID 0000.0001) %MON ke_max                       =   3.7302442337451E-02
(PID.TID 0000.0001) %MON ke_mean                      =   1.4054343573428E-04
(PID.TID 0000.0001) %MON ke_vol                       =   1.3398024453628E+18
(PID.TID 0000.0001) %MON vort_r_min                   =  -1.3043580558628E-06
(PID.TID 0000.0001) %MON vort_r_max                   =   1.2459220584718E-06
(PID.TID 0000.0001) %MON vort_a_mean                  =  -2.0493733748264E-05
(PID.TID 0000.0001) %MON vort_a_sd                    =   7.5053945680660E-05
(PID.TID 0000.0001) %MON vort_p_mean                  =  -2.4715773029836E-05
(PID.TID 0000.0001) %MON vort_p_sd                    =   1.2777071501306E-04
(PID.TID 0000.0001) %MON surfExpan_theta_mean         =   4.7913264595913E-08
(PID.TID 0000.0001) %MON surfExpan_salt_mean          =   1.5317140122558E-08
(PID.TID 0000.0001) // =======================================================
(PID.TID 0000.0001) // End MONITOR dynamic field statistics
(PID.TID 0000.0001) // =======================================================
 DRIVER_GET_EXPORT_STATE_3D:MASK : Associated & shape =          32          32          15
  Finished plug run method 
 AGCM Date: 2000/04/15  Time: 03:15:00
  Starting plug run method 
 EXTERNAL_FIELDS_LOAD,     72025 : iP,iLd,i0,i1=    1    2    1    2 ; Wght=  0.6666666667  0.3333333333
 cg2d: Sum(rhs),rhsMax =  -2.27373675443232E-12  4.23986388765508E+00
(PID.TID 0000.0001)      cg2d_init_res =   3.32819009640493E-02
(PID.TID 0000.0001)      cg2d_iters(min,last) =      -1      86
(PID.TID 0000.0001)      cg2d_last_res =   8.21090110965041E-10
(PID.TID 0000.0001) // =======================================================
(PID.TID 0000.0001) // Begin MONITOR dynamic field statistics
(PID.TID 0000.0001) // =======================================================
(PID.TID 0000.0001) %MON time_tsnumber                =                 72026
(PID.TID 0000.0001) %MON time_secondsf                =   6.2230464000000E+09
(PID.TID 0000.0001) %MON dynstat_eta_max              =   8.8963507929333E-01
(PID.TID 0000.0001) %MON dynstat_eta_min              =  -1.6045683514000E+00
(PID.TID 0000.0001) %MON dynstat_eta_mean             =   1.4427566214562E-14
(PID.TID 0000.0001) %MON dynstat_eta_sd               =   5.9695619635908E-01
(PID.TID 0000.0001) %MON dynstat_eta_del2             =   7.9721396037081E-04
(PID.TID 0000.0001) %MON dynstat_uvel_max             =   1.8306080208366E-01
(PID.TID 0000.0001) %MON dynstat_uvel_min             =  -2.7649677461458E-01
(PID.TID 0000.0001) %MON dynstat_uvel_mean            =  -4.7671505415975E-04
(PID.TID 0000.0001) %MON dynstat_uvel_sd              =   1.2021703498163E-02
(PID.TID 0000.0001) %MON dynstat_uvel_del2            =   5.1124208073966E-05
(PID.TID 0000.0001) %MON dynstat_vvel_max             =   1.7555722716279E-01
(PID.TID 0000.0001) %MON dynstat_vvel_min             =  -2.2264081011815E-01
(PID.TID 0000.0001) %MON dynstat_vvel_mean            =  -3.9436693029118E-04
(PID.TID 0000.0001) %MON dynstat_vvel_sd              =   1.2622672649168E-02
(PID.TID 0000.0001) %MON dynstat_vvel_del2            =   5.0173052261907E-05
(PID.TID 0000.0001) %MON dynstat_wvel_max             =   1.1019985815557E-04
(PID.TID 0000.0001) %MON dynstat_wvel_min             =  -1.9857911967907E-04
(PID.TID 0000.0001) %MON dynstat_wvel_mean            =  -4.7539574559018E-11
(PID.TID 0000.0001) %MON dynstat_wvel_sd              =   3.7693793464883E-06
(PID.TID 0000.0001) %MON dynstat_wvel_del2            =   2.6494715190034E-08
(PID.TID 0000.0001) %MON dynstat_theta_max            =   3.1205023061107E+01
(PID.TID 0000.0001) %MON dynstat_theta_min            =  -3.4950226206931E+00
(PID.TID 0000.0001) %MON dynstat_theta_mean           =   3.9106765208309E+00
(PID.TID 0000.0001) %MON dynstat_theta_sd             =   4.5737557557914E+00
(PID.TID 0000.0001) %MON dynstat_theta_del2           =   2.7282150520127E-03
(PID.TID 0000.0001) %MON dynstat_salt_max             =   4.1401157326847E+01
(PID.TID 0000.0001) %MON dynstat_salt_min             =   1.8392492571869E+01
(PID.TID 0000.0001) %MON dynstat_salt_mean            =   3.4772083701028E+01
(PID.TID 0000.0001) %MON dynstat_salt_sd              =   5.3140848422865E-01
(PID.TID 0000.0001) %MON dynstat_salt_del2            =   8.2612999861249E-04
(PID.TID 0000.0001) %MON dynstat_sst_max              =   3.1205023061107E+01
(PID.TID 0000.0001) %MON dynstat_sst_min              =  -2.0354945939506E+00
(PID.TID 0000.0001) %MON dynstat_sst_mean             =   1.8225252449746E+01
(PID.TID 0000.0001) %MON dynstat_sst_sd               =   9.7569265263489E+00
(PID.TID 0000.0001) %MON dynstat_sst_del2             =   1.7225216530950E-02
(PID.TID 0000.0001) %MON dynstat_sss_max              =   4.1401157326847E+01
(PID.TID 0000.0001) %MON dynstat_sss_min              =   1.8392492571869E+01
(PID.TID 0000.0001) %MON dynstat_sss_mean             =   3.4623355991892E+01
(PID.TID 0000.0001) %MON dynstat_sss_sd               =   1.4626874969986E+00
(PID.TID 0000.0001) %MON dynstat_sss_del2             =   8.3635262701730E-03
(PID.TID 0000.0001) %MON forcing_qnet_max             =   4.3410893730211E+02
(PID.TID 0000.0001) %MON forcing_qnet_min             =  -1.9431866179889E+02
(PID.TID 0000.0001) %MON forcing_qnet_mean            =  -1.2785893274842E+01
(PID.TID 0000.0001) %MON forcing_qnet_sd              =   1.0321994098125E+02
(PID.TID 0000.0001) %MON forcing_qnet_del2            =   4.2719756924439E-01
(PID.TID 0000.0001) %MON forcing_qsw_max              =   0.0000000000000E+00
(PID.TID 0000.0001) %MON forcing_qsw_min              =   0.0000000000000E+00
(PID.TID 0000.0001) %MON forcing_qsw_mean             =   0.0000000000000E+00
(PID.TID 0000.0001) %MON forcing_qsw_sd               =   0.0000000000000E+00
(PID.TID 0000.0001) %MON forcing_qsw_del2             =   0.0000000000000E+00
(PID.TID 0000.0001) %MON forcing_empmr_max            =   7.6494447208479E-05
(PID.TID 0000.0001) %MON forcing_empmr_min            =  -1.5362614137596E-04
(PID.TID 0000.0001) %MON forcing_empmr_mean           =   8.3865596020288E-22
(PID.TID 0000.0001) %MON forcing_empmr_sd             =   2.4051723601802E-05
(PID.TID 0000.0001) %MON forcing_empmr_del2           =   1.2276157049243E-07
(PID.TID 0000.0001) %MON forcing_fu_max               =   2.3672936800631E-01
(PID.TID 0000.0001) %MON forcing_fu_min               =  -2.0872832797809E-01
(PID.TID 0000.0001) %MON forcing_fu_mean              =  -4.2169835392390E-03
(PID.TID 0000.0001) %MON forcing_fu_sd                =   6.4129420267669E-02
(PID.TID 0000.0001) %MON forcing_fu_del2              =   2.0621603072516E-04
(PID.TID 0000.0001) %MON forcing_fv_max               =   2.8502578808056E-01
(PID.TID 0000.0001) %MON forcing_fv_min               =  -3.0511079049692E-01
(PID.TID 0000.0001) %MON forcing_fv_mean              =  -1.3725484772742E-02
(PID.TID 0000.0001) %MON forcing_fv_sd                =   7.4902023270728E-02
(PID.TID 0000.0001) %MON forcing_fv_del2              =   2.3961739567133E-04
(PID.TID 0000.0001) %MON trAdv_CFL_u_max              =   7.7981359588779E-02
(PID.TID 0000.0001) %MON trAdv_CFL_v_max              =   8.1420575827787E-02
(PID.TID 0000.0001) %MON trAdv_CFL_w_max              =   7.1515585330811E-02
(PID.TID 0000.0001) %MON advcfl_uvel_max              =   7.8419730061336E-02
(PID.TID 0000.0001) %MON advcfl_vvel_max              =   7.6522922032441E-02
(PID.TID 0000.0001) %MON advcfl_wvel_max              =   6.4744286567063E-02
(PID.TID 0000.0001) %MON advcfl_W_hf_max              =   7.1515585330811E-02
(PID.TID 0000.0001) %MON pe_b_mean                    =   4.7473297821999E-04
(PID.TID 0000.0001) %MON ke_max                       =   3.7142608067742E-02
(PID.TID 0000.0001) %MON ke_mean                      =   1.4048948266329E-04
(PID.TID 0000.0001) %MON ke_vol                       =   1.3398024453628E+18
(PID.TID 0000.0001) %MON vort_r_min                   =  -1.3073019296066E-06
(PID.TID 0000.0001) %MON vort_r_max                   =   1.2441014774265E-06
(PID.TID 0000.0001) %MON vort_a_mean                  =  -2.0493733748264E-05
(PID.TID 0000.0001) %MON vort_a_sd                    =   7.5053945663759E-05
(PID.TID 0000.0001) %MON vort_p_mean                  =  -2.4715772970728E-05
(PID.TID 0000.0001) %MON vort_p_sd                    =   1.2777071256882E-04
(PID.TID 0000.0001) %MON surfExpan_theta_mean         =   4.8072927107356E-08
(PID.TID 0000.0001) %MON surfExpan_salt_mean          =   1.5362873857042E-08
(PID.TID 0000.0001) // =======================================================
(PID.TID 0000.0001) // End MONITOR dynamic field statistics
(PID.TID 0000.0001) // =======================================================
 DRIVER_GET_EXPORT_STATE_3D:MASK : Associated & shape =          32          32          15
  Finished plug run method 
 AGCM Date: 2000/04/15  Time: 03:30:00
  Starting plug run method 
 EXTERNAL_FIELDS_LOAD,     72026 : iP,iLd,i0,i1=    1    2    1    2 ; Wght=  0.6333333333  0.3666666667
 cg2d: Sum(rhs),rhsMax =  -2.21689333557151E-12  4.23760634096296E+00
(PID.TID 0000.0001)      cg2d_init_res =   3.36691105500264E-02
(PID.TID 0000.0001)      cg2d_iters(min,last) =      -1      86
(PID.TID 0000.0001)      cg2d_last_res =   8.29643663485059E-10
(PID.TID 0000.0001) // =======================================================
(PID.TID 0000.0001) // Begin MONITOR dynamic field statistics
(PID.TID 0000.0001) // =======================================================
(PID.TID 0000.0001) %MON time_tsnumber                =                 72027
(PID.TID 0000.0001) %MON time_secondsf                =   6.2231328000000E+09
(PID.TID 0000.0001) %MON dynstat_eta_max              =   8.8887156054400E-01
(PID.TID 0000.0001) %MON dynstat_eta_min              =  -1.6040685654774E+00
(PID.TID 0000.0001) %MON dynstat_eta_mean             =   1.4180236508027E-14
(PID.TID 0000.0001) %MON dynstat_eta_sd               =   5.9692087314864E-01
(PID.TID 0000.0001) %MON dynstat_eta_del2             =   7.9768586125419E-04
(PID.TID 0000.0001) %MON dynstat_uvel_max             =   1.8256932809132E-01
(PID.TID 0000.0001) %MON dynstat_uvel_min             =  -2.7588072338394E-01
(PID.TID 0000.0001) %MON dynstat_uvel_mean            =  -4.7624306806951E-04
(PID.TID 0000.0001) %MON dynstat_uvel_sd              =   1.2021251556794E-02
(PID.TID 0000.0001) %MON dynstat_uvel_del2            =   5.1147844865022E-05
(PID.TID 0000.0001) %MON dynstat_vvel_max             =   1.7666245703995E-01
(PID.TID 0000.0001) %MON dynstat_vvel_min             =  -2.2246145881965E-01
(PID.TID 0000.0001) %MON dynstat_vvel_mean            =  -3.9381815217184E-04
(PID.TID 0000.0001) %MON dynstat_vvel_sd              =   1.2618449757615E-02
(PID.TID 0000.0001) %MON dynstat_vvel_del2            =   5.0166744200145E-05
(PID.TID 0000.0001) %MON dynstat_wvel_max             =   1.1002066951150E-04
(PID.TID 0000.0001) %MON dynstat_wvel_min             =  -1.9822874694287E-04
(PID.TID 0000.0001) %MON dynstat_wvel_mean            =  -4.4965089568878E-11
(PID.TID 0000.0001) %MON dynstat_wvel_sd              =   3.7646042517763E-06
(PID.TID 0000.0001) %MON dynstat_wvel_del2            =   2.6497977178990E-08
(PID.TID 0000.0001) %MON dynstat_theta_max            =   3.1211285435064E+01
(PID.TID 0000.0001) %MON dynstat_theta_min            =  -3.5152159409051E+00
(PID.TID 0000.0001) %MON dynstat_theta_mean           =   3.9107396301036E+00
(PID.TID 0000.0001) %MON dynstat_theta_sd             =   4.5739629459717E+00
(PID.TID 0000.0001) %MON dynstat_theta_del2           =   2.7290699626877E-03
(PID.TID 0000.0001) %MON dynstat_salt_max             =   4.1401780607293E+01
(PID.TID 0000.0001) %MON dynstat_salt_min             =   1.8392881327010E+01
(PID.TID 0000.0001) %MON dynstat_salt_mean            =   3.4772084509160E+01
(PID.TID 0000.0001) %MON dynstat_salt_sd              =   5.3140498364074E-01
(PID.TID 0000.0001) %MON dynstat_salt_del2            =   8.2624230847679E-04
(PID.TID 0000.0001) %MON dynstat_sst_max              =   3.1211285435064E+01
(PID.TID 0000.0001) %MON dynstat_sst_min              =  -2.0334614466732E+00
(PID.TID 0000.0001) %MON dynstat_sst_mean             =   1.8230639202156E+01
(PID.TID 0000.0001) %MON dynstat_sst_sd               =   9.7579172708301E+00
(PID.TID 0000.0001) %MON dynstat_sst_del2             =   1.7231927994829E-02
(PID.TID 0000.0001) %MON dynstat_sss_max              =   4.1401780607293E+01
(PID.TID 0000.0001) %MON dynstat_sss_min              =   1.8392881327010E+01
(PID.TID 0000.0001) %MON dynstat_sss_mean             =   3.4623095679032E+01
(PID.TID 0000.0001) %MON dynstat_sss_sd               =   1.4625068412042E+00
(PID.TID 0000.0001) %MON dynstat_sss_del2             =   8.3660482444097E-03
(PID.TID 0000.0001) %MON forcing_qnet_max             =   4.3231669567066E+02
(PID.TID 0000.0001) %MON forcing_qnet_min             =  -1.9409803880639E+02
(PID.TID 0000.0001) %MON forcing_qnet_mean            =  -1.2831557810197E+01
(PID.TID 0000.0001) %MON forcing_qnet_sd              =   1.0227048845777E+02
(PID.TID 0000.0001) %MON forcing_qnet_del2            =   4.2615212403327E-01
(PID.TID 0000.0001) %MON forcing_qsw_max              =   0.0000000000000E+00
(PID.TID 0000.0001) %MON forcing_qsw_min              =   0.0000000000000E+00
(PID.TID 0000.0001) %MON forcing_qsw_mean             =   0.0000000000000E+00
(PID.TID 0000.0001) %MON forcing_qsw_sd               =   0.0000000000000E+00
(PID.TID 0000.0001) %MON forcing_qsw_del2             =   0.0000000000000E+00
(PID.TID 0000.0001) %MON forcing_empmr_max            =   7.6494447208479E-05
(PID.TID 0000.0001) %MON forcing_empmr_min            =  -1.5362614137596E-04
(PID.TID 0000.0001) %MON forcing_empmr_mean           =   0.0000000000000E+00
(PID.TID 0000.0001) %MON forcing_empmr_sd             =   2.4051723601802E-05
(PID.TID 0000.0001) %MON forcing_empmr_del2           =   1.2276157049243E-07
(PID.TID 0000.0001) %MON forcing_fu_max               =   2.3790338151805E-01
(PID.TID 0000.0001) %MON forcing_fu_min               =  -2.0458927481386E-01
(PID.TID 0000.0001) %MON forcing_fu_mean              =  -4.2491122302767E-03
(PID.TID 0000.0001) %MON forcing_fu_sd                =   6.4073108673560E-02
(PID.TID 0000.0001) %MON forcing_fu_del2              =   2.0507894628873E-04
(PID.TID 0000.0001) %MON forcing_fv_max               =   2.8422240648608E-01
(PID.TID 0000.0001) %MON forcing_fv_min               =  -3.0167173831813E-01
(PID.TID 0000.0001) %MON forcing_fv_mean              =  -1.3723694779240E-02
(PID.TID 0000.0001) %MON forcing_fv_sd                =   7.4804453460460E-02
(PID.TID 0000.0001) %MON forcing_fv_del2              =   2.3898446456426E-04
(PID.TID 0000.0001) %MON trAdv_CFL_u_max              =   7.7807613226995E-02
(PID.TID 0000.0001) %MON trAdv_CFL_v_max              =   8.1933114331652E-02
(PID.TID 0000.0001) %MON trAdv_CFL_w_max              =   7.1389425376607E-02
(PID.TID 0000.0001) %MON advcfl_uvel_max              =   7.8245006246643E-02
(PID.TID 0000.0001) %MON advcfl_vvel_max              =   7.7004676165181E-02
(PID.TID 0000.0001) %MON advcfl_wvel_max              =   6.4630051833450E-02
(PID.TID 0000.0001) %MON advcfl_W_hf_max              =   7.1389425376607E-02
(PID.TID 0000.0001) %MON pe_b_mean                    =   4.7467679789433E-04
(PID.TID 0000.0001) %MON ke_max                       =   3.6981633871536E-02
(PID.TID 0000.0001) %MON ke_mean                      =   1.4043464367604E-04
(PID.TID 0000.0001) %MON ke_vol                       =   1.3398024453628E+18
(PID.TID 0000.0001) %MON vort_r_min                   =  -1.3099863904532E-06
(PID.TID 0000.0001) %MON vort_r_max                   =   1.2419383072083E-06
(PID.TID 0000.0001) %MON vort_a_mean                  =  -2.0493733748264E-05
(PID.TID 0000.0001) %MON vort_a_sd                    =   7.5053945654054E-05
(PID.TID 0000.0001) %MON vort_p_mean                  =  -2.4715772912002E-05
(PID.TID 0000.0001) %MON vort_p_sd                    =   1.2777071002074E-04
(PID.TID 0000.0001) %MON surfExpan_theta_mean         =   4.8245495806028E-08
(PID.TID 0000.0001) %MON surfExpan_salt_mean          =   1.5385283502687E-08
(PID.TID 0000.0001) // =======================================================
(PID.TID 0000.0001) // End MONITOR dynamic field statistics
(PID.TID 0000.0001) // =======================================================
 DRIVER_GET_EXPORT_STATE_3D:MASK : Associated & shape =          32          32          15
  Finished plug run method 
 AGCM Date: 2000/04/15  Time: 03:45:00
  Starting plug run method 
 EXTERNAL_FIELDS_LOAD,     72027 : iP,iLd,i0,i1=    1    2    1    2 ; Wght=  0.6000000000  0.4000000000
 cg2d: Sum(rhs),rhsMax =  -2.27373675443232E-12  4.23515149871006E+00
(PID.TID 0000.0001)      cg2d_init_res =   3.33899582015448E-02
(PID.TID 0000.0001)      cg2d_iters(min,last) =      -1      86
(PID.TID 0000.0001)      cg2d_last_res =   8.26159498390053E-10
(PID.TID 0000.0001) // =======================================================
(PID.TID 0000.0001) // Begin MONITOR dynamic field statistics
(PID.TID 0000.0001) // =======================================================
(PID.TID 0000.0001) %MON time_tsnumber                =                 72028
(PID.TID 0000.0001) %MON time_secondsf                =   6.2232192000000E+09
(PID.TID 0000.0001) %MON dynstat_eta_max              =   8.8813512632182E-01
(PID.TID 0000.0001) %MON dynstat_eta_min              =  -1.6035846459316E+00
(PID.TID 0000.0001) %MON dynstat_eta_mean             =   1.4510009450074E-14
(PID.TID 0000.0001) %MON dynstat_eta_sd               =   5.9688719261335E-01
(PID.TID 0000.0001) %MON dynstat_eta_del2             =   7.9816115782800E-04
(PID.TID 0000.0001) %MON dynstat_uvel_max             =   1.8204518563939E-01
(PID.TID 0000.0001) %MON dynstat_uvel_min             =  -2.7525411148486E-01
(PID.TID 0000.0001) %MON dynstat_uvel_mean            =  -4.7577810369199E-04
(PID.TID 0000.0001) %MON dynstat_uvel_sd              =   1.2020649098607E-02
(PID.TID 0000.0001) %MON dynstat_uvel_del2            =   5.1172529153422E-05
(PID.TID 0000.0001) %MON dynstat_vvel_max             =   1.7770690987824E-01
(PID.TID 0000.0001) %MON dynstat_vvel_min             =  -2.2227750715202E-01
(PID.TID 0000.0001) %MON dynstat_vvel_mean            =  -3.9326572558864E-04
(PID.TID 0000.0001) %MON dynstat_vvel_sd              =   1.2614355023633E-02
(PID.TID 0000.0001) %MON dynstat_vvel_del2            =   5.0161061226409E-05
(PID.TID 0000.0001) %MON dynstat_wvel_max             =   1.0978764515810E-04
(PID.TID 0000.0001) %MON dynstat_wvel_min             =  -1.9791378487325E-04
(PID.TID 0000.0001) %MON dynstat_wvel_mean            =  -4.0437330301993E-11
(PID.TID 0000.0001) %MON dynstat_wvel_sd              =   3.7595378471382E-06
(PID.TID 0000.0001) %MON dynstat_wvel_del2            =   2.6501867853455E-08
(PID.TID 0000.0001) %MON dynstat_theta_max            =   3.1216970540626E+01
(PID.TID 0000.0001) %MON dynstat_theta_min            =  -3.5355005041621E+00
(PID.TID 0000.0001) %MON dynstat_theta_mean           =   3.9108029685733E+00
(PID.TID 0000.0001) %MON dynstat_theta_sd             =   4.5741785912132E+00
(PID.TID 0000.0001) %MON dynstat_theta_del2           =   2.7311128808819E-03
(PID.TID 0000.0001) %MON dynstat_salt_max             =   4.1402410732890E+01
(PID.TID 0000.0001) %MON dynstat_salt_min             =   1.8393273295677E+01
(PID.TID 0000.0001) %MON dynstat_salt_mean            =   3.4772085333577E+01
(PID.TID 0000.0001) %MON dynstat_salt_sd              =   5.3140201201687E-01
(PID.TID 0000.0001) %MON dynstat_salt_del2            =   8.2661626848831E-04
(PID.TID 0000.0001) %MON dynstat_sst_max              =   3.1216970540626E+01
(PID.TID 0000.0001) %MON dynstat_sst_min              =  -2.0315171867834E+00
(PID.TID 0000.0001) %MON dynstat_sst_mean             =   1.8235928172459E+01
(PID.TID 0000.0001) %MON dynstat_sst_sd               =   9.7592919308563E+00
(PID.TID 0000.0001) %MON dynstat_sst_del2             =   1.7256635894127E-02
(PID.TID 0000.0001) %MON dynstat_sss_max              =   4.1402410732890E+01
(PID.TID 0000.0001) %MON dynstat_sss_min              =   1.8393273295677E+01
(PID.TID 0000.0001) %MON dynstat_sss_mean             =   3.4622820393416E+01
(PID.TID 0000.0001) %MON dynstat_sss_sd               =   1.4623352702803E+00
(PID.TID 0000.0001) %MON dynstat_sss_del2             =   8.3710382781939E-03
(PID.TID 0000.0001) %MON forcing_qnet_max             =   4.3052445403921E+02
(PID.TID 0000.0001) %MON forcing_qnet_min             =  -1.9387741581389E+02
(PID.TID 0000.0001) %MON forcing_qnet_mean            =  -1.2877222345553E+01
(PID.TID 0000.0001) %MON forcing_qnet_sd              =   1.0133250245592E+02
(PID.TID 0000.0001) %MON forcing_qnet_del2            =   4.2521183790777E-01
(PID.TID 0000.0001) %MON forcing_qsw_max              =   0.0000000000000E+00
(PID.TID 0000.0001) %MON forcing_qsw_min              =   0.0000000000000E+00
(PID.TID 0000.0001) %MON forcing_qsw_mean             =   0.0000000000000E+00
(PID.TID 0000.0001) %MON forcing_qsw_sd               =   0.0000000000000E+00
(PID.TID 0000.0001) %MON forcing_qsw_del2             =   0.0000000000000E+00
(PID.TID 0000.0001) %MON forcing_empmr_max            =   7.6494447208479E-05
(PID.TID 0000.0001) %MON forcing_empmr_min            =  -1.5362614137596E-04
(PID.TID 0000.0001) %MON forcing_empmr_mean           =   4.1932798010144E-22
(PID.TID 0000.0001) %MON forcing_empmr_sd             =   2.4051723601802E-05
(PID.TID 0000.0001) %MON forcing_empmr_del2           =   1.2276157049243E-07
(PID.TID 0000.0001) %MON forcing_fu_max               =   2.3907739502978E-01
(PID.TID 0000.0001) %MON forcing_fu_min               =  -2.0045022164962E-01
(PID.TID 0000.0001) %MON forcing_fu_mean              =  -4.2812409213145E-03
(PID.TID 0000.0001) %MON forcing_fu_sd                =   6.4031359266830E-02
(PID.TID 0000.0001) %MON forcing_fu_del2              =   2.0421285849496E-04
(PID.TID 0000.0001) %MON forcing_fv_max               =   2.8341902489160E-01
(PID.TID 0000.0001) %MON forcing_fv_min               =  -2.9823268613935E-01
(PID.TID 0000.0001) %MON forcing_fv_mean              =  -1.3721904785737E-02
(PID.TID 0000.0001) %MON forcing_fv_sd                =   7.4724324504241E-02
(PID.TID 0000.0001) %MON forcing_fv_del2              =   2.3855793224302E-04
(PID.TID 0000.0001) %MON trAdv_CFL_u_max              =   7.7630888374335E-02
(PID.TID 0000.0001) %MON trAdv_CFL_v_max              =   8.2417465523301E-02
(PID.TID 0000.0001) %MON trAdv_CFL_w_max              =   7.1276018075992E-02
(PID.TID 0000.0001) %MON advcfl_uvel_max              =   7.8067287226060E-02
(PID.TID 0000.0001) %MON advcfl_vvel_max              =   7.7459938442913E-02
(PID.TID 0000.0001) %MON advcfl_wvel_max              =   6.4527362313392E-02
(PID.TID 0000.0001) %MON advcfl_W_hf_max              =   7.1276018075992E-02
(PID.TID 0000.0001) %MON pe_b_mean                    =   4.7462323328190E-04
(PID.TID 0000.0001) %MON ke_max                       =   3.6819551812053E-02
(PID.TID 0000.0001) %MON ke_mean                      =   1.4037966054785E-04
(PID.TID 0000.0001) %MON ke_vol                       =   1.3398024453628E+18
(PID.TID 0000.0001) %MON vort_r_min                   =  -1.3124196318880E-06
(PID.TID 0000.0001) %MON vort_r_max                   =   1.2394520973085E-06
(PID.TID 0000.0001) %MON vort_a_mean                  =  -2.0493733748264E-05
(PID.TID 0000.0001) %MON vort_a_sd                    =   7.5053945652178E-05
(PID.TID 0000.0001) %MON vort_p_mean                  =  -2.4715772854735E-05
(PID.TID 0000.0001) %MON vort_p_sd                    =   1.2777070727757E-04
(PID.TID 0000.0001) %MON surfExpan_theta_mean         =   4.8399016039580E-08
(PID.TID 0000.0001) %MON surfExpan_salt_mean          =   1.5390926801043E-08
(PID.TID 0000.0001) // =======================================================
(PID.TID 0000.0001) // End MONITOR dynamic field statistics
(PID.TID 0000.0001) // =======================================================
 DRIVER_GET_EXPORT_STATE_3D:MASK : Associated & shape =          32          32          15
  Finished plug run method 
 AGCM Date: 2000/04/15  Time: 04:00:00
 
 Writing:     40 Slices (  1 Nodes,  1 PartitionRoot) to File:  TEST.mit_ocn.20000415_0400z.nc4
 
  Starting plug run method 
 EXTERNAL_FIELDS_LOAD,     72028 : iP,iLd,i0,i1=    1    2    1    2 ; Wght=  0.5666666667  0.4333333333
 cg2d: Sum(rhs),rhsMax =  -2.33768560065073E-12  4.23250330143512E+00
(PID.TID 0000.0001)      cg2d_init_res =   3.33078804661773E-02
(PID.TID 0000.0001)      cg2d_iters(min,last) =      -1      86
(PID.TID 0000.0001)      cg2d_last_res =   8.28128081585166E-10
(PID.TID 0000.0001) // =======================================================
(PID.TID 0000.0001) // Begin MONITOR dynamic field statistics
(PID.TID 0000.0001) // =======================================================
(PID.TID 0000.0001) %MON time_tsnumber                =                 72029
(PID.TID 0000.0001) %MON time_secondsf                =   6.2233056000000E+09
(PID.TID 0000.0001) %MON dynstat_eta_max              =   8.8742190434182E-01
(PID.TID 0000.0001) %MON dynstat_eta_min              =  -1.6031171498825E+00
(PID.TID 0000.0001) %MON dynstat_eta_mean             =   1.4262679743539E-14
(PID.TID 0000.0001) %MON dynstat_eta_sd               =   5.9685416512811E-01
(PID.TID 0000.0001) %MON dynstat_eta_del2             =   7.9864132551200E-04
(PID.TID 0000.0001) %MON dynstat_uvel_max             =   1.8149374455170E-01
(PID.TID 0000.0001) %MON dynstat_uvel_min             =  -2.7461733816692E-01
(PID.TID 0000.0001) %MON dynstat_uvel_mean            =  -4.7532081473712E-04
(PID.TID 0000.0001) %MON dynstat_uvel_sd              =   1.2019926393362E-02
(PID.TID 0000.0001) %MON dynstat_uvel_del2            =   5.1198030558288E-05
(PID.TID 0000.0001) %MON dynstat_vvel_max             =   1.7868420976572E-01
(PID.TID 0000.0001) %MON dynstat_vvel_min             =  -2.2208914118933E-01
(PID.TID 0000.0001) %MON dynstat_vvel_mean            =  -3.9270836836906E-04
(PID.TID 0000.0001) %MON dynstat_vvel_sd              =   1.2610417759455E-02
(PID.TID 0000.0001) %MON dynstat_vvel_del2            =   5.0156098020904E-05
(PID.TID 0000.0001) %MON dynstat_wvel_max             =   1.0950526452898E-04
(PID.TID 0000.0001) %MON dynstat_wvel_min             =  -1.9763742826347E-04
(PID.TID 0000.0001) %MON dynstat_wvel_mean            =  -3.3825239004962E-11
(PID.TID 0000.0001) %MON dynstat_wvel_sd              =   3.7542180771080E-06
(PID.TID 0000.0001) %MON dynstat_wvel_del2            =   2.6506410228247E-08
(PID.TID 0000.0001) %MON dynstat_theta_max            =   3.1222098272098E+01
(PID.TID 0000.0001) %MON dynstat_theta_min            =  -3.5558670463527E+00
(PID.TID 0000.0001) %MON dynstat_theta_mean           =   3.9108665304534E+00
(PID.TID 0000.0001) %MON dynstat_theta_sd             =   4.5744012148200E+00
(PID.TID 0000.0001) %MON dynstat_theta_del2           =   2.7332473957063E-03
(PID.TID 0000.0001) %MON dynstat_salt_max             =   4.1403046740190E+01
(PID.TID 0000.0001) %MON dynstat_salt_min             =   1.8393669555364E+01
(PID.TID 0000.0001) %MON dynstat_salt_mean            =   3.4772086174203E+01
(PID.TID 0000.0001) %MON dynstat_salt_sd              =   5.3139890892597E-01
(PID.TID 0000.0001) %MON dynstat_salt_del2            =   8.2707750520029E-04
(PID.TID 0000.0001) %MON dynstat_sst_max              =   3.1222098272098E+01
(PID.TID 0000.0001) %MON dynstat_sst_min              =  -2.0297635828889E+00
(PID.TID 0000.0001) %MON dynstat_sst_mean             =   1.8241324439589E+01
(PID.TID 0000.0001) %MON dynstat_sst_sd               =   9.7608221470920E+00
(PID.TID 0000.0001) %MON dynstat_sst_del2             =   1.7284422655851E-02
(PID.TID 0000.0001) %MON dynstat_sss_max              =   4.1403046740190E+01
(PID.TID 0000.0001) %MON dynstat_sss_min              =   1.8393669555364E+01
(PID.TID 0000.0001) %MON dynstat_sss_mean             =   3.4622571210327E+01
(PID.TID 0000.0001) %MON dynstat_sss_sd               =   1.4621743670440E+00
(PID.TID 0000.0001) %MON dynstat_sss_del2             =   8.3766421982563E-03
(PID.TID 0000.0001) %MON forcing_qnet_max             =   4.2873221240776E+02
(PID.TID 0000.0001) %MON forcing_qnet_min             =  -1.9365679282139E+02
(PID.TID 0000.0001) %MON forcing_qnet_mean            =  -1.2922886880908E+01
(PID.TID 0000.0001) %MON forcing_qnet_sd              =   1.0040630433364E+02
(PID.TID 0000.0001) %MON forcing_qnet_del2            =   4.2437740986630E-01
(PID.TID 0000.0001) %MON forcing_qsw_max              =   0.0000000000000E+00
(PID.TID 0000.0001) %MON forcing_qsw_min              =   0.0000000000000E+00
(PID.TID 0000.0001) %MON forcing_qsw_mean             =   0.0000000000000E+00
(PID.TID 0000.0001) %MON forcing_qsw_sd               =   0.0000000000000E+00
(PID.TID 0000.0001) %MON forcing_qsw_del2             =   0.0000000000000E+00
(PID.TID 0000.0001) %MON forcing_empmr_max            =   7.6494447208479E-05
(PID.TID 0000.0001) %MON forcing_empmr_min            =  -1.5362614137596E-04
(PID.TID 0000.0001) %MON forcing_empmr_mean           =   4.1932798010144E-22
(PID.TID 0000.0001) %MON forcing_empmr_sd             =   2.4051723601802E-05
(PID.TID 0000.0001) %MON forcing_empmr_del2           =   1.2276157049243E-07
(PID.TID 0000.0001) %MON forcing_fu_max               =   2.4025140854152E-01
(PID.TID 0000.0001) %MON forcing_fu_min               =  -1.9637097754383E-01
(PID.TID 0000.0001) %MON forcing_fu_mean              =  -4.3133696123523E-03
(PID.TID 0000.0001) %MON forcing_fu_sd                =   6.4004200543868E-02
(PID.TID 0000.0001) %MON forcing_fu_del2              =   2.0362122536563E-04
(PID.TID 0000.0001) %MON forcing_fv_max               =   2.8261564329712E-01
(PID.TID 0000.0001) %MON forcing_fv_min               =  -2.9479363396057E-01
(PID.TID 0000.0001) %MON forcing_fv_mean              =  -1.3720114792235E-02
(PID.TID 0000.0001) %MON forcing_fv_sd                =   7.4661692556088E-02
(PID.TID 0000.0001) %MON forcing_fv_del2              =   2.3833890682661E-04
(PID.TID 0000.0001) %MON trAdv_CFL_u_max              =   7.7451297617058E-02
(PID.TID 0000.0001) %MON trAdv_CFL_v_max              =   8.2870672299102E-02
(PID.TID 0000.0001) %MON trAdv_CFL_w_max              =   7.1176513860290E-02
(PID.TID 0000.0001) %MON advcfl_uvel_max              =   7.7886686234339E-02
(PID.TID 0000.0001) %MON advcfl_vvel_max              =   7.7885929695457E-02
(PID.TID 0000.0001) %MON advcfl_wvel_max              =   6.4437259630052E-02
(PID.TID 0000.0001) %MON advcfl_W_hf_max              =   7.1176513860290E-02
(PID.TID 0000.0001) %MON pe_b_mean                    =   4.7457071019768E-04
(PID.TID 0000.0001) %MON ke_max                       =   3.6656405082034E-02
(PID.TID 0000.0001) %MON ke_mean                      =   1.4032520909187E-04
(PID.TID 0000.0001) %MON ke_vol                       =   1.3398024453628E+18
(PID.TID 0000.0001) %MON vort_r_min                   =  -1.3146119578342E-06
(PID.TID 0000.0001) %MON vort_r_max                   =   1.2366502240942E-06
(PID.TID 0000.0001) %MON vort_a_mean                  =  -2.0493733748264E-05
(PID.TID 0000.0001) %MON vort_a_sd                    =   7.5053945658645E-05
(PID.TID 0000.0001) %MON vort_p_mean                  =  -2.4715772799334E-05
(PID.TID 0000.0001) %MON vort_p_sd                    =   1.2777070425041E-04
(PID.TID 0000.0001) %MON surfExpan_theta_mean         =   4.8544687808933E-08
(PID.TID 0000.0001) %MON surfExpan_salt_mean          =   1.5388466421105E-08
(PID.TID 0000.0001) // =======================================================
(PID.TID 0000.0001) // End MONITOR dynamic field statistics
(PID.TID 0000.0001) // =======================================================
 DRIVER_GET_EXPORT_STATE_3D:MASK : Associated & shape =          32          32          15
  Finished plug run method 
 AGCM Date: 2000/04/15  Time: 04:15:00
  Starting plug run method 
 EXTERNAL_FIELDS_LOAD,     72029 : iP,iLd,i0,i1=    1    2    1    2 ; Wght=  0.5333333333  0.4666666667
 cg2d: Sum(rhs),rhsMax =  -2.33768560065073E-12  4.22966987728451E+00
(PID.TID 0000.0001)      cg2d_init_res =   3.34960872053711E-02
(PID.TID 0000.0001)      cg2d_iters(min,last) =      -1      86
(PID.TID 0000.0001)      cg2d_last_res =   8.34175288612858E-10
(PID.TID 0000.0001) // =======================================================
(PID.TID 0000.0001) // Begin MONITOR dynamic field statistics
(PID.TID 0000.0001) // =======================================================
(PID.TID 0000.0001) %MON time_tsnumber                =                 72030
(PID.TID 0000.0001) %MON time_secondsf                =   6.2233920000000E+09
(PID.TID 0000.0001) %MON dynstat_eta_max              =   8.8672793806517E-01
(PID.TID 0000.0001) %MON dynstat_eta_min              =  -1.6026666124469E+00
(PID.TID 0000.0001) %MON dynstat_eta_mean             =   1.4207717586531E-14
(PID.TID 0000.0001) %MON dynstat_eta_sd               =   5.9682105236176E-01
(PID.TID 0000.0001) %MON dynstat_eta_del2             =   7.9912669853158E-04
(PID.TID 0000.0001) %MON dynstat_uvel_max             =   1.8092041915792E-01
(PID.TID 0000.0001) %MON dynstat_uvel_min             =  -2.7397084556183E-01
(PID.TID 0000.0001) %MON dynstat_uvel_mean            =  -4.7486995439264E-04
(PID.TID 0000.0001) %MON dynstat_uvel_sd              =   1.2019117095141E-02
(PID.TID 0000.0001) %MON dynstat_uvel_del2            =   5.1224170913792E-05
(PID.TID 0000.0001) %MON dynstat_vvel_max             =   1.7958844272009E-01
(PID.TID 0000.0001) %MON dynstat_vvel_min             =  -2.2198956348201E-01
(PID.TID 0000.0001) %MON dynstat_vvel_mean            =  -3.9214349302939E-04
(PID.TID 0000.0001) %MON dynstat_vvel_sd              =   1.2606660702695E-02
(PID.TID 0000.0001) %MON dynstat_vvel_del2            =   5.0151944824809E-05
(PID.TID 0000.0001) %MON dynstat_wvel_max             =   1.0917918991072E-04
(PID.TID 0000.0001) %MON dynstat_wvel_min             =  -1.9740244664397E-04
(PID.TID 0000.0001) %MON dynstat_wvel_mean            =  -2.6855381351641E-11
(PID.TID 0000.0001) %MON dynstat_wvel_sd              =   3.7486943495384E-06
(PID.TID 0000.0001) %MON dynstat_wvel_del2            =   2.6511645475348E-08
(PID.TID 0000.0001) %MON dynstat_theta_max            =   3.1226688163332E+01
(PID.TID 0000.0001) %MON dynstat_theta_min            =  -3.5762936320026E+00
(PID.TID 0000.0001) %MON dynstat_theta_mean           =   3.9109304077963E+00
(PID.TID 0000.0001) %MON dynstat_theta_sd             =   4.5746302475696E+00
(PID.TID 0000.0001) %MON dynstat_theta_del2           =   2.7354741146743E-03
(PID.TID 0000.0001) %MON dynstat_salt_max             =   4.1403687719684E+01
(PID.TID 0000.0001) %MON dynstat_salt_min             =   1.8394071640490E+01
(PID.TID 0000.0001) %MON dynstat_salt_mean            =   3.4772087030391E+01
(PID.TID 0000.0001) %MON dynstat_salt_sd              =   5.3139555668504E-01
(PID.TID 0000.0001) %MON dynstat_salt_del2            =   8.2764326526416E-04
(PID.TID 0000.0001) %MON dynstat_sst_max              =   3.1226688163332E+01
(PID.TID 0000.0001) %MON dynstat_sst_min              =  -2.0282870253450E+00
(PID.TID 0000.0001) %MON dynstat_sst_mean             =   1.8246848789537E+01
(PID.TID 0000.0001) %MON dynstat_sst_sd               =   9.7624695921107E+00
(PID.TID 0000.0001) %MON dynstat_sst_del2             =   1.7315012582890E-02
(PID.TID 0000.0001) %MON dynstat_sss_max              =   4.1403687719684E+01
(PID.TID 0000.0001) %MON dynstat_sss_min              =   1.8394071640490E+01
(PID.TID 0000.0001) %MON dynstat_sss_mean             =   3.4622347628278E+01
(PID.TID 0000.0001) %MON dynstat_sss_sd               =   1.4620158406641E+00
(PID.TID 0000.0001) %MON dynstat_sss_del2             =   8.3823833913123E-03
(PID.TID 0000.0001) %MON forcing_qnet_max             =   4.2693997077631E+02
(PID.TID 0000.0001) %MON forcing_qnet_min             =  -1.9343616982889E+02
(PID.TID 0000.0001) %MON forcing_qnet_mean            =  -1.2968551416263E+01
(PID.TID 0000.0001) %MON forcing_qnet_sd              =   9.9492223300472E+01
(PID.TID 0000.0001) %MON forcing_qnet_del2            =   4.2364946540961E-01
(PID.TID 0000.0001) %MON forcing_qsw_max              =   0.0000000000000E+00
(PID.TID 0000.0001) %MON forcing_qsw_min              =   0.0000000000000E+00
(PID.TID 0000.0001) %MON forcing_qsw_mean             =   0.0000000000000E+00
(PID.TID 0000.0001) %MON forcing_qsw_sd               =   0.0000000000000E+00
(PID.TID 0000.0001) %MON forcing_qsw_del2             =   0.0000000000000E+00
(PID.TID 0000.0001) %MON forcing_empmr_max            =   7.6494447208479E-05
(PID.TID 0000.0001) %MON forcing_empmr_min            =  -1.5362614137596E-04
(PID.TID 0000.0001) %MON forcing_empmr_mean           =   4.1932798010144E-22
(PID.TID 0000.0001) %MON forcing_empmr_sd             =   2.4051723601802E-05
(PID.TID 0000.0001) %MON forcing_empmr_del2           =   1.2276157049243E-07
(PID.TID 0000.0001) %MON forcing_fu_max               =   2.4203671674909E-01
(PID.TID 0000.0001) %MON forcing_fu_min               =  -1.9431438996982E-01
(PID.TID 0000.0001) %MON forcing_fu_mean              =  -4.3454983033901E-03
(PID.TID 0000.0001) %MON forcing_fu_sd                =   6.3991651081989E-02
(PID.TID 0000.0001) %MON forcing_fu_del2              =   2.0330644295017E-04
(PID.TID 0000.0001) %MON forcing_fv_max               =   2.8181226170264E-01
(PID.TID 0000.0001) %MON forcing_fv_min               =  -2.9135458178179E-01
(PID.TID 0000.0001) %MON forcing_fv_mean              =  -1.3718324798732E-02
(PID.TID 0000.0001) %MON forcing_fv_sd                =   7.4616601676114E-02
(PID.TID 0000.0001) %MON forcing_fv_del2              =   2.3832796041755E-04
(PID.TID 0000.0001) %MON trAdv_CFL_u_max              =   7.7268965636162E-02
(PID.TID 0000.0001) %MON trAdv_CFL_v_max              =   8.3289991901296E-02
(PID.TID 0000.0001) %MON trAdv_CFL_w_max              =   7.1091910031917E-02
(PID.TID 0000.0001) %MON advcfl_uvel_max              =   7.7703328668420E-02
(PID.TID 0000.0001) %MON advcfl_vvel_max              =   7.8280072101241E-02
(PID.TID 0000.0001) %MON advcfl_wvel_max              =   6.4360646754865E-02
(PID.TID 0000.0001) %MON advcfl_W_hf_max              =   7.1091910031917E-02
(PID.TID 0000.0001) %MON pe_b_mean                    =   4.7451805440988E-04
(PID.TID 0000.0001) %MON ke_max                       =   3.6492244663417E-02
(PID.TID 0000.0001) %MON ke_mean                      =   1.4027192389699E-04
(PID.TID 0000.0001) %MON ke_vol                       =   1.3398024453628E+18
(PID.TID 0000.0001) %MON vort_r_min                   =  -1.3165756645738E-06
(PID.TID 0000.0001) %MON vort_r_max                   =   1.2335613612316E-06
(PID.TID 0000.0001) %MON vort_a_mean                  =  -2.0493733748264E-05
(PID.TID 0000.0001) %MON vort_a_sd                    =   7.5053945673444E-05
(PID.TID 0000.0001) %MON vort_p_mean                  =  -2.4715772746390E-05
(PID.TID 0000.0001) %MON vort_p_sd                    =   1.2777070084786E-04
(PID.TID 0000.0001) %MON surfExpan_theta_mean         =   4.8656685674168E-08
(PID.TID 0000.0001) %MON surfExpan_salt_mean          =   1.5382052388844E-08
(PID.TID 0000.0001) // =======================================================
(PID.TID 0000.0001) // End MONITOR dynamic field statistics
(PID.TID 0000.0001) // =======================================================
 DRIVER_GET_EXPORT_STATE_3D:MASK : Associated & shape =          32          32          15
  Finished plug run method 
 AGCM Date: 2000/04/15  Time: 04:30:00
  Starting plug run method 
 EXTERNAL_FIELDS_LOAD,     72030 : iP,iLd,i0,i1=    1    2    1    2 ; Wght=  0.5000000000  0.5000000000
 cg2d: Sum(rhs),rhsMax =  -2.22399876292911E-12  4.22666370569334E+00
(PID.TID 0000.0001)      cg2d_init_res =   3.38159987084416E-02
(PID.TID 0000.0001)      cg2d_iters(min,last) =      -1      86
(PID.TID 0000.0001)      cg2d_last_res =   8.39643012194954E-10
(PID.TID 0000.0001) // =======================================================
(PID.TID 0000.0001) // Begin MONITOR dynamic field statistics
(PID.TID 0000.0001) // =======================================================
(PID.TID 0000.0001) %MON time_tsnumber                =                 72031
(PID.TID 0000.0001) %MON time_secondsf                =   6.2234784000000E+09
(PID.TID 0000.0001) %MON dynstat_eta_max              =   8.8605056408686E-01
(PID.TID 0000.0001) %MON dynstat_eta_min              =  -1.6022336307032E+00
(PID.TID 0000.0001) %MON dynstat_eta_mean             =   1.4207717586531E-14
(PID.TID 0000.0001) %MON dynstat_eta_sd               =   5.9678741314609E-01
(PID.TID 0000.0001) %MON dynstat_eta_del2             =   7.9961194560973E-04
(PID.TID 0000.0001) %MON dynstat_uvel_max             =   1.8033058400735E-01
(PID.TID 0000.0001) %MON dynstat_uvel_min             =  -2.7331510643170E-01
(PID.TID 0000.0001) %MON dynstat_uvel_mean            =  -4.7442306597575E-04
(PID.TID 0000.0001) %MON dynstat_uvel_sd              =   1.2018253579357E-02
(PID.TID 0000.0001) %MON dynstat_uvel_del2            =   5.1250719828927E-05
(PID.TID 0000.0001) %MON dynstat_vvel_max             =   1.8041422633859E-01
(PID.TID 0000.0001) %MON dynstat_vvel_min             =  -2.2209340214651E-01
(PID.TID 0000.0001) %MON dynstat_vvel_mean            =  -3.9156912998309E-04
(PID.TID 0000.0001) %MON dynstat_vvel_sd              =   1.2603101358411E-02
(PID.TID 0000.0001) %MON dynstat_vvel_del2            =   5.0148693847617E-05
(PID.TID 0000.0001) %MON dynstat_wvel_max             =   1.0881453311459E-04
(PID.TID 0000.0001) %MON dynstat_wvel_min             =  -1.9721098545109E-04
(PID.TID 0000.0001) %MON dynstat_wvel_mean            =  -2.0737019189157E-11
(PID.TID 0000.0001) %MON dynstat_wvel_sd              =   3.7430178175808E-06
(PID.TID 0000.0001) %MON dynstat_wvel_del2            =   2.6517318434664E-08
(PID.TID 0000.0001) %MON dynstat_theta_max            =   3.1230759153803E+01
(PID.TID 0000.0001) %MON dynstat_theta_min            =  -3.5967712451098E+00
(PID.TID 0000.0001) %MON dynstat_theta_mean           =   3.9109945760388E+00
(PID.TID 0000.0001) %MON dynstat_theta_sd             =   4.5748660843712E+00
(PID.TID 0000.0001) %MON dynstat_theta_del2           =   2.7379182190358E-03
(PID.TID 0000.0001) %MON dynstat_salt_max             =   4.1404332847593E+01
(PID.TID 0000.0001) %MON dynstat_salt_min             =   1.8394481769735E+01
(PID.TID 0000.0001) %MON dynstat_salt_mean            =   3.4772087901553E+01
(PID.TID 0000.0001) %MON dynstat_salt_sd              =   5.3139232450170E-01
(PID.TID 0000.0001) %MON dynstat_salt_del2            =   8.2812676631292E-04
(PID.TID 0000.0001) %MON dynstat_sst_max              =   3.1230759153803E+01
(PID.TID 0000.0001) %MON dynstat_sst_min              =  -2.0270394321547E+00
(PID.TID 0000.0001) %MON dynstat_sst_mean             =   1.8252420928014E+01
(PID.TID 0000.0001) %MON dynstat_sst_sd               =   9.7642512162689E+00
(PID.TID 0000.0001) %MON dynstat_sst_del2             =   1.7338244000994E-02
(PID.TID 0000.0001) %MON dynstat_sss_max              =   4.1404332847593E+01
(PID.TID 0000.0001) %MON dynstat_sss_min              =   1.8394481769735E+01
(PID.TID 0000.0001) %MON dynstat_sss_mean             =   3.4622131899572E+01
(PID.TID 0000.0001) %MON dynstat_sss_sd               =   1.4618477676940E+00
(PID.TID 0000.0001) %MON dynstat_sss_del2             =   8.3867989308913E-03
(PID.TID 0000.0001) %MON forcing_qnet_max             =   4.2514772914487E+02
(PID.TID 0000.0001) %MON forcing_qnet_min             =  -1.9321554683639E+02
(PID.TID 0000.0001) %MON forcing_qnet_mean            =  -1.3014215951618E+01
(PID.TID 0000.0001) %MON forcing_qnet_sd              =   9.8590596387154E+01
(PID.TID 0000.0001) %MON forcing_qnet_del2            =   4.2302855424659E-01
(PID.TID 0000.0001) %MON forcing_qsw_max              =   0.0000000000000E+00
(PID.TID 0000.0001) %MON forcing_qsw_min              =   0.0000000000000E+00
(PID.TID 0000.0001) %MON forcing_qsw_mean             =   0.0000000000000E+00
(PID.TID 0000.0001) %MON forcing_qsw_sd               =   0.0000000000000E+00
(PID.TID 0000.0001) %MON forcing_qsw_del2             =   0.0000000000000E+00
(PID.TID 0000.0001) %MON forcing_empmr_max            =   7.6494447208479E-05
(PID.TID 0000.0001) %MON forcing_empmr_min            =  -1.5362614137596E-04
(PID.TID 0000.0001) %MON forcing_empmr_mean           =   4.1932798010144E-22
(PID.TID 0000.0001) %MON forcing_empmr_sd             =   2.4051723601802E-05
(PID.TID 0000.0001) %MON forcing_empmr_del2           =   1.2276157049243E-07
(PID.TID 0000.0001) %MON forcing_fu_max               =   2.4387801653079E-01
(PID.TID 0000.0001) %MON forcing_fu_min               =  -1.9631499553209E-01
(PID.TID 0000.0001) %MON forcing_fu_mean              =  -4.3776269944279E-03
(PID.TID 0000.0001) %MON forcing_fu_sd                =   6.3993719476024E-02
(PID.TID 0000.0001) %MON forcing_fu_del2              =   2.0326979744083E-04
(PID.TID 0000.0001) %MON forcing_fv_max               =   2.8176692286341E-01
(PID.TID 0000.0001) %MON forcing_fv_min               =  -2.8791552960301E-01
(PID.TID 0000.0001) %MON forcing_fv_mean              =  -1.3716534805230E-02
(PID.TID 0000.0001) %MON forcing_fv_sd                =   7.4589083676310E-02
(PID.TID 0000.0001) %MON forcing_fv_del2              =   2.3852512166335E-04
(PID.TID 0000.0001) %MON trAdv_CFL_u_max              =   7.7084025754785E-02
(PID.TID 0000.0001) %MON trAdv_CFL_v_max              =   8.3672928128216E-02
(PID.TID 0000.0001) %MON trAdv_CFL_w_max              =   7.1022979078906E-02
(PID.TID 0000.0001) %MON advcfl_uvel_max              =   7.7517348612603E-02
(PID.TID 0000.0001) %MON advcfl_vvel_max              =   7.8640019546728E-02
(PID.TID 0000.0001) %MON advcfl_wvel_max              =   6.4298223181033E-02
(PID.TID 0000.0001) %MON advcfl_W_hf_max              =   7.1022979078906E-02
(PID.TID 0000.0001) %MON pe_b_mean                    =   4.7446456445587E-04
(PID.TID 0000.0001) %MON ke_max                       =   3.6327126210256E-02
(PID.TID 0000.0001) %MON ke_mean                      =   1.4022036363526E-04
(PID.TID 0000.0001) %MON ke_vol                       =   1.3398024453628E+18
(PID.TID 0000.0001) %MON vort_r_min                   =  -1.3183249008756E-06
(PID.TID 0000.0001) %MON vort_r_max                   =   1.2302074774357E-06
(PID.TID 0000.0001) %MON vort_a_mean                  =  -2.0493733748264E-05
(PID.TID 0000.0001) %MON vort_a_sd                    =   7.5053945696457E-05
(PID.TID 0000.0001) %MON vort_p_mean                  =  -2.4715772695625E-05
(PID.TID 0000.0001) %MON vort_p_sd                    =   1.2777069700742E-04
(PID.TID 0000.0001) %MON surfExpan_theta_mean         =   4.8729399883579E-08
(PID.TID 0000.0001) %MON surfExpan_salt_mean          =   1.5374378931114E-08
(PID.TID 0000.0001) // =======================================================
(PID.TID 0000.0001) // End MONITOR dynamic field statistics
(PID.TID 0000.0001) // =======================================================
 DRIVER_GET_EXPORT_STATE_3D:MASK : Associated & shape =          32          32          15
  Finished plug run method 
 AGCM Date: 2000/04/15  Time: 04:45:00
  Starting plug run method 
 EXTERNAL_FIELDS_LOAD,     72031 : iP,iLd,i0,i1=    1    2    1    2 ; Wght=  0.4666666667  0.5333333333
 cg2d: Sum(rhs),rhsMax =  -2.19557705349871E-12  4.22350168944756E+00
(PID.TID 0000.0001)      cg2d_init_res =   3.41068881617143E-02
(PID.TID 0000.0001)      cg2d_iters(min,last) =      -1      86
(PID.TID 0000.0001)      cg2d_last_res =   8.44229380659984E-10
(PID.TID 0000.0001) // =======================================================
(PID.TID 0000.0001) // Begin MONITOR dynamic field statistics
(PID.TID 0000.0001) // =======================================================
(PID.TID 0000.0001) %MON time_tsnumber                =                 72032
(PID.TID 0000.0001) %MON time_secondsf                =   6.2235648000000E+09
(PID.TID 0000.0001) %MON dynstat_eta_max              =   8.8538631375802E-01
(PID.TID 0000.0001) %MON dynstat_eta_min              =  -1.6018188615923E+00
(PID.TID 0000.0001) %MON dynstat_eta_mean             =   1.4482528371570E-14
(PID.TID 0000.0001) %MON dynstat_eta_sd               =   5.9675299332216E-01
(PID.TID 0000.0001) %MON dynstat_eta_del2             =   8.0009594459386E-04
(PID.TID 0000.0001) %MON dynstat_uvel_max             =   1.7972949593967E-01
(PID.TID 0000.0001) %MON dynstat_uvel_min             =  -2.7265061654866E-01
(PID.TID 0000.0001) %MON dynstat_uvel_mean            =  -4.7397698344812E-04
(PID.TID 0000.0001) %MON dynstat_uvel_sd              =   1.2017365177092E-02
(PID.TID 0000.0001) %MON dynstat_uvel_del2            =   5.1277464937538E-05
(PID.TID 0000.0001) %MON dynstat_vvel_max             =   1.8115673248148E-01
(PID.TID 0000.0001) %MON dynstat_vvel_min             =  -2.2219125947004E-01
(PID.TID 0000.0001) %MON dynstat_vvel_mean            =  -3.9098434131195E-04
(PID.TID 0000.0001) %MON dynstat_vvel_sd              =   1.2599753560366E-02
(PID.TID 0000.0001) %MON dynstat_vvel_del2            =   5.0146424959800E-05
(PID.TID 0000.0001) %MON dynstat_wvel_max             =   1.0841803303506E-04
(PID.TID 0000.0001) %MON dynstat_wvel_min             =  -1.9706454068932E-04
(PID.TID 0000.0001) %MON dynstat_wvel_mean            =  -1.5112596635646E-11
(PID.TID 0000.0001) %MON dynstat_wvel_sd              =   3.7372427807856E-06
(PID.TID 0000.0001) %MON dynstat_wvel_del2            =   2.6523167637067E-08
(PID.TID 0000.0001) %MON dynstat_theta_max            =   3.1234329366926E+01
(PID.TID 0000.0001) %MON dynstat_theta_min            =  -3.6172731543742E+00
(PID.TID 0000.0001) %MON dynstat_theta_mean           =   3.9110589187289E+00
(PID.TID 0000.0001) %MON dynstat_theta_sd             =   4.5751082587604E+00
(PID.TID 0000.0001) %MON dynstat_theta_del2           =   2.7403702429023E-03
(PID.TID 0000.0001) %MON dynstat_salt_max             =   4.1404981396204E+01
(PID.TID 0000.0001) %MON dynstat_salt_min             =   1.8394903230956E+01
(PID.TID 0000.0001) %MON dynstat_salt_mean            =   3.4772088787555E+01
(PID.TID 0000.0001) %MON dynstat_salt_sd              =   5.3138896692227E-01
(PID.TID 0000.0001) %MON dynstat_salt_del2            =   8.2850199538660E-04
(PID.TID 0000.0001) %MON dynstat_sst_max              =   3.1234329366926E+01
(PID.TID 0000.0001) %MON dynstat_sst_min              =  -2.0257364047643E+00
(PID.TID 0000.0001) %MON dynstat_sst_mean             =   1.8258028603407E+01
(PID.TID 0000.0001) %MON dynstat_sst_sd               =   9.7661988821628E+00
(PID.TID 0000.0001) %MON dynstat_sst_del2             =   1.7355908286354E-02
(PID.TID 0000.0001) %MON dynstat_sss_max              =   4.1404981396204E+01
(PID.TID 0000.0001) %MON dynstat_sss_min              =   1.8394903230956E+01
(PID.TID 0000.0001) %MON dynstat_sss_mean             =   3.4621921494878E+01
(PID.TID 0000.0001) %MON dynstat_sss_sd               =   1.4616704587230E+00
(PID.TID 0000.0001) %MON dynstat_sss_del2             =   8.3898104362951E-03
(PID.TID 0000.0001) %MON forcing_qnet_max             =   4.2335548751342E+02
(PID.TID 0000.0001) %MON forcing_qnet_min             =  -1.9299492384389E+02
(PID.TID 0000.0001) %MON forcing_qnet_mean            =  -1.3059880486974E+01
(PID.TID 0000.0001) %MON forcing_qnet_sd              =   9.7701768387528E+01
(PID.TID 0000.0001) %MON forcing_qnet_del2            =   4.2251514825289E-01
(PID.TID 0000.0001) %MON forcing_qsw_max              =   0.0000000000000E+00
(PID.TID 0000.0001) %MON forcing_qsw_min              =   0.0000000000000E+00
(PID.TID 0000.0001) %MON forcing_qsw_mean             =   0.0000000000000E+00
(PID.TID 0000.0001) %MON forcing_qsw_sd               =   0.0000000000000E+00
(PID.TID 0000.0001) %MON forcing_qsw_del2             =   0.0000000000000E+00
(PID.TID 0000.0001) %MON forcing_empmr_max            =   7.6494447208479E-05
(PID.TID 0000.0001) %MON forcing_empmr_min            =  -1.5362614137596E-04
(PID.TID 0000.0001) %MON forcing_empmr_mean           =   4.1932798010144E-22
(PID.TID 0000.0001) %MON forcing_empmr_sd             =   2.4051723601802E-05
(PID.TID 0000.0001) %MON forcing_empmr_del2           =   1.2276157049243E-07
(PID.TID 0000.0001) %MON forcing_fu_max               =   2.4571931631249E-01
(PID.TID 0000.0001) %MON forcing_fu_min               =  -1.9831560109435E-01
(PID.TID 0000.0001) %MON forcing_fu_mean              =  -4.4097556854656E-03
(PID.TID 0000.0001) %MON forcing_fu_sd                =   6.4010404308914E-02
(PID.TID 0000.0001) %MON forcing_fu_del2              =   2.0351143908672E-04
(PID.TID 0000.0001) %MON forcing_fv_max               =   2.8196075682438E-01
(PID.TID 0000.0001) %MON forcing_fv_min               =  -2.8447647742423E-01
(PID.TID 0000.0001) %MON forcing_fv_mean              =  -1.3714744811727E-02
(PID.TID 0000.0001) %MON forcing_fv_sd                =   7.4579158008648E-02
(PID.TID 0000.0001) %MON forcing_fv_del2              =   2.3892987538289E-04
(PID.TID 0000.0001) %MON trAdv_CFL_u_max              =   7.6896617789191E-02
(PID.TID 0000.0001) %MON trAdv_CFL_v_max              =   8.4017241841845E-02
(PID.TID 0000.0001) %MON trAdv_CFL_w_max              =   7.0970259423440E-02
(PID.TID 0000.0001) %MON advcfl_uvel_max              =   7.7328886677273E-02
(PID.TID 0000.0001) %MON advcfl_vvel_max              =   7.8963667513826E-02
(PID.TID 0000.0001) %MON advcfl_wvel_max              =   6.4250476662479E-02
(PID.TID 0000.0001) %MON advcfl_W_hf_max              =   7.0970259423440E-02
(PID.TID 0000.0001) %MON pe_b_mean                    =   4.7440983637192E-04
(PID.TID 0000.0001) %MON ke_max                       =   3.6161108407748E-02
(PID.TID 0000.0001) %MON ke_mean                      =   1.4017101033533E-04
(PID.TID 0000.0001) %MON ke_vol                       =   1.3398024453628E+18
(PID.TID 0000.0001) %MON vort_r_min                   =  -1.3198755004880E-06
(PID.TID 0000.0001) %MON vort_r_max                   =   1.2266135852935E-06
(PID.TID 0000.0001) %MON vort_a_mean                  =  -2.0493733748264E-05
(PID.TID 0000.0001) %MON vort_a_sd                    =   7.5053945727734E-05
(PID.TID 0000.0001) %MON vort_p_mean                  =  -2.4715772646705E-05
(PID.TID 0000.0001) %MON vort_p_sd                    =   1.2777069269519E-04
(PID.TID 0000.0001) %MON surfExpan_theta_mean         =   4.8774445067548E-08
(PID.TID 0000.0001) %MON surfExpan_salt_mean          =   1.5365153195027E-08
(PID.TID 0000.0001) // =======================================================
(PID.TID 0000.0001) // End MONITOR dynamic field statistics
(PID.TID 0000.0001) // =======================================================
 DRIVER_GET_EXPORT_STATE_3D:MASK : Associated & shape =          32          32          15
  Finished plug run method 
 AGCM Date: 2000/04/15  Time: 05:00:00
 
 Writing:     40 Slices (  1 Nodes,  1 PartitionRoot) to File:  TEST.mit_ocn.20000415_0500z.nc4
 
  Starting plug run method 
 EXTERNAL_FIELDS_LOAD,     72032 : iP,iLd,i0,i1=    1    2    1    2 ; Wght=  0.4333333333  0.5666666667
 cg2d: Sum(rhs),rhsMax =  -2.36610731008113E-12  4.22020506673974E+00
(PID.TID 0000.0001)      cg2d_init_res =   3.42383339711168E-02
(PID.TID 0000.0001)      cg2d_iters(min,last) =      -1      86
(PID.TID 0000.0001)      cg2d_last_res =   8.44573552776492E-10
(PID.TID 0000.0001) // =======================================================
(PID.TID 0000.0001) // Begin MONITOR dynamic field statistics
(PID.TID 0000.0001) // =======================================================
(PID.TID 0000.0001) %MON time_tsnumber                =                 72033
(PID.TID 0000.0001) %MON time_secondsf                =   6.2236512000000E+09
(PID.TID 0000.0001) %MON dynstat_eta_max              =   8.8473286579195E-01
(PID.TID 0000.0001) %MON dynstat_eta_min              =  -1.6014229501223E+00
(PID.TID 0000.0001) %MON dynstat_eta_mean             =   1.3960387879995E-14
(PID.TID 0000.0001) %MON dynstat_eta_sd               =   5.9671770816667E-01
(PID.TID 0000.0001) %MON dynstat_eta_del2             =   8.0057968629427E-04
(PID.TID 0000.0001) %MON dynstat_uvel_max             =   1.7912222396235E-01
(PID.TID 0000.0001) %MON dynstat_uvel_min             =  -2.7197789098501E-01
(PID.TID 0000.0001) %MON dynstat_uvel_mean            =  -4.7352827466997E-04
(PID.TID 0000.0001) %MON dynstat_uvel_sd              =   1.2016474967039E-02
(PID.TID 0000.0001) %MON dynstat_uvel_del2            =   5.1304163703788E-05
(PID.TID 0000.0001) %MON dynstat_vvel_max             =   1.8181173249391E-01
(PID.TID 0000.0001) %MON dynstat_vvel_min             =  -2.2228344123027E-01
(PID.TID 0000.0001) %MON dynstat_vvel_mean            =  -3.9038921152891E-04
(PID.TID 0000.0001) %MON dynstat_vvel_sd              =   1.2596628991826E-02
(PID.TID 0000.0001) %MON dynstat_vvel_del2            =   5.0145226853260E-05
(PID.TID 0000.0001) %MON dynstat_wvel_max             =   1.0799683807701E-04
(PID.TID 0000.0001) %MON dynstat_wvel_min             =  -1.9696386885033E-04
(PID.TID 0000.0001) %MON dynstat_wvel_mean            =  -1.0155834118333E-11
(PID.TID 0000.0001) %MON dynstat_wvel_sd              =   3.7314264008357E-06
(PID.TID 0000.0001) %MON dynstat_wvel_del2            =   2.6528924976075E-08
(PID.TID 0000.0001) %MON dynstat_theta_max            =   3.1237415914477E+01
(PID.TID 0000.0001) %MON dynstat_theta_min            =  -3.6377886706275E+00
(PID.TID 0000.0001) %MON dynstat_theta_mean           =   3.9111234243555E+00
(PID.TID 0000.0001) %MON dynstat_theta_sd             =   4.5753564846274E+00
(PID.TID 0000.0001) %MON dynstat_theta_del2           =   2.7433297284847E-03
(PID.TID 0000.0001) %MON dynstat_salt_max             =   4.1405632722796E+01
(PID.TID 0000.0001) %MON dynstat_salt_min             =   1.8395341049767E+01
(PID.TID 0000.0001) %MON dynstat_salt_mean            =   3.4772089688354E+01
(PID.TID 0000.0001) %MON dynstat_salt_sd              =   5.3138538080741E-01
(PID.TID 0000.0001) %MON dynstat_salt_del2            =   8.2889482599006E-04
(PID.TID 0000.0001) %MON dynstat_sst_max              =   3.1237415914477E+01
(PID.TID 0000.0001) %MON dynstat_sst_min              =  -2.0239229383051E+00
(PID.TID 0000.0001) %MON dynstat_sst_mean             =   1.8263696171409E+01
(PID.TID 0000.0001) %MON dynstat_sst_sd               =   9.7682711609733E+00
(PID.TID 0000.0001) %MON dynstat_sst_del2             =   1.7375320897922E-02
(PID.TID 0000.0001) %MON dynstat_sss_max              =   4.1405632722796E+01
(PID.TID 0000.0001) %MON dynstat_sss_min              =   1.8395341049767E+01
(PID.TID 0000.0001) %MON dynstat_sss_mean             =   3.4621727962500E+01
(PID.TID 0000.0001) %MON dynstat_sss_sd               =   1.4614965494237E+00
(PID.TID 0000.0001) %MON dynstat_sss_del2             =   8.3928403678058E-03
(PID.TID 0000.0001) %MON forcing_qnet_max             =   4.2156324588197E+02
(PID.TID 0000.0001) %MON forcing_qnet_min             =  -1.9277430085139E+02
(PID.TID 0000.0001) %MON forcing_qnet_mean            =  -1.3105545022329E+01
(PID.TID 0000.0001) %MON forcing_qnet_sd              =   9.6826091770232E+01
(PID.TID 0000.0001) %MON forcing_qnet_del2            =   4.2210963969975E-01
(PID.TID 0000.0001) %MON forcing_qsw_max              =   0.0000000000000E+00
(PID.TID 0000.0001) %MON forcing_qsw_min              =   0.0000000000000E+00
(PID.TID 0000.0001) %MON forcing_qsw_mean             =   0.0000000000000E+00
(PID.TID 0000.0001) %MON forcing_qsw_sd               =   0.0000000000000E+00
(PID.TID 0000.0001) %MON forcing_qsw_del2             =   0.0000000000000E+00
(PID.TID 0000.0001) %MON forcing_empmr_max            =   7.6494447208479E-05
(PID.TID 0000.0001) %MON forcing_empmr_min            =  -1.5362614137596E-04
(PID.TID 0000.0001) %MON forcing_empmr_mean           =   4.1932798010144E-22
(PID.TID 0000.0001) %MON forcing_empmr_sd             =   2.4051723601802E-05
(PID.TID 0000.0001) %MON forcing_empmr_del2           =   1.2276157049243E-07
(PID.TID 0000.0001) %MON forcing_fu_max               =   2.4756061609419E-01
(PID.TID 0000.0001) %MON forcing_fu_min               =  -2.0074360949620E-01
(PID.TID 0000.0001) %MON forcing_fu_mean              =  -4.4418843765034E-03
(PID.TID 0000.0001) %MON forcing_fu_sd                =   6.4041694156564E-02
(PID.TID 0000.0001) %MON forcing_fu_del2              =   2.0403037912918E-04
(PID.TID 0000.0001) %MON forcing_fv_max               =   2.8215459078535E-01
(PID.TID 0000.0001) %MON forcing_fv_min               =  -2.8103742524545E-01
(PID.TID 0000.0001) %MON forcing_fv_mean              =  -1.3712954818224E-02
(PID.TID 0000.0001) %MON forcing_fv_sd                =   7.4586831696445E-02
(PID.TID 0000.0001) %MON forcing_fv_del2              =   2.3954116926887E-04
(PID.TID 0000.0001) %MON trAdv_CFL_u_max              =   7.6706887001160E-02
(PID.TID 0000.0001) %MON trAdv_CFL_v_max              =   8.4320971941146E-02
(PID.TID 0000.0001) %MON trAdv_CFL_w_max              =   7.0934023409402E-02
(PID.TID 0000.0001) %MON advcfl_uvel_max              =   7.7138088946702E-02
(PID.TID 0000.0001) %MON advcfl_vvel_max              =   7.9249172791465E-02
(PID.TID 0000.0001) %MON advcfl_wvel_max              =   6.4217653844032E-02
(PID.TID 0000.0001) %MON advcfl_W_hf_max              =   7.0934023409402E-02
(PID.TID 0000.0001) %MON pe_b_mean                    =   4.7435373567320E-04
(PID.TID 0000.0001) %MON ke_max                       =   3.5994252539558E-02
(PID.TID 0000.0001) %MON ke_mean                      =   1.4012425197190E-04
(PID.TID 0000.0001) %MON ke_vol                       =   1.3398024453628E+18
(PID.TID 0000.0001) %MON vort_r_min                   =  -1.3212447894436E-06
(PID.TID 0000.0001) %MON vort_r_max                   =   1.2228074416862E-06
(PID.TID 0000.0001) %MON vort_a_mean                  =  -2.0493733748264E-05
(PID.TID 0000.0001) %MON vort_a_sd                    =   7.5053945767436E-05
(PID.TID 0000.0001) %MON vort_p_mean                  =  -2.4715772599234E-05
(PID.TID 0000.0001) %MON vort_p_sd                    =   1.2777068789502E-04
(PID.TID 0000.0001) %MON surfExpan_theta_mean         =   4.8793273667597E-08
(PID.TID 0000.0001) %MON surfExpan_salt_mean          =   1.5352994275753E-08
(PID.TID 0000.0001) // =======================================================
(PID.TID 0000.0001) // End MONITOR dynamic field statistics
(PID.TID 0000.0001) // =======================================================
 DRIVER_GET_EXPORT_STATE_3D:MASK : Associated & shape =          32          32          15
  Finished plug run method 
 AGCM Date: 2000/04/15  Time: 05:15:00
  Starting plug run method 
 EXTERNAL_FIELDS_LOAD,     72033 : iP,iLd,i0,i1=    1    2    1    2 ; Wght=  0.4000000000  0.6000000000
 cg2d: Sum(rhs),rhsMax =  -2.31636931857793E-12  4.21679915066632E+00
(PID.TID 0000.0001)      cg2d_init_res =   3.37556270099961E-02
(PID.TID 0000.0001)      cg2d_iters(min,last) =      -1      86
(PID.TID 0000.0001)      cg2d_last_res =   8.37763080568131E-10
(PID.TID 0000.0001) // =======================================================
(PID.TID 0000.0001) // Begin MONITOR dynamic field statistics
(PID.TID 0000.0001) // =======================================================
(PID.TID 0000.0001) %MON time_tsnumber                =                 72034
(PID.TID 0000.0001) %MON time_secondsf                =   6.2237376000000E+09
(PID.TID 0000.0001) %MON dynstat_eta_max              =   8.8408715738325E-01
(PID.TID 0000.0001) %MON dynstat_eta_min              =  -1.6010464330750E+00
(PID.TID 0000.0001) %MON dynstat_eta_mean             =   1.4510009450074E-14
(PID.TID 0000.0001) %MON dynstat_eta_sd               =   5.9668142746591E-01
(PID.TID 0000.0001) %MON dynstat_eta_del2             =   8.0106519523889E-04
(PID.TID 0000.0001) %MON dynstat_uvel_max             =   1.7851358739690E-01
(PID.TID 0000.0001) %MON dynstat_uvel_min             =  -2.7129746202482E-01
(PID.TID 0000.0001) %MON dynstat_uvel_mean            =  -4.7307487216176E-04
(PID.TID 0000.0001) %MON dynstat_uvel_sd              =   1.2015599024525E-02
(PID.TID 0000.0001) %MON dynstat_uvel_del2            =   5.1330672115691E-05
(PID.TID 0000.0001) %MON dynstat_vvel_max             =   1.8237560270399E-01
(PID.TID 0000.0001) %MON dynstat_vvel_min             =  -2.2237024319937E-01
(PID.TID 0000.0001) %MON dynstat_vvel_mean            =  -3.8978422200190E-04
(PID.TID 0000.0001) %MON dynstat_vvel_sd              =   1.2593737334751E-02
(PID.TID 0000.0001) %MON dynstat_vvel_del2            =   5.0145173982467E-05
(PID.TID 0000.0001) %MON dynstat_wvel_max             =   1.0755844117917E-04
(PID.TID 0000.0001) %MON dynstat_wvel_min             =  -1.9690891575306E-04
(PID.TID 0000.0001) %MON dynstat_wvel_mean            =  -5.6491382016647E-12
(PID.TID 0000.0001) %MON dynstat_wvel_sd              =   3.7256261577878E-06
(PID.TID 0000.0001) %MON dynstat_wvel_del2            =   2.6534468584763E-08
(PID.TID 0000.0001) %MON dynstat_theta_max            =   3.1240034737203E+01
(PID.TID 0000.0001) %MON dynstat_theta_min            =  -3.6582829826378E+00
(PID.TID 0000.0001) %MON dynstat_theta_mean           =   3.9111880775166E+00
(PID.TID 0000.0001) %MON dynstat_theta_sd             =   4.5756102637817E+00
(PID.TID 0000.0001) %MON dynstat_theta_del2           =   2.7455064652773E-03
(PID.TID 0000.0001) %MON dynstat_salt_max             =   4.1406286257007E+01
(PID.TID 0000.0001) %MON dynstat_salt_min             =   1.8395803253710E+01
(PID.TID 0000.0001) %MON dynstat_salt_mean            =   3.4772090603705E+01
(PID.TID 0000.0001) %MON dynstat_salt_sd              =   5.3138138193546E-01
(PID.TID 0000.0001) %MON dynstat_salt_del2            =   8.2915081941857E-04
(PID.TID 0000.0001) %MON dynstat_sst_max              =   3.1240034737203E+01
(PID.TID 0000.0001) %MON dynstat_sst_min              =  -2.0214850325534E+00
(PID.TID 0000.0001) %MON dynstat_sst_mean             =   1.8269406525482E+01
(PID.TID 0000.0001) %MON dynstat_sst_sd               =   9.7705526200760E+00
(PID.TID 0000.0001) %MON dynstat_sst_del2             =   1.7381220308050E-02
(PID.TID 0000.0001) %MON dynstat_sss_max              =   4.1406286257007E+01
(PID.TID 0000.0001) %MON dynstat_sss_min              =   1.8395803253710E+01
(PID.TID 0000.0001) %MON dynstat_sss_mean             =   3.4621551977831E+01
(PID.TID 0000.0001) %MON dynstat_sss_sd               =   1.4613331652116E+00
(PID.TID 0000.0001) %MON dynstat_sss_del2             =   8.3949794060459E-03
(PID.TID 0000.0001) %MON forcing_qnet_max             =   4.1977100425052E+02
(PID.TID 0000.0001) %MON forcing_qnet_min             =  -1.9255367785889E+02
(PID.TID 0000.0001) %MON forcing_qnet_mean            =  -1.3151209557684E+01
(PID.TID 0000.0001) %MON forcing_qnet_sd              =   9.5963926557412E+01
(PID.TID 0000.0001) %MON forcing_qnet_del2            =   4.2181233976833E-01
(PID.TID 0000.0001) %MON forcing_qsw_max              =   0.0000000000000E+00
(PID.TID 0000.0001) %MON forcing_qsw_min              =   0.0000000000000E+00
(PID.TID 0000.0001) %MON forcing_qsw_mean             =   0.0000000000000E+00
(PID.TID 0000.0001) %MON forcing_qsw_sd               =   0.0000000000000E+00
(PID.TID 0000.0001) %MON forcing_qsw_del2             =   0.0000000000000E+00
(PID.TID 0000.0001) %MON forcing_empmr_max            =   7.6494447208479E-05
(PID.TID 0000.0001) %MON forcing_empmr_min            =  -1.5362614137596E-04
(PID.TID 0000.0001) %MON forcing_empmr_mean           =   4.1932798010144E-22
(PID.TID 0000.0001) %MON forcing_empmr_sd             =   2.4051723601802E-05
(PID.TID 0000.0001) %MON forcing_empmr_del2           =   1.2276157049243E-07
(PID.TID 0000.0001) %MON forcing_fu_max               =   2.4940191587590E-01
(PID.TID 0000.0001) %MON forcing_fu_min               =  -2.0371197159644E-01
(PID.TID 0000.0001) %MON forcing_fu_mean              =  -4.4740130675412E-03
(PID.TID 0000.0001) %MON forcing_fu_sd                =   6.4087567626902E-02
(PID.TID 0000.0001) %MON forcing_fu_del2              =   2.0482450990293E-04
(PID.TID 0000.0001) %MON forcing_fv_max               =   2.8234842474632E-01
(PID.TID 0000.0001) %MON forcing_fv_min               =  -2.7759837306666E-01
(PID.TID 0000.0001) %MON forcing_fv_mean              =  -1.3711164824722E-02
(PID.TID 0000.0001) %MON forcing_fv_sd                =   7.4612099309537E-02
(PID.TID 0000.0001) %MON forcing_fv_del2              =   2.4035742746409E-04
(PID.TID 0000.0001) %MON trAdv_CFL_u_max              =   7.6514983507812E-02
(PID.TID 0000.0001) %MON trAdv_CFL_v_max              =   8.4582437917088E-02
(PID.TID 0000.0001) %MON trAdv_CFL_w_max              =   7.0914251517647E-02
(PID.TID 0000.0001) %MON advcfl_uvel_max              =   7.6945106386748E-02
(PID.TID 0000.0001) %MON advcfl_vvel_max              =   7.9494955872117E-02
(PID.TID 0000.0001) %MON advcfl_wvel_max              =   6.4199737060619E-02
(PID.TID 0000.0001) %MON advcfl_W_hf_max              =   7.0914251517647E-02
(PID.TID 0000.0001) %MON pe_b_mean                    =   4.7429605559258E-04
(PID.TID 0000.0001) %MON ke_max                       =   3.5826622559579E-02
(PID.TID 0000.0001) %MON ke_mean                      =   1.4008037649725E-04
(PID.TID 0000.0001) %MON ke_vol                       =   1.3398024453628E+18
(PID.TID 0000.0001) %MON vort_r_min                   =  -1.3224513759474E-06
(PID.TID 0000.0001) %MON vort_r_max                   =   1.2188183204878E-06
(PID.TID 0000.0001) %MON vort_a_mean                  =  -2.0493733748264E-05
(PID.TID 0000.0001) %MON vort_a_sd                    =   7.5053945815813E-05
(PID.TID 0000.0001) %MON vort_p_mean                  =  -2.4715772553039E-05
(PID.TID 0000.0001) %MON vort_p_sd                    =   1.2777068260453E-04
(PID.TID 0000.0001) %MON surfExpan_theta_mean         =   4.8805803803209E-08
(PID.TID 0000.0001) %MON surfExpan_salt_mean          =   1.5335941974063E-08
(PID.TID 0000.0001) // =======================================================
(PID.TID 0000.0001) // End MONITOR dynamic field statistics
(PID.TID 0000.0001) // =======================================================
 DRIVER_GET_EXPORT_STATE_3D:MASK : Associated & shape =          32          32          15
  Finished plug run method 
 AGCM Date: 2000/04/15  Time: 05:30:00
  Starting plug run method 
 EXTERNAL_FIELDS_LOAD,     72034 : iP,iLd,i0,i1=    1    2    1    2 ; Wght=  0.3666666667  0.6333333333
 cg2d: Sum(rhs),rhsMax =  -2.30215846386272E-12  4.21331291786091E+00
(PID.TID 0000.0001)      cg2d_init_res =   3.35117872190609E-02
(PID.TID 0000.0001)      cg2d_iters(min,last) =      -1      86
(PID.TID 0000.0001)      cg2d_last_res =   8.32924676244719E-10
(PID.TID 0000.0001) // =======================================================
(PID.TID 0000.0001) // Begin MONITOR dynamic field statistics
(PID.TID 0000.0001) // =======================================================
(PID.TID 0000.0001) %MON time_tsnumber                =                 72035
(PID.TID 0000.0001) %MON time_secondsf                =   6.2238240000000E+09
(PID.TID 0000.0001) %MON dynstat_eta_max              =   8.8344720447539E-01
(PID.TID 0000.0001) %MON dynstat_eta_min              =  -1.6006882166375E+00
(PID.TID 0000.0001) %MON dynstat_eta_mean             =   1.3932906801492E-14
(PID.TID 0000.0001) %MON dynstat_eta_sd               =   5.9664405832641E-01
(PID.TID 0000.0001) %MON dynstat_eta_del2             =   8.0154865328241E-04
(PID.TID 0000.0001) %MON dynstat_uvel_max             =   1.7790810217518E-01
(PID.TID 0000.0001) %MON dynstat_uvel_min             =  -2.7060987825562E-01
(PID.TID 0000.0001) %MON dynstat_uvel_mean            =  -4.7261458026132E-04
(PID.TID 0000.0001) %MON dynstat_uvel_sd              =   1.2014744005895E-02
(PID.TID 0000.0001) %MON dynstat_uvel_del2            =   5.1356779871175E-05
(PID.TID 0000.0001) %MON dynstat_vvel_max             =   1.8284537798019E-01
(PID.TID 0000.0001) %MON dynstat_vvel_min             =  -2.2245194723788E-01
(PID.TID 0000.0001) %MON dynstat_vvel_mean            =  -3.8917075628362E-04
(PID.TID 0000.0001) %MON dynstat_vvel_sd              =   1.2591088312830E-02
(PID.TID 0000.0001) %MON dynstat_vvel_del2            =   5.0146355640669E-05
(PID.TID 0000.0001) %MON dynstat_wvel_max             =   1.0711066085287E-04
(PID.TID 0000.0001) %MON dynstat_wvel_min             =  -1.9689894729248E-04
(PID.TID 0000.0001) %MON dynstat_wvel_mean            =  -1.3187048032875E-12
(PID.TID 0000.0001) %MON dynstat_wvel_sd              =   3.7198869316938E-06
(PID.TID 0000.0001) %MON dynstat_wvel_del2            =   2.6539419848861E-08
(PID.TID 0000.0001) %MON dynstat_theta_max            =   3.1242200487829E+01
(PID.TID 0000.0001) %MON dynstat_theta_min            =  -3.6787464140648E+00
(PID.TID 0000.0001) %MON dynstat_theta_mean           =   3.9112528716340E+00
(PID.TID 0000.0001) %MON dynstat_theta_sd             =   4.5758673630004E+00
(PID.TID 0000.0001) %MON dynstat_theta_del2           =   2.7470353577573E-03
(PID.TID 0000.0001) %MON dynstat_salt_max             =   4.1406941483925E+01
(PID.TID 0000.0001) %MON dynstat_salt_min             =   1.8396303458135E+01
(PID.TID 0000.0001) %MON dynstat_salt_mean            =   3.4772091533362E+01
(PID.TID 0000.0001) %MON dynstat_salt_sd              =   5.3137602463473E-01
(PID.TID 0000.0001) %MON dynstat_salt_del2            =   8.2949200161891E-04
(PID.TID 0000.0001) %MON dynstat_sst_max              =   3.1242200487829E+01
(PID.TID 0000.0001) %MON dynstat_sst_min              =  -2.0187095531683E+00
(PID.TID 0000.0001) %MON dynstat_sst_mean             =   1.8275390963213E+01
(PID.TID 0000.0001) %MON dynstat_sst_sd               =   9.7728207028912E+00
(PID.TID 0000.0001) %MON dynstat_sst_del2             =   1.7383211837055E-02
(PID.TID 0000.0001) %MON dynstat_sss_max              =   4.1406941483925E+01
(PID.TID 0000.0001) %MON dynstat_sss_min              =   1.8396303458135E+01
(PID.TID 0000.0001) %MON dynstat_sss_mean             =   3.4621450872590E+01
(PID.TID 0000.0001) %MON dynstat_sss_sd               =   1.4611860779503E+00
(PID.TID 0000.0001) %MON dynstat_sss_del2             =   8.3977294844560E-03
(PID.TID 0000.0001) %MON forcing_qnet_max             =   4.1797876261907E+02
(PID.TID 0000.0001) %MON forcing_qnet_min             =  -1.9233305486639E+02
(PID.TID 0000.0001) %MON forcing_qnet_mean            =  -1.3196874093039E+01
(PID.TID 0000.0001) %MON forcing_qnet_sd              =   9.5115640167677E+01
(PID.TID 0000.0001) %MON forcing_qnet_del2            =   4.2162347736257E-01
(PID.TID 0000.0001) %MON forcing_qsw_max              =   0.0000000000000E+00
(PID.TID 0000.0001) %MON forcing_qsw_min              =   0.0000000000000E+00
(PID.TID 0000.0001) %MON forcing_qsw_mean             =   0.0000000000000E+00
(PID.TID 0000.0001) %MON forcing_qsw_sd               =   0.0000000000000E+00
(PID.TID 0000.0001) %MON forcing_qsw_del2             =   0.0000000000000E+00
(PID.TID 0000.0001) %MON forcing_empmr_max            =   7.6494447208479E-05
(PID.TID 0000.0001) %MON forcing_empmr_min            =  -1.5362614137596E-04
(PID.TID 0000.0001) %MON forcing_empmr_mean           =   4.1932798010144E-22
(PID.TID 0000.0001) %MON forcing_empmr_sd             =   2.4051723601802E-05
(PID.TID 0000.0001) %MON forcing_empmr_del2           =   1.2276157049243E-07
(PID.TID 0000.0001) %MON forcing_fu_max               =   2.5124321565760E-01
(PID.TID 0000.0001) %MON forcing_fu_min               =  -2.0668033369668E-01
(PID.TID 0000.0001) %MON forcing_fu_mean              =  -4.5061417585790E-03
(PID.TID 0000.0001) %MON forcing_fu_sd                =   6.4147993432845E-02
(PID.TID 0000.0001) %MON forcing_fu_del2              =   2.0589064715836E-04
(PID.TID 0000.0001) %MON forcing_fv_max               =   2.8254225870730E-01
(PID.TID 0000.0001) %MON forcing_fv_min               =  -2.7752121532142E-01
(PID.TID 0000.0001) %MON forcing_fv_mean              =  -1.3709374831219E-02
(PID.TID 0000.0001) %MON forcing_fv_sd                =   7.4654942983476E-02
(PID.TID 0000.0001) %MON forcing_fv_del2              =   2.4137657060670E-04
(PID.TID 0000.0001) %MON trAdv_CFL_u_max              =   7.6321062024938E-02
(PID.TID 0000.0001) %MON trAdv_CFL_v_max              =   8.4800264680746E-02
(PID.TID 0000.0001) %MON trAdv_CFL_w_max              =   7.0910679274445E-02
(PID.TID 0000.0001) %MON advcfl_uvel_max              =   7.6750094587242E-02
(PID.TID 0000.0001) %MON advcfl_vvel_max              =   7.9699724296716E-02
(PID.TID 0000.0001) %MON advcfl_wvel_max              =   6.4196486966302E-02
(PID.TID 0000.0001) %MON advcfl_W_hf_max              =   7.0910679274445E-02
(PID.TID 0000.0001) %MON pe_b_mean                    =   4.7423664874786E-04
(PID.TID 0000.0001) %MON ke_max                       =   3.5698896312584E-02
(PID.TID 0000.0001) %MON ke_mean                      =   1.4003956864863E-04
(PID.TID 0000.0001) %MON ke_vol                       =   1.3398024453628E+18
(PID.TID 0000.0001) %MON vort_r_min                   =  -1.3235149317200E-06
(PID.TID 0000.0001) %MON vort_r_max                   =   1.2146774438150E-06
(PID.TID 0000.0001) %MON vort_a_mean                  =  -2.0493733748264E-05
(PID.TID 0000.0001) %MON vort_a_sd                    =   7.5053945873140E-05
(PID.TID 0000.0001) %MON vort_p_mean                  =  -2.4715772507939E-05
(PID.TID 0000.0001) %MON vort_p_sd                    =   1.2777067684001E-04
(PID.TID 0000.0001) %MON surfExpan_theta_mean         =   4.8813834112248E-08
(PID.TID 0000.0001) %MON surfExpan_salt_mean          =   1.5311582166336E-08
(PID.TID 0000.0001) // =======================================================
(PID.TID 0000.0001) // End MONITOR dynamic field statistics
(PID.TID 0000.0001) // =======================================================
 DRIVER_GET_EXPORT_STATE_3D:MASK : Associated & shape =          32          32          15
  Finished plug run method 
 AGCM Date: 2000/04/15  Time: 05:45:00
  Starting plug run method 
 EXTERNAL_FIELDS_LOAD,     72035 : iP,iLd,i0,i1=    1    2    1    2 ; Wght=  0.3333333333  0.6666666667
 cg2d: Sum(rhs),rhsMax =  -2.20978790821391E-12  4.20977848321525E+00
(PID.TID 0000.0001)      cg2d_init_res =   3.56104855770025E-02
(PID.TID 0000.0001)      cg2d_iters(min,last) =      -1      86
(PID.TID 0000.0001)      cg2d_last_res =   8.80997596525028E-10
(PID.TID 0000.0001) // =======================================================
(PID.TID 0000.0001) // Begin MONITOR dynamic field statistics
(PID.TID 0000.0001) // =======================================================
(PID.TID 0000.0001) %MON time_tsnumber                =                 72036
(PID.TID 0000.0001) %MON time_secondsf                =   6.2239104000000E+09
(PID.TID 0000.0001) %MON dynstat_eta_max              =   8.8281121281247E-01
(PID.TID 0000.0001) %MON dynstat_eta_min              =  -1.6003491460698E+00
(PID.TID 0000.0001) %MON dynstat_eta_mean             =   1.4207717586531E-14
(PID.TID 0000.0001) %MON dynstat_eta_sd               =   5.9660551400574E-01
(PID.TID 0000.0001) %MON dynstat_eta_del2             =   8.0202719890935E-04
(PID.TID 0000.0001) %MON dynstat_uvel_max             =   1.7730993496455E-01
(PID.TID 0000.0001) %MON dynstat_uvel_min             =  -2.6991570293468E-01
(PID.TID 0000.0001) %MON dynstat_uvel_mean            =  -4.7214615853325E-04
(PID.TID 0000.0001) %MON dynstat_uvel_sd              =   1.2013907266445E-02
(PID.TID 0000.0001) %MON dynstat_uvel_del2            =   5.1382309169322E-05
(PID.TID 0000.0001) %MON dynstat_vvel_max             =   1.8321873312284E-01
(PID.TID 0000.0001) %MON dynstat_vvel_min             =  -2.2252881953000E-01
(PID.TID 0000.0001) %MON dynstat_vvel_mean            =  -3.8855024400296E-04
(PID.TID 0000.0001) %MON dynstat_vvel_sd              =   1.2588690764169E-02
(PID.TID 0000.0001) %MON dynstat_vvel_del2            =   5.0148760496145E-05
(PID.TID 0000.0001) %MON dynstat_wvel_max             =   1.0666137050102E-04
(PID.TID 0000.0001) %MON dynstat_wvel_min             =  -1.9693243655769E-04
(PID.TID 0000.0001) %MON dynstat_wvel_mean            =   3.2259530846565E-12
(PID.TID 0000.0001) %MON dynstat_wvel_sd              =   3.7142549976775E-06
(PID.TID 0000.0001) %MON dynstat_wvel_del2            =   2.6543938627265E-08
(PID.TID 0000.0001) %MON dynstat_theta_max            =   3.1243926458282E+01
(PID.TID 0000.0001) %MON dynstat_theta_min            =  -3.6991354151631E+00
(PID.TID 0000.0001) %MON dynstat_theta_mean           =   3.9113178094539E+00
(PID.TID 0000.0001) %MON dynstat_theta_sd             =   4.5761292138106E+00
(PID.TID 0000.0001) %MON dynstat_theta_del2           =   2.7510451927906E-03
(PID.TID 0000.0001) %MON dynstat_salt_max             =   4.1407597933872E+01
(PID.TID 0000.0001) %MON dynstat_salt_min             =   1.8396822257441E+01
(PID.TID 0000.0001) %MON dynstat_salt_mean            =   3.4772092475949E+01
(PID.TID 0000.0001) %MON dynstat_salt_sd              =   5.3137055634871E-01
(PID.TID 0000.0001) %MON dynstat_salt_del2            =   8.3061700803261E-04
(PID.TID 0000.0001) %MON dynstat_sst_max              =   3.1243926458282E+01
(PID.TID 0000.0001) %MON dynstat_sst_min              =  -2.0170683074282E+00
(PID.TID 0000.0001) %MON dynstat_sst_mean             =   1.8281627767025E+01
(PID.TID 0000.0001) %MON dynstat_sst_sd               =   9.7750917870728E+00
(PID.TID 0000.0001) %MON dynstat_sst_del2             =   1.7419650678105E-02
(PID.TID 0000.0001) %MON dynstat_sss_max              =   4.1407597933872E+01
(PID.TID 0000.0001) %MON dynstat_sss_min              =   1.8396822257441E+01
(PID.TID 0000.0001) %MON dynstat_sss_mean             =   3.4621415318069E+01
(PID.TID 0000.0001) %MON dynstat_sss_sd               =   1.4610552145796E+00
(PID.TID 0000.0001) %MON dynstat_sss_del2             =   8.4074563249168E-03
(PID.TID 0000.0001) %MON forcing_qnet_max             =   4.1618652098762E+02
(PID.TID 0000.0001) %MON forcing_qnet_min             =  -1.9211243187389E+02
(PID.TID 0000.0001) %MON forcing_qnet_mean            =  -1.3242538628394E+01
(PID.TID 0000.0001) %MON forcing_qnet_sd              =   9.4281607220441E+01
(PID.TID 0000.0001) %MON forcing_qnet_del2            =   4.2154319823105E-01
(PID.TID 0000.0001) %MON forcing_qsw_max              =   0.0000000000000E+00
(PID.TID 0000.0001) %MON forcing_qsw_min              =   0.0000000000000E+00
(PID.TID 0000.0001) %MON forcing_qsw_mean             =   0.0000000000000E+00
(PID.TID 0000.0001) %MON forcing_qsw_sd               =   0.0000000000000E+00
(PID.TID 0000.0001) %MON forcing_qsw_del2             =   0.0000000000000E+00
(PID.TID 0000.0001) %MON forcing_empmr_max            =   7.6494447208479E-05
(PID.TID 0000.0001) %MON forcing_empmr_min            =  -1.5362614137596E-04
(PID.TID 0000.0001) %MON forcing_empmr_mean           =   4.1932798010144E-22
(PID.TID 0000.0001) %MON forcing_empmr_sd             =   2.4051723601802E-05
(PID.TID 0000.0001) %MON forcing_empmr_del2           =   1.2276157049243E-07
(PID.TID 0000.0001) %MON forcing_fu_max               =   2.5308451543930E-01
(PID.TID 0000.0001) %MON forcing_fu_min               =  -2.0964869579692E-01
(PID.TID 0000.0001) %MON forcing_fu_mean              =  -4.5382704496167E-03
(PID.TID 0000.0001) %MON forcing_fu_sd                =   6.4222930498580E-02
(PID.TID 0000.0001) %MON forcing_fu_del2              =   2.0722459264897E-04
(PID.TID 0000.0001) %MON forcing_fv_max               =   2.8273609266827E-01
(PID.TID 0000.0001) %MON forcing_fv_min               =  -2.8035111742518E-01
(PID.TID 0000.0001) %MON forcing_fv_mean              =  -1.3707584837717E-02
(PID.TID 0000.0001) %MON forcing_fv_sd                =   7.4715332482588E-02
(PID.TID 0000.0001) %MON forcing_fv_del2              =   2.4259604175830E-04
(PID.TID 0000.0001) %MON trAdv_CFL_u_max              =   7.6125281405869E-02
(PID.TID 0000.0001) %MON trAdv_CFL_v_max              =   8.4973373938310E-02
(PID.TID 0000.0001) %MON trAdv_CFL_w_max              =   7.0922756830726E-02
(PID.TID 0000.0001) %MON advcfl_uvel_max              =   7.6553213298628E-02
(PID.TID 0000.0001) %MON advcfl_vvel_max              =   7.9862464543491E-02
(PID.TID 0000.0001) %MON advcfl_wvel_max              =   6.4207405730507E-02
(PID.TID 0000.0001) %MON advcfl_W_hf_max              =   7.0922756830726E-02
(PID.TID 0000.0001) %MON pe_b_mean                    =   4.7417537758032E-04
(PID.TID 0000.0001) %MON ke_max                       =   3.5669636704822E-02
(PID.TID 0000.0001) %MON ke_mean                      =   1.4000190063961E-04
(PID.TID 0000.0001) %MON ke_vol                       =   1.3398024453628E+18
(PID.TID 0000.0001) %MON vort_r_min                   =  -1.3244559715322E-06
(PID.TID 0000.0001) %MON vort_r_max                   =   1.2104162027297E-06
(PID.TID 0000.0001) %MON vort_a_mean                  =  -2.0493733748264E-05
(PID.TID 0000.0001) %MON vort_a_sd                    =   7.5053945939803E-05
(PID.TID 0000.0001) %MON vort_p_mean                  =  -2.4715772464088E-05
(PID.TID 0000.0001) %MON vort_p_sd                    =   1.2777067062478E-04
(PID.TID 0000.0001) %MON surfExpan_theta_mean         =   4.8832380760036E-08
(PID.TID 0000.0001) %MON surfExpan_salt_mean          =   1.5278922010233E-08
(PID.TID 0000.0001) // =======================================================
(PID.TID 0000.0001) // End MONITOR dynamic field statistics
(PID.TID 0000.0001) // =======================================================
 DRIVER_GET_EXPORT_STATE_3D:MASK : Associated & shape =          32          32          15
  Finished plug run method 
 AGCM Date: 2000/04/15  Time: 06:00:00
 
 Writing:    483 Slices (  1 Nodes,  1 PartitionRoot) to File:  TEST.geosgcm_prog.20000415_0600z.nc4
 Writing:    147 Slices (  1 Nodes,  1 PartitionRoot) to File:  TEST.geosgcm_surf.20000415_0430z.nc4
 Writing:     40 Slices (  1 Nodes,  1 PartitionRoot) to File:  TEST.mit_ocn.20000415_0600z.nc4
 
  Starting plug run method 
 EXTERNAL_FIELDS_LOAD,     72036 : iP,iLd,i0,i1=    1    2    1    2 ; Wght=  0.3000000000  0.7000000000
 cg2d: Sum(rhs),rhsMax =  -2.29505303650512E-12  4.20623049984806E+00
(PID.TID 0000.0001)      cg2d_init_res =   3.57768928560166E-02
(PID.TID 0000.0001)      cg2d_iters(min,last) =      -1      86
(PID.TID 0000.0001)      cg2d_last_res =   8.82448659565893E-10
(PID.TID 0000.0001) // =======================================================
(PID.TID 0000.0001) // Begin MONITOR dynamic field statistics
(PID.TID 0000.0001) // =======================================================
(PID.TID 0000.0001) %MON time_tsnumber                =                 72037
(PID.TID 0000.0001) %MON time_secondsf                =   6.2239968000000E+09
(PID.TID 0000.0001) %MON dynstat_eta_max              =   8.8217768289548E-01
(PID.TID 0000.0001) %MON dynstat_eta_min              =  -1.6000294488883E+00
(PID.TID 0000.0001) %MON dynstat_eta_mean             =   1.4427566214562E-14
(PID.TID 0000.0001) %MON dynstat_eta_sd               =   5.9656586786957E-01
(PID.TID 0000.0001) %MON dynstat_eta_del2             =   8.0251077073676E-04
(PID.TID 0000.0001) %MON dynstat_uvel_max             =   1.7672286488488E-01
(PID.TID 0000.0001) %MON dynstat_uvel_min             =  -2.6921551537655E-01
(PID.TID 0000.0001) %MON dynstat_uvel_mean            =  -4.7166961184623E-04
(PID.TID 0000.0001) %MON dynstat_uvel_sd              =   1.2013075003870E-02
(PID.TID 0000.0001) %MON dynstat_uvel_del2            =   5.1407004842279E-05
(PID.TID 0000.0001) %MON dynstat_vvel_max             =   1.8349402714484E-01
(PID.TID 0000.0001) %MON dynstat_vvel_min             =  -2.2260110890175E-01
(PID.TID 0000.0001) %MON dynstat_vvel_mean            =  -3.8792362686052E-04
(PID.TID 0000.0001) %MON dynstat_vvel_sd              =   1.2586554914656E-02
(PID.TID 0000.0001) %MON dynstat_vvel_del2            =   5.0152372445285E-05
(PID.TID 0000.0001) %MON dynstat_wvel_max             =   1.0621843156701E-04
(PID.TID 0000.0001) %MON dynstat_wvel_min             =  -1.9700726471065E-04
(PID.TID 0000.0001) %MON dynstat_wvel_mean            =   7.2869393401928E-12
(PID.TID 0000.0001) %MON dynstat_wvel_sd              =   3.7087606570170E-06
(PID.TID 0000.0001) %MON dynstat_wvel_del2            =   2.6547333268853E-08
(PID.TID 0000.0001) %MON dynstat_theta_max            =   3.1245224547550E+01
(PID.TID 0000.0001) %MON dynstat_theta_min            =  -3.7194431219524E+00
(PID.TID 0000.0001) %MON dynstat_theta_mean           =   3.9113827704150E+00
(PID.TID 0000.0001) %MON dynstat_theta_sd             =   4.5763937700399E+00
(PID.TID 0000.0001) %MON dynstat_theta_del2           =   2.7485447048553E-03
(PID.TID 0000.0001) %MON dynstat_salt_max             =   4.1408255170862E+01
(PID.TID 0000.0001) %MON dynstat_salt_min             =   1.8396830793928E+01
(PID.TID 0000.0001) %MON dynstat_salt_mean            =   3.4772093430276E+01
(PID.TID 0000.0001) %MON dynstat_salt_sd              =   5.3136502034148E-01
(PID.TID 0000.0001) %MON dynstat_salt_del2            =   8.3098723344676E-04
(PID.TID 0000.0001) %MON dynstat_sst_max              =   3.1245224547550E+01
(PID.TID 0000.0001) %MON dynstat_sst_min              =  -2.0145502986234E+00
(PID.TID 0000.0001) %MON dynstat_sst_mean             =   1.8287759377114E+01
(PID.TID 0000.0001) %MON dynstat_sst_sd               =   9.7774060881859E+00
(PID.TID 0000.0001) %MON dynstat_sst_del2             =   1.7365972637405E-02
(PID.TID 0000.0001) %MON dynstat_sss_max              =   4.1408255170862E+01
(PID.TID 0000.0001) %MON dynstat_sss_min              =   1.8396830793928E+01
(PID.TID 0000.0001) %MON dynstat_sss_mean             =   3.4621339552688E+01
(PID.TID 0000.0001) %MON dynstat_sss_sd               =   1.4608640184250E+00
(PID.TID 0000.0001) %MON dynstat_sss_del2             =   8.4105503316235E-03
(PID.TID 0000.0001) %MON forcing_qnet_max             =   4.1439427935617E+02
(PID.TID 0000.0001) %MON forcing_qnet_min             =  -1.9189180888139E+02
(PID.TID 0000.0001) %MON forcing_qnet_mean            =  -1.3288203163750E+01
(PID.TID 0000.0001) %MON forcing_qnet_sd              =   9.3462209298752E+01
(PID.TID 0000.0001) %MON forcing_qnet_del2            =   4.2157156440576E-01
(PID.TID 0000.0001) %MON forcing_qsw_max              =   0.0000000000000E+00
(PID.TID 0000.0001) %MON forcing_qsw_min              =   0.0000000000000E+00
(PID.TID 0000.0001) %MON forcing_qsw_mean             =   0.0000000000000E+00
(PID.TID 0000.0001) %MON forcing_qsw_sd               =   0.0000000000000E+00
(PID.TID 0000.0001) %MON forcing_qsw_del2             =   0.0000000000000E+00
(PID.TID 0000.0001) %MON forcing_empmr_max            =   7.6494447208479E-05
(PID.TID 0000.0001) %MON forcing_empmr_min            =  -1.5362614137596E-04
(PID.TID 0000.0001) %MON forcing_empmr_mean           =   4.1932798010144E-22
(PID.TID 0000.0001) %MON forcing_empmr_sd             =   2.4051723601802E-05
(PID.TID 0000.0001) %MON forcing_empmr_del2           =   1.2276157049243E-07
(PID.TID 0000.0001) %MON forcing_fu_max               =   2.5492581522100E-01
(PID.TID 0000.0001) %MON forcing_fu_min               =  -2.1261705789716E-01
(PID.TID 0000.0001) %MON forcing_fu_mean              =  -4.5703991406545E-03
(PID.TID 0000.0001) %MON forcing_fu_sd                =   6.4312328098338E-02
(PID.TID 0000.0001) %MON forcing_fu_del2              =   2.0882121417784E-04
(PID.TID 0000.0001) %MON forcing_fv_max               =   2.8292992662924E-01
(PID.TID 0000.0001) %MON forcing_fv_min               =  -2.8318101952894E-01
(PID.TID 0000.0001) %MON forcing_fv_mean              =  -1.3705794844214E-02
(PID.TID 0000.0001) %MON forcing_fv_sd                =   7.4793225306365E-02
(PID.TID 0000.0001) %MON forcing_fv_del2              =   2.4401283747783E-04
(PID.TID 0000.0001) %MON trAdv_CFL_u_max              =   7.5927805033063E-02
(PID.TID 0000.0001) %MON trAdv_CFL_v_max              =   8.5101004744240E-02
(PID.TID 0000.0001) %MON trAdv_CFL_w_max              =   7.0949720963847E-02
(PID.TID 0000.0001) %MON advcfl_uvel_max              =   7.6354626825507E-02
(PID.TID 0000.0001) %MON advcfl_vvel_max              =   7.9982461329277E-02
(PID.TID 0000.0001) %MON advcfl_wvel_max              =   6.4231802532076E-02
(PID.TID 0000.0001) %MON advcfl_W_hf_max              =   7.0949720963848E-02
(PID.TID 0000.0001) %MON pe_b_mean                    =   4.7411235906468E-04
(PID.TID 0000.0001) %MON ke_max                       =   3.5639702151082E-02
(PID.TID 0000.0001) %MON ke_mean                      =   1.3996733821344E-04
(PID.TID 0000.0001) %MON ke_vol                       =   1.3398024453628E+18
(PID.TID 0000.0001) %MON vort_r_min                   =  -1.3252956357572E-06
(PID.TID 0000.0001) %MON vort_r_max                   =   1.2060680865181E-06
(PID.TID 0000.0001) %MON vort_a_mean                  =  -2.0493733748264E-05
(PID.TID 0000.0001) %MON vort_a_sd                    =   7.5053946016385E-05
(PID.TID 0000.0001) %MON vort_p_mean                  =  -2.4715772421652E-05
(PID.TID 0000.0001) %MON vort_p_sd                    =   1.2777066399039E-04
(PID.TID 0000.0001) %MON surfExpan_theta_mean         =   4.8867279411997E-08
(PID.TID 0000.0001) %MON surfExpan_salt_mean          =   1.5236960802622E-08
(PID.TID 0000.0001) // =======================================================
(PID.TID 0000.0001) // End MONITOR dynamic field statistics
(PID.TID 0000.0001) // =======================================================
 DRIVER_GET_EXPORT_STATE_3D:MASK : Associated & shape =          32          32          15
  Finished plug run method 
 AGCM Date: 2000/04/15  Time: 06:15:00
  Starting plug run method 
 EXTERNAL_FIELDS_LOAD,     72037 : iP,iLd,i0,i1=    1    2    1    2 ; Wght=  0.2666666667  0.7333333333
 cg2d: Sum(rhs),rhsMax =  -2.22399876292911E-12  4.20270557413576E+00
(PID.TID 0000.0001)      cg2d_init_res =   3.81136282262638E-02
(PID.TID 0000.0001)      cg2d_iters(min,last) =      -1      86
(PID.TID 0000.0001)      cg2d_last_res =   9.00941530056341E-10
(PID.TID 0000.0001) // =======================================================
(PID.TID 0000.0001) // Begin MONITOR dynamic field statistics
(PID.TID 0000.0001) // =======================================================
(PID.TID 0000.0001) %MON time_tsnumber                =                 72038
(PID.TID 0000.0001) %MON time_secondsf                =   6.2240832000000E+09
(PID.TID 0000.0001) %MON dynstat_eta_max              =   8.8154764077488E-01
(PID.TID 0000.0001) %MON dynstat_eta_min              =  -1.5997291740056E+00
(PID.TID 0000.0001) %MON dynstat_eta_mean             =   1.4262679743539E-14
(PID.TID 0000.0001) %MON dynstat_eta_sd               =   5.9652551943683E-01
(PID.TID 0000.0001) %MON dynstat_eta_del2             =   8.0300922652074E-04
(PID.TID 0000.0001) %MON dynstat_uvel_max             =   1.7615025261342E-01
(PID.TID 0000.0001) %MON dynstat_uvel_min             =  -2.6850991334193E-01
(PID.TID 0000.0001) %MON dynstat_uvel_mean            =  -4.7118277910975E-04
(PID.TID 0000.0001) %MON dynstat_uvel_sd              =   1.2012223279891E-02
(PID.TID 0000.0001) %MON dynstat_uvel_del2            =   5.1430215792067E-05
(PID.TID 0000.0001) %MON dynstat_vvel_max             =   1.8367021877950E-01
(PID.TID 0000.0001) %MON dynstat_vvel_min             =  -2.2266904459267E-01
(PID.TID 0000.0001) %MON dynstat_vvel_mean            =  -3.8728972172186E-04
(PID.TID 0000.0001) %MON dynstat_vvel_sd              =   1.2584689281764E-02
(PID.TID 0000.0001) %MON dynstat_vvel_del2            =   5.0156650763590E-05
(PID.TID 0000.0001) %MON dynstat_wvel_max             =   1.0578955498621E-04
(PID.TID 0000.0001) %MON dynstat_wvel_min             =  -1.9712081661328E-04
(PID.TID 0000.0001) %MON dynstat_wvel_mean            =   8.6092490499264E-12
(PID.TID 0000.0001) %MON dynstat_wvel_sd              =   3.7034153708383E-06
(PID.TID 0000.0001) %MON dynstat_wvel_del2            =   2.6547293946479E-08
(PID.TID 0000.0001) %MON dynstat_theta_max            =   3.1246105265974E+01
(PID.TID 0000.0001) %MON dynstat_theta_min            =  -3.7396179270134E+00
(PID.TID 0000.0001) %MON dynstat_theta_mean           =   3.9114477793347E+00
(PID.TID 0000.0001) %MON dynstat_theta_sd             =   4.5766627244844E+00
(PID.TID 0000.0001) %MON dynstat_theta_del2           =   2.7532230661127E-03
(PID.TID 0000.0001) %MON dynstat_salt_max             =   4.1408912785097E+01
(PID.TID 0000.0001) %MON dynstat_salt_min             =   1.8396865028814E+01
(PID.TID 0000.0001) %MON dynstat_salt_mean            =   3.4772094396941E+01
(PID.TID 0000.0001) %MON dynstat_salt_sd              =   5.3135926308953E-01
(PID.TID 0000.0001) %MON dynstat_salt_del2            =   8.3193602055354E-04
(PID.TID 0000.0001) %MON dynstat_sst_max              =   3.1246105265974E+01
(PID.TID 0000.0001) %MON dynstat_sst_min              =  -2.0123200021401E+00
(PID.TID 0000.0001) %MON dynstat_sst_mean             =   1.8294311765431E+01
(PID.TID 0000.0001) %MON dynstat_sst_sd               =   9.7793361244156E+00
(PID.TID 0000.0001) %MON dynstat_sst_del2             =   1.7467365171676E-02
(PID.TID 0000.0001) %MON dynstat_sss_max              =   4.1408912785097E+01
(PID.TID 0000.0001) %MON dynstat_sss_min              =   1.8396865028814E+01
(PID.TID 0000.0001) %MON dynstat_sss_mean             =   3.4621325805739E+01
(PID.TID 0000.0001) %MON dynstat_sss_sd               =   1.4606233223089E+00
(PID.TID 0000.0001) %MON dynstat_sss_del2             =   8.4210572916910E-03
(PID.TID 0000.0001) %MON forcing_qnet_max             =   4.1260203772472E+02
(PID.TID 0000.0001) %MON forcing_qnet_min             =  -1.9167118588889E+02
(PID.TID 0000.0001) %MON forcing_qnet_mean            =  -1.3333867699105E+01
(PID.TID 0000.0001) %MON forcing_qnet_sd              =   9.2657834667716E+01
(PID.TID 0000.0001) %MON forcing_qnet_del2            =   4.2170855396264E-01
(PID.TID 0000.0001) %MON forcing_qsw_max              =   0.0000000000000E+00
(PID.TID 0000.0001) %MON forcing_qsw_min              =   0.0000000000000E+00
(PID.TID 0000.0001) %MON forcing_qsw_mean             =   0.0000000000000E+00
(PID.TID 0000.0001) %MON forcing_qsw_sd               =   0.0000000000000E+00
(PID.TID 0000.0001) %MON forcing_qsw_del2             =   0.0000000000000E+00
(PID.TID 0000.0001) %MON forcing_empmr_max            =   7.6494447208479E-05
(PID.TID 0000.0001) %MON forcing_empmr_min            =  -1.5362614137596E-04
(PID.TID 0000.0001) %MON forcing_empmr_mean           =   0.0000000000000E+00
(PID.TID 0000.0001) %MON forcing_empmr_sd             =   2.4051723601802E-05
(PID.TID 0000.0001) %MON forcing_empmr_del2           =   1.2276157049243E-07
(PID.TID 0000.0001) %MON forcing_fu_max               =   2.5676711500270E-01
(PID.TID 0000.0001) %MON forcing_fu_min               =  -2.1558541999739E-01
(PID.TID 0000.0001) %MON forcing_fu_mean              =  -4.6025278316923E-03
(PID.TID 0000.0001) %MON forcing_fu_sd                =   6.4416126026552E-02
(PID.TID 0000.0001) %MON forcing_fu_del2              =   2.1067453966679E-04
(PID.TID 0000.0001) %MON forcing_fv_max               =   2.8327741463796E-01
(PID.TID 0000.0001) %MON forcing_fv_min               =  -2.8601092163269E-01
(PID.TID 0000.0001) %MON forcing_fv_mean              =  -1.3704004850712E-02
(PID.TID 0000.0001) %MON forcing_fv_sd                =   7.4888566838346E-02
(PID.TID 0000.0001) %MON forcing_fv_del2              =   2.4562354319041E-04
(PID.TID 0000.0001) %MON trAdv_CFL_u_max              =   7.5728801490739E-02
(PID.TID 0000.0001) %MON trAdv_CFL_v_max              =   8.5182674276674E-02
(PID.TID 0000.0001) %MON trAdv_CFL_w_max              =   7.0990630033607E-02
(PID.TID 0000.0001) %MON advcfl_uvel_max              =   7.6154504704143E-02
(PID.TID 0000.0001) %MON advcfl_vvel_max              =   8.0059260780602E-02
(PID.TID 0000.0001) %MON advcfl_wvel_max              =   6.4268824737310E-02
(PID.TID 0000.0001) %MON advcfl_W_hf_max              =   7.0990630033607E-02
(PID.TID 0000.0001) %MON pe_b_mean                    =   4.7404822853109E-04
(PID.TID 0000.0001) %MON ke_max                       =   3.5609115290509E-02
(PID.TID 0000.0001) %MON ke_mean                      =   1.3993571376099E-04
(PID.TID 0000.0001) %MON ke_vol                       =   1.3398024453628E+18
(PID.TID 0000.0001) %MON vort_r_min                   =  -1.3260554797610E-06
(PID.TID 0000.0001) %MON vort_r_max                   =   1.2016641894652E-06
(PID.TID 0000.0001) %MON vort_a_mean                  =  -2.0493733748264E-05
(PID.TID 0000.0001) %MON vort_a_sd                    =   7.5053946103955E-05
(PID.TID 0000.0001) %MON vort_p_mean                  =  -2.4715772380947E-05
(PID.TID 0000.0001) %MON vort_p_sd                    =   1.2777065697305E-04
(PID.TID 0000.0001) %MON surfExpan_theta_mean         =   4.8922110314462E-08
(PID.TID 0000.0001) %MON surfExpan_salt_mean          =   1.5189950673840E-08
(PID.TID 0000.0001) // =======================================================
(PID.TID 0000.0001) // End MONITOR dynamic field statistics
(PID.TID 0000.0001) // =======================================================
 DRIVER_GET_EXPORT_STATE_3D:MASK : Associated & shape =          32          32          15
  Finished plug run method 
 AGCM Date: 2000/04/15  Time: 06:30:00
  Starting plug run method 
 EXTERNAL_FIELDS_LOAD,     72038 : iP,iLd,i0,i1=    1    2    1    2 ; Wght=  0.2333333333  0.7666666667
 cg2d: Sum(rhs),rhsMax =  -2.25242047235952E-12  4.19924153075314E+00
(PID.TID 0000.0001)      cg2d_init_res =   3.95074805073517E-02
(PID.TID 0000.0001)      cg2d_iters(min,last) =      -1      86
(PID.TID 0000.0001)      cg2d_last_res =   9.08688099541505E-10
(PID.TID 0000.0001) // =======================================================
(PID.TID 0000.0001) // Begin MONITOR dynamic field statistics
(PID.TID 0000.0001) // =======================================================
(PID.TID 0000.0001) %MON time_tsnumber                =                 72039
(PID.TID 0000.0001) %MON time_secondsf                =   6.2241696000000E+09
(PID.TID 0000.0001) %MON dynstat_eta_max              =   8.8091479247132E-01
(PID.TID 0000.0001) %MON dynstat_eta_min              =  -1.5994484398563E+00
(PID.TID 0000.0001) %MON dynstat_eta_mean             =   1.4427566214562E-14
(PID.TID 0000.0001) %MON dynstat_eta_sd               =   5.9648420733294E-01
(PID.TID 0000.0001) %MON dynstat_eta_del2             =   8.0354858295972E-04
(PID.TID 0000.0001) %MON dynstat_uvel_max             =   1.7559501669652E-01
(PID.TID 0000.0001) %MON dynstat_uvel_min             =  -2.6779950815746E-01
(PID.TID 0000.0001) %MON dynstat_uvel_mean            =  -4.7068868671659E-04
(PID.TID 0000.0001) %MON dynstat_uvel_sd              =   1.2011322612068E-02
(PID.TID 0000.0001) %MON dynstat_uvel_del2            =   5.1451624319832E-05
(PID.TID 0000.0001) %MON dynstat_vvel_max             =   1.8374716359930E-01
(PID.TID 0000.0001) %MON dynstat_vvel_min             =  -2.2273283607019E-01
(PID.TID 0000.0001) %MON dynstat_vvel_mean            =  -3.8665171548196E-04
(PID.TID 0000.0001) %MON dynstat_vvel_sd              =   1.2583101262168E-02
(PID.TID 0000.0001) %MON dynstat_vvel_del2            =   5.0161478022169E-05
(PID.TID 0000.0001) %MON dynstat_wvel_max             =   1.0538218145565E-04
(PID.TID 0000.0001) %MON dynstat_wvel_min             =  -1.9726992793570E-04
(PID.TID 0000.0001) %MON dynstat_wvel_mean            =   1.2245436373041E-11
(PID.TID 0000.0001) %MON dynstat_wvel_sd              =   3.6982283726827E-06
(PID.TID 0000.0001) %MON dynstat_wvel_del2            =   2.6542934361434E-08
(PID.TID 0000.0001) %MON dynstat_theta_max            =   3.1246577765343E+01
(PID.TID 0000.0001) %MON dynstat_theta_min            =  -3.7596559680838E+00
(PID.TID 0000.0001) %MON dynstat_theta_mean           =   3.9115127648573E+00
(PID.TID 0000.0001) %MON dynstat_theta_sd             =   4.5769427219000E+00
(PID.TID 0000.0001) %MON dynstat_theta_del2           =   2.7561527062782E-03
(PID.TID 0000.0001) %MON dynstat_salt_max             =   4.1409570381575E+01
(PID.TID 0000.0001) %MON dynstat_salt_min             =   1.8396936294126E+01
(PID.TID 0000.0001) %MON dynstat_salt_mean            =   3.4772095374747E+01
(PID.TID 0000.0001) %MON dynstat_salt_sd              =   5.3135439312610E-01
(PID.TID 0000.0001) %MON dynstat_salt_del2            =   8.3259445042612E-04
(PID.TID 0000.0001) %MON dynstat_sst_max              =   3.1246577765343E+01
(PID.TID 0000.0001) %MON dynstat_sst_min              =  -2.0101797258624E+00
(PID.TID 0000.0001) %MON dynstat_sst_mean             =   1.8300168182873E+01
(PID.TID 0000.0001) %MON dynstat_sst_sd               =   9.7824239536425E+00
(PID.TID 0000.0001) %MON dynstat_sst_del2             =   1.7484198632335E-02
(PID.TID 0000.0001) %MON dynstat_sss_max              =   4.1409570381575E+01
(PID.TID 0000.0001) %MON dynstat_sss_min              =   1.8396936294126E+01
(PID.TID 0000.0001) %MON dynstat_sss_mean             =   3.4621218717163E+01
(PID.TID 0000.0001) %MON dynstat_sss_sd               =   1.4604655813354E+00
(PID.TID 0000.0001) %MON dynstat_sss_del2             =   8.4271908984169E-03
(PID.TID 0000.0001) %MON forcing_qnet_max             =   4.1080979609327E+02
(PID.TID 0000.0001) %MON forcing_qnet_min             =  -1.9145056289639E+02
(PID.TID 0000.0001) %MON forcing_qnet_mean            =  -1.3379532234460E+01
(PID.TID 0000.0001) %MON forcing_qnet_sd              =   9.1868877945622E+01
(PID.TID 0000.0001) %MON forcing_qnet_del2            =   4.2195406110629E-01
(PID.TID 0000.0001) %MON forcing_qsw_max              =   0.0000000000000E+00
(PID.TID 0000.0001) %MON forcing_qsw_min              =   0.0000000000000E+00
(PID.TID 0000.0001) %MON forcing_qsw_mean             =   0.0000000000000E+00
(PID.TID 0000.0001) %MON forcing_qsw_sd               =   0.0000000000000E+00
(PID.TID 0000.0001) %MON forcing_qsw_del2             =   0.0000000000000E+00
(PID.TID 0000.0001) %MON forcing_empmr_max            =   7.6494447208479E-05
(PID.TID 0000.0001) %MON forcing_empmr_min            =  -1.5362614137596E-04
(PID.TID 0000.0001) %MON forcing_empmr_mean           =   0.0000000000000E+00
(PID.TID 0000.0001) %MON forcing_empmr_sd             =   2.4051723601802E-05
(PID.TID 0000.0001) %MON forcing_empmr_del2           =   1.2276157049243E-07
(PID.TID 0000.0001) %MON forcing_fu_max               =   2.5860841478440E-01
(PID.TID 0000.0001) %MON forcing_fu_min               =  -2.1855378209763E-01
(PID.TID 0000.0001) %MON forcing_fu_mean              =  -4.6346565227301E-03
(PID.TID 0000.0001) %MON forcing_fu_sd                =   6.4534254798105E-02
(PID.TID 0000.0001) %MON forcing_fu_del2              =   2.1277786143735E-04
(PID.TID 0000.0001) %MON forcing_fv_max               =   2.8371085489199E-01
(PID.TID 0000.0001) %MON forcing_fv_min               =  -2.8884082373645E-01
(PID.TID 0000.0001) %MON forcing_fv_mean              =  -1.3702214857209E-02
(PID.TID 0000.0001) %MON forcing_fv_sd                =   7.5001290536241E-02
(PID.TID 0000.0001) %MON forcing_fv_del2              =   2.4742437192622E-04
(PID.TID 0000.0001) %MON trAdv_CFL_u_max              =   7.5528443188118E-02
(PID.TID 0000.0001) %MON trAdv_CFL_v_max              =   8.5218315804056E-02
(PID.TID 0000.0001) %MON trAdv_CFL_w_max              =   7.1044344679631E-02
(PID.TID 0000.0001) %MON advcfl_uvel_max              =   7.5953020318374E-02
(PID.TID 0000.0001) %MON advcfl_vvel_max              =   8.0092799943537E-02
(PID.TID 0000.0001) %MON advcfl_wvel_max              =   6.4317440655262E-02
(PID.TID 0000.0001) %MON advcfl_W_hf_max              =   7.1044344679631E-02
(PID.TID 0000.0001) %MON pe_b_mean                    =   4.7398257081524E-04
(PID.TID 0000.0001) %MON ke_max                       =   3.5577895034018E-02
(PID.TID 0000.0001) %MON ke_mean                      =   1.3990678943600E-04
(PID.TID 0000.0001) %MON ke_vol                       =   1.3398024453628E+18
(PID.TID 0000.0001) %MON vort_r_min                   =  -1.3267572724625E-06
(PID.TID 0000.0001) %MON vort_r_max                   =   1.1972408387901E-06
(PID.TID 0000.0001) %MON vort_a_mean                  =  -2.0493733748264E-05
(PID.TID 0000.0001) %MON vort_a_sd                    =   7.5053946202425E-05
(PID.TID 0000.0001) %MON vort_p_mean                  =  -2.4715772342304E-05
(PID.TID 0000.0001) %MON vort_p_sd                    =   1.2777064960460E-04
(PID.TID 0000.0001) %MON surfExpan_theta_mean         =   4.9027000796868E-08
(PID.TID 0000.0001) %MON surfExpan_salt_mean          =   1.5139294985616E-08
(PID.TID 0000.0001) // =======================================================
(PID.TID 0000.0001) // End MONITOR dynamic field statistics
(PID.TID 0000.0001) // =======================================================
 DRIVER_GET_EXPORT_STATE_3D:MASK : Associated & shape =          32          32          15
  Finished plug run method 
 AGCM Date: 2000/04/15  Time: 06:45:00
  Starting plug run method 
 EXTERNAL_FIELDS_LOAD,     72039 : iP,iLd,i0,i1=    1    2    1    2 ; Wght=  0.2000000000  0.8000000000
 cg2d: Sum(rhs),rhsMax =  -2.32347474593553E-12  4.19587671244405E+00
(PID.TID 0000.0001)      cg2d_init_res =   3.41180990969217E-02
(PID.TID 0000.0001)      cg2d_iters(min,last) =      -1      86
(PID.TID 0000.0001)      cg2d_last_res =   8.18415966977486E-10
(PID.TID 0000.0001) // =======================================================
(PID.TID 0000.0001) // Begin MONITOR dynamic field statistics
(PID.TID 0000.0001) // =======================================================
(PID.TID 0000.0001) %MON time_tsnumber                =                 72040
(PID.TID 0000.0001) %MON time_secondsf                =   6.2242560000000E+09
(PID.TID 0000.0001) %MON dynstat_eta_max              =   8.8026216599095E-01
(PID.TID 0000.0001) %MON dynstat_eta_min              =  -1.5991874775957E+00
(PID.TID 0000.0001) %MON dynstat_eta_mean             =   1.4207717586531E-14
(PID.TID 0000.0001) %MON dynstat_eta_sd               =   5.9644054073639E-01
(PID.TID 0000.0001) %MON dynstat_eta_del2             =   8.0406200886902E-04
(PID.TID 0000.0001) %MON dynstat_uvel_max             =   1.7505961730219E-01
(PID.TID 0000.0001) %MON dynstat_uvel_min             =  -2.6708491576946E-01
(PID.TID 0000.0001) %MON dynstat_uvel_mean            =  -4.7019744184882E-04
(PID.TID 0000.0001) %MON dynstat_uvel_sd              =   1.2010340048538E-02
(PID.TID 0000.0001) %MON dynstat_uvel_del2            =   5.1472357924840E-05
(PID.TID 0000.0001) %MON dynstat_vvel_max             =   1.8372557856200E-01
(PID.TID 0000.0001) %MON dynstat_vvel_min             =  -2.2279267713090E-01
(PID.TID 0000.0001) %MON dynstat_vvel_mean            =  -3.8601655751792E-04
(PID.TID 0000.0001) %MON dynstat_vvel_sd              =   1.2581800608473E-02
(PID.TID 0000.0001) %MON dynstat_vvel_del2            =   5.0167937285136E-05
(PID.TID 0000.0001) %MON dynstat_wvel_max             =   1.0500326344741E-04
(PID.TID 0000.0001) %MON dynstat_wvel_min             =  -1.9745089998407E-04
(PID.TID 0000.0001) %MON dynstat_wvel_mean            =   2.3528315377152E-11
(PID.TID 0000.0001) %MON dynstat_wvel_sd              =   3.6932312532575E-06
(PID.TID 0000.0001) %MON dynstat_wvel_del2            =   2.6538903753419E-08
(PID.TID 0000.0001) %MON dynstat_theta_max            =   3.1246649872640E+01
(PID.TID 0000.0001) %MON dynstat_theta_min            =  -3.7794960103100E+00
(PID.TID 0000.0001) %MON dynstat_theta_mean           =   3.9115778595169E+00
(PID.TID 0000.0001) %MON dynstat_theta_sd             =   4.5772273660627E+00
(PID.TID 0000.0001) %MON dynstat_theta_del2           =   2.7592466487920E-03
(PID.TID 0000.0001) %MON dynstat_salt_max             =   4.1410227572306E+01
(PID.TID 0000.0001) %MON dynstat_salt_min             =   1.8397063233353E+01
(PID.TID 0000.0001) %MON dynstat_salt_mean            =   3.4772096365418E+01
(PID.TID 0000.0001) %MON dynstat_salt_sd              =   5.3134931496011E-01
(PID.TID 0000.0001) %MON dynstat_salt_del2            =   8.3319284847955E-04
(PID.TID 0000.0001) %MON dynstat_sst_max              =   3.1246649872640E+01
(PID.TID 0000.0001) %MON dynstat_sst_min              =  -2.0081550115554E+00
(PID.TID 0000.0001) %MON dynstat_sst_mean             =   1.8306061038973E+01
(PID.TID 0000.0001) %MON dynstat_sst_sd               =   9.7856174476269E+00
(PID.TID 0000.0001) %MON dynstat_sst_del2             =   1.7498185898672E-02
(PID.TID 0000.0001) %MON dynstat_sss_max              =   4.1410227572306E+01
(PID.TID 0000.0001) %MON dynstat_sss_min              =   1.8397063233353E+01
(PID.TID 0000.0001) %MON dynstat_sss_mean             =   3.4621123653412E+01
(PID.TID 0000.0001) %MON dynstat_sss_sd               =   1.4603081099057E+00
(PID.TID 0000.0001) %MON dynstat_sss_del2             =   8.4331820196069E-03
(PID.TID 0000.0001) %MON forcing_qnet_max             =   4.0901755446182E+02
(PID.TID 0000.0001) %MON forcing_qnet_min             =  -1.9122993990389E+02
(PID.TID 0000.0001) %MON forcing_qnet_mean            =  -1.3425196769815E+01
(PID.TID 0000.0001) %MON forcing_qnet_sd              =   9.1095739724956E+01
(PID.TID 0000.0001) %MON forcing_qnet_del2            =   4.2230789657786E-01
(PID.TID 0000.0001) %MON forcing_qsw_max              =   0.0000000000000E+00
(PID.TID 0000.0001) %MON forcing_qsw_min              =   0.0000000000000E+00
(PID.TID 0000.0001) %MON forcing_qsw_mean             =   0.0000000000000E+00
(PID.TID 0000.0001) %MON forcing_qsw_sd               =   0.0000000000000E+00
(PID.TID 0000.0001) %MON forcing_qsw_del2             =   0.0000000000000E+00
(PID.TID 0000.0001) %MON forcing_empmr_max            =   7.6494447208479E-05
(PID.TID 0000.0001) %MON forcing_empmr_min            =  -1.5362614137596E-04
(PID.TID 0000.0001) %MON forcing_empmr_mean           =   4.1932798010144E-22
(PID.TID 0000.0001) %MON forcing_empmr_sd             =   2.4051723601802E-05
(PID.TID 0000.0001) %MON forcing_empmr_del2           =   1.2276157049243E-07
(PID.TID 0000.0001) %MON forcing_fu_max               =   2.6044971456610E-01
(PID.TID 0000.0001) %MON forcing_fu_min               =  -2.2152214419787E-01
(PID.TID 0000.0001) %MON forcing_fu_mean              =  -4.6667852137678E-03
(PID.TID 0000.0001) %MON forcing_fu_sd                =   6.4666635877107E-02
(PID.TID 0000.0001) %MON forcing_fu_del2              =   2.1512384677861E-04
(PID.TID 0000.0001) %MON forcing_fv_max               =   2.8414429514601E-01
(PID.TID 0000.0001) %MON forcing_fv_min               =  -2.9167072584021E-01
(PID.TID 0000.0001) %MON forcing_fv_mean              =  -1.3700424863706E-02
(PID.TID 0000.0001) %MON forcing_fv_sd                =   7.5131318161799E-02
(PID.TID 0000.0001) %MON forcing_fv_del2              =   2.4941120547200E-04
(PID.TID 0000.0001) %MON trAdv_CFL_u_max              =   7.5326903838525E-02
(PID.TID 0000.0001) %MON trAdv_CFL_v_max              =   8.5208261551856E-02
(PID.TID 0000.0001) %MON trAdv_CFL_w_max              =   7.1109532759819E-02
(PID.TID 0000.0001) %MON advcfl_uvel_max              =   7.5750348362260E-02
(PID.TID 0000.0001) %MON advcfl_vvel_max              =   8.0083391329872E-02
(PID.TID 0000.0001) %MON advcfl_wvel_max              =   6.4376444372165E-02
(PID.TID 0000.0001) %MON advcfl_W_hf_max              =   7.1109532759819E-02
(PID.TID 0000.0001) %MON pe_b_mean                    =   4.7391317602540E-04
(PID.TID 0000.0001) %MON ke_max                       =   3.5546055473132E-02
(PID.TID 0000.0001) %MON ke_mean                      =   1.3988032128368E-04
(PID.TID 0000.0001) %MON ke_vol                       =   1.3398024453628E+18
(PID.TID 0000.0001) %MON vort_r_min                   =  -1.3274228027081E-06
(PID.TID 0000.0001) %MON vort_r_max                   =   1.1928314213764E-06
(PID.TID 0000.0001) %MON vort_a_mean                  =  -2.0493733748264E-05
(PID.TID 0000.0001) %MON vort_a_sd                    =   7.5053946310584E-05
(PID.TID 0000.0001) %MON vort_p_mean                  =  -2.4715772305455E-05
(PID.TID 0000.0001) %MON vort_p_sd                    =   1.2777064192965E-04
(PID.TID 0000.0001) %MON surfExpan_theta_mean         =   4.9192341423276E-08
(PID.TID 0000.0001) %MON surfExpan_salt_mean          =   1.5084946420393E-08
(PID.TID 0000.0001) // =======================================================
(PID.TID 0000.0001) // End MONITOR dynamic field statistics
(PID.TID 0000.0001) // =======================================================
(PID.TID 0000.0001) %CHECKPOINT     72040 0000072040
 DRIVER_GET_EXPORT_STATE_3D:MASK : Associated & shape =          32          32          15
  Finished plug run method 
 AGCM Date: 2000/04/15  Time: 07:00:00
 
 Writing:     40 Slices (  1 Nodes,  1 PartitionRoot) to File:  TEST.mit_ocn.20000415_0700z.nc4
 
  Starting plug run method 
 EXTERNAL_FIELDS_LOAD,     72040 : iP,iLd,i0,i1=    1    2    1    2 ; Wght=  0.1666666667  0.8333333333
 cg2d: Sum(rhs),rhsMax =  -2.29505303650512E-12  4.19264924136704E+00
(PID.TID 0000.0001)      cg2d_init_res =   3.45824519305457E-02
(PID.TID 0000.0001)      cg2d_iters(min,last) =      -1      85
(PID.TID 0000.0001)      cg2d_last_res =   9.96168746518952E-10
(PID.TID 0000.0001) // =======================================================
(PID.TID 0000.0001) // Begin MONITOR dynamic field statistics
(PID.TID 0000.0001) // =======================================================
(PID.TID 0000.0001) %MON time_tsnumber                =                 72041
(PID.TID 0000.0001) %MON time_secondsf                =   6.2243424000000E+09
(PID.TID 0000.0001) %MON dynstat_eta_max              =   8.7959800642084E-01
(PID.TID 0000.0001) %MON dynstat_eta_min              =  -1.5989466535223E+00
(PID.TID 0000.0001) %MON dynstat_eta_mean             =   1.4427566214562E-14
(PID.TID 0000.0001) %MON dynstat_eta_sd               =   5.9639496051283E-01
(PID.TID 0000.0001) %MON dynstat_eta_del2             =   8.0457318538018E-04
(PID.TID 0000.0001) %MON dynstat_uvel_max             =   1.7454604768154E-01
(PID.TID 0000.0001) %MON dynstat_uvel_min             =  -2.6636675121065E-01
(PID.TID 0000.0001) %MON dynstat_uvel_mean            =  -4.6970553216411E-04
(PID.TID 0000.0001) %MON dynstat_uvel_sd              =   1.2009235814633E-02
(PID.TID 0000.0001) %MON dynstat_uvel_del2            =   5.1492487162367E-05
(PID.TID 0000.0001) %MON dynstat_vvel_max             =   1.8360624438283E-01
(PID.TID 0000.0001) %MON dynstat_vvel_min             =  -2.2284873952592E-01
(PID.TID 0000.0001) %MON dynstat_vvel_mean            =  -3.8538116244516E-04
(PID.TID 0000.0001) %MON dynstat_vvel_sd              =   1.2580791611614E-02
(PID.TID 0000.0001) %MON dynstat_vvel_del2            =   5.0176063367965E-05
(PID.TID 0000.0001) %MON dynstat_wvel_max             =   1.0465926206077E-04
(PID.TID 0000.0001) %MON dynstat_wvel_min             =  -1.9765973457728E-04
(PID.TID 0000.0001) %MON dynstat_wvel_mean            =   2.9231966721624E-11
(PID.TID 0000.0001) %MON dynstat_wvel_sd              =   3.6884190011582E-06
(PID.TID 0000.0001) %MON dynstat_wvel_del2            =   2.6535070603040E-08
(PID.TID 0000.0001) %MON dynstat_theta_max            =   3.1246328131077E+01
(PID.TID 0000.0001) %MON dynstat_theta_min            =  -3.7991418596675E+00
(PID.TID 0000.0001) %MON dynstat_theta_mean           =   3.9116430586404E+00
(PID.TID 0000.0001) %MON dynstat_theta_sd             =   4.5775159596453E+00
(PID.TID 0000.0001) %MON dynstat_theta_del2           =   2.7625265385150E-03
(PID.TID 0000.0001) %MON dynstat_salt_max             =   4.1410883966004E+01
(PID.TID 0000.0001) %MON dynstat_salt_min             =   1.8397278879400E+01
(PID.TID 0000.0001) %MON dynstat_salt_mean            =   3.4772097368357E+01
(PID.TID 0000.0001) %MON dynstat_salt_sd              =   5.3134368514029E-01
(PID.TID 0000.0001) %MON dynstat_salt_del2            =   8.3385454422624E-04
(PID.TID 0000.0001) %MON dynstat_sst_max              =   3.1246328131077E+01
(PID.TID 0000.0001) %MON dynstat_sst_min              =  -2.0062155042778E+00
(PID.TID 0000.0001) %MON dynstat_sst_mean             =   1.8312116358876E+01
(PID.TID 0000.0001) %MON dynstat_sst_sd               =   9.7888353080625E+00
(PID.TID 0000.0001) %MON dynstat_sst_del2             =   1.7523899997638E-02
(PID.TID 0000.0001) %MON dynstat_sss_max              =   4.1410883966004E+01
(PID.TID 0000.0001) %MON dynstat_sss_min              =   1.8397278879400E+01
(PID.TID 0000.0001) %MON dynstat_sss_mean             =   3.4621076555585E+01
(PID.TID 0000.0001) %MON dynstat_sss_sd               =   1.4600949373937E+00
(PID.TID 0000.0001) %MON dynstat_sss_del2             =   8.4408994042147E-03
(PID.TID 0000.0001) %MON forcing_qnet_max             =   4.0722531283037E+02
(PID.TID 0000.0001) %MON forcing_qnet_min             =  -1.9100931691139E+02
(PID.TID 0000.0001) %MON forcing_qnet_mean            =  -1.3470861305171E+01
(PID.TID 0000.0001) %MON forcing_qnet_sd              =   9.0338826140582E+01
(PID.TID 0000.0001) %MON forcing_qnet_del2            =   4.2276978838256E-01
(PID.TID 0000.0001) %MON forcing_qsw_max              =   0.0000000000000E+00
(PID.TID 0000.0001) %MON forcing_qsw_min              =   0.0000000000000E+00
(PID.TID 0000.0001) %MON forcing_qsw_mean             =   0.0000000000000E+00
(PID.TID 0000.0001) %MON forcing_qsw_sd               =   0.0000000000000E+00
(PID.TID 0000.0001) %MON forcing_qsw_del2             =   0.0000000000000E+00
(PID.TID 0000.0001) %MON forcing_empmr_max            =   7.6494447208479E-05
(PID.TID 0000.0001) %MON forcing_empmr_min            =  -1.5362614137596E-04
(PID.TID 0000.0001) %MON forcing_empmr_mean           =   4.1932798010144E-22
(PID.TID 0000.0001) %MON forcing_empmr_sd             =   2.4051723601802E-05
(PID.TID 0000.0001) %MON forcing_empmr_del2           =   1.2276157049243E-07
(PID.TID 0000.0001) %MON forcing_fu_max               =   2.6229101434780E-01
(PID.TID 0000.0001) %MON forcing_fu_min               =  -2.2449050629811E-01
(PID.TID 0000.0001) %MON forcing_fu_mean              =  -4.6989139048056E-03
(PID.TID 0000.0001) %MON forcing_fu_sd                =   6.4813181932503E-02
(PID.TID 0000.0001) %MON forcing_fu_del2              =   2.1770465100390E-04
(PID.TID 0000.0001) %MON forcing_fv_max               =   2.8457773540003E-01
(PID.TID 0000.0001) %MON forcing_fv_min               =  -2.9450062794396E-01
(PID.TID 0000.0001) %MON forcing_fv_mean              =  -1.3698634870204E-02
(PID.TID 0000.0001) %MON forcing_fv_sd                =   7.5278560048561E-02
(PID.TID 0000.0001) %MON forcing_fv_del2              =   2.5157963698431E-04
(PID.TID 0000.0001) %MON trAdv_CFL_u_max              =   7.5124356900169E-02
(PID.TID 0000.0001) %MON trAdv_CFL_v_max              =   8.5152872882150E-02
(PID.TID 0000.0001) %MON trAdv_CFL_w_max              =   7.1184754193769E-02
(PID.TID 0000.0001) %MON advcfl_uvel_max              =   7.5546663270742E-02
(PID.TID 0000.0001) %MON advcfl_vvel_max              =   8.0031375242378E-02
(PID.TID 0000.0001) %MON advcfl_wvel_max              =   6.4444532330103E-02
(PID.TID 0000.0001) %MON advcfl_W_hf_max              =   7.1184754193769E-02
(PID.TID 0000.0001) %MON pe_b_mean                    =   4.7384074552593E-04
(PID.TID 0000.0001) %MON ke_max                       =   3.5513605628590E-02
(PID.TID 0000.0001) %MON ke_mean                      =   1.3985591715028E-04
(PID.TID 0000.0001) %MON ke_vol                       =   1.3398024453628E+18
(PID.TID 0000.0001) %MON vort_r_min                   =  -1.3280736918566E-06
(PID.TID 0000.0001) %MON vort_r_max                   =   1.1884696416791E-06
(PID.TID 0000.0001) %MON vort_a_mean                  =  -2.0493733748264E-05
(PID.TID 0000.0001) %MON vort_a_sd                    =   7.5053946429648E-05
(PID.TID 0000.0001) %MON vort_p_mean                  =  -2.4715772270564E-05
(PID.TID 0000.0001) %MON vort_p_sd                    =   1.2777063400531E-04
(PID.TID 0000.0001) %MON surfExpan_theta_mean         =   4.9359420993124E-08
(PID.TID 0000.0001) %MON surfExpan_salt_mean          =   1.5037014869989E-08
(PID.TID 0000.0001) // =======================================================
(PID.TID 0000.0001) // End MONITOR dynamic field statistics
(PID.TID 0000.0001) // =======================================================
 DRIVER_GET_EXPORT_STATE_3D:MASK : Associated & shape =          32          32          15
  Finished plug run method 
 AGCM Date: 2000/04/15  Time: 07:15:00
  Starting plug run method 
 EXTERNAL_FIELDS_LOAD,     72041 : iP,iLd,i0,i1=    1    2    1    2 ; Wght=  0.1333333333  0.8666666667
 cg2d: Sum(rhs),rhsMax =  -2.33768560065073E-12  4.19412632716634E+00
(PID.TID 0000.0001)      cg2d_init_res =   3.62836056490260E-02
(PID.TID 0000.0001)      cg2d_iters(min,last) =      -1      86
(PID.TID 0000.0001)      cg2d_last_res =   8.05527978876482E-10
(PID.TID 0000.0001) // =======================================================
(PID.TID 0000.0001) // Begin MONITOR dynamic field statistics
(PID.TID 0000.0001) // =======================================================
(PID.TID 0000.0001) %MON time_tsnumber                =                 72042
(PID.TID 0000.0001) %MON time_secondsf                =   6.2244288000000E+09
(PID.TID 0000.0001) %MON dynstat_eta_max              =   8.7892642860925E-01
(PID.TID 0000.0001) %MON dynstat_eta_min              =  -1.5987265455283E+00
(PID.TID 0000.0001) %MON dynstat_eta_mean             =   1.4482528371570E-14
(PID.TID 0000.0001) %MON dynstat_eta_sd               =   5.9634811543415E-01
(PID.TID 0000.0001) %MON dynstat_eta_del2             =   8.0508659780449E-04
(PID.TID 0000.0001) %MON dynstat_uvel_max             =   1.7405583372192E-01
(PID.TID 0000.0001) %MON dynstat_uvel_min             =  -2.6564562582921E-01
(PID.TID 0000.0001) %MON dynstat_uvel_mean            =  -4.6921118083716E-04
(PID.TID 0000.0001) %MON dynstat_uvel_sd              =   1.2007966665934E-02
(PID.TID 0000.0001) %MON dynstat_uvel_del2            =   5.1512077310405E-05
(PID.TID 0000.0001) %MON dynstat_vvel_max             =   1.8339067061467E-01
(PID.TID 0000.0001) %MON dynstat_vvel_min             =  -2.2290117543794E-01
(PID.TID 0000.0001) %MON dynstat_vvel_mean            =  -3.8474665376744E-04
(PID.TID 0000.0001) %MON dynstat_vvel_sd              =   1.2580076361264E-02
(PID.TID 0000.0001) %MON dynstat_vvel_del2            =   5.0185879979012E-05
(PID.TID 0000.0001) %MON dynstat_wvel_max             =   1.0435597646268E-04
(PID.TID 0000.0001) %MON dynstat_wvel_min             =  -1.9789221613698E-04
(PID.TID 0000.0001) %MON dynstat_wvel_mean            =   3.3705908290613E-11
(PID.TID 0000.0001) %MON dynstat_wvel_sd              =   3.6837769824291E-06
(PID.TID 0000.0001) %MON dynstat_wvel_del2            =   2.6531533244232E-08
(PID.TID 0000.0001) %MON dynstat_theta_max            =   3.1245617873801E+01
(PID.TID 0000.0001) %MON dynstat_theta_min            =  -3.8185233842468E+00
(PID.TID 0000.0001) %MON dynstat_theta_mean           =   3.9117083247224E+00
(PID.TID 0000.0001) %MON dynstat_theta_sd             =   4.5778106860709E+00
(PID.TID 0000.0001) %MON dynstat_theta_del2           =   2.7681889413070E-03
(PID.TID 0000.0001) %MON dynstat_salt_max             =   4.1411539164328E+01
(PID.TID 0000.0001) %MON dynstat_salt_min             =   1.8397647829889E+01
(PID.TID 0000.0001) %MON dynstat_salt_mean            =   3.4772098382564E+01
(PID.TID 0000.0001) %MON dynstat_salt_sd              =   5.3133882884888E-01
(PID.TID 0000.0001) %MON dynstat_salt_del2            =   8.3503538331626E-04
(PID.TID 0000.0001) %MON dynstat_sst_max              =   3.1245617873801E+01
(PID.TID 0000.0001) %MON dynstat_sst_min              =  -2.0043852195917E+00
(PID.TID 0000.0001) %MON dynstat_sst_mean             =   1.8318206952185E+01
(PID.TID 0000.0001) %MON dynstat_sst_sd               =   9.7922137773820E+00
(PID.TID 0000.0001) %MON dynstat_sst_del2             =   1.7589651225142E-02
(PID.TID 0000.0001) %MON dynstat_sss_max              =   4.1411539164328E+01
(PID.TID 0000.0001) %MON dynstat_sss_min              =   1.8397647829889E+01
(PID.TID 0000.0001) %MON dynstat_sss_mean             =   3.4621041227626E+01
(PID.TID 0000.0001) %MON dynstat_sss_sd               =   1.4598773721580E+00
(PID.TID 0000.0001) %MON dynstat_sss_del2             =   8.4541500339663E-03
(PID.TID 0000.0001) %MON forcing_qnet_max             =   4.0543307119892E+02
(PID.TID 0000.0001) %MON forcing_qnet_min             =  -1.9078869391889E+02
(PID.TID 0000.0001) %MON forcing_qnet_mean            =  -1.3516525840526E+01
(PID.TID 0000.0001) %MON forcing_qnet_sd              =   8.9598548382500E+01
(PID.TID 0000.0001) %MON forcing_qnet_del2            =   4.2333938283030E-01
(PID.TID 0000.0001) %MON forcing_qsw_max              =   0.0000000000000E+00
(PID.TID 0000.0001) %MON forcing_qsw_min              =   0.0000000000000E+00
(PID.TID 0000.0001) %MON forcing_qsw_mean             =   0.0000000000000E+00
(PID.TID 0000.0001) %MON forcing_qsw_sd               =   0.0000000000000E+00
(PID.TID 0000.0001) %MON forcing_qsw_del2             =   0.0000000000000E+00
(PID.TID 0000.0001) %MON forcing_empmr_max            =   7.6494447208479E-05
(PID.TID 0000.0001) %MON forcing_empmr_min            =  -1.5362614137596E-04
(PID.TID 0000.0001) %MON forcing_empmr_mean           =   4.1932798010144E-22
(PID.TID 0000.0001) %MON forcing_empmr_sd             =   2.4051723601802E-05
(PID.TID 0000.0001) %MON forcing_empmr_del2           =   1.2276157049243E-07
(PID.TID 0000.0001) %MON forcing_fu_max               =   2.6413231412950E-01
(PID.TID 0000.0001) %MON forcing_fu_min               =  -2.2745886839835E-01
(PID.TID 0000.0001) %MON forcing_fu_mean              =  -4.7310425958434E-03
(PID.TID 0000.0001) %MON forcing_fu_sd                =   6.4973797118582E-02
(PID.TID 0000.0001) %MON forcing_fu_del2              =   2.2051202952575E-04
(PID.TID 0000.0001) %MON forcing_fv_max               =   2.8501117565406E-01
(PID.TID 0000.0001) %MON forcing_fv_min               =  -2.9733053004772E-01
(PID.TID 0000.0001) %MON forcing_fv_mean              =  -1.3696844876701E-02
(PID.TID 0000.0001) %MON forcing_fv_sd                =   7.5442915405409E-02
(PID.TID 0000.0001) %MON forcing_fv_del2              =   2.5392501415488E-04
(PID.TID 0000.0001) %MON trAdv_CFL_u_max              =   7.4920974793605E-02
(PID.TID 0000.0001) %MON trAdv_CFL_v_max              =   8.5052850884562E-02
(PID.TID 0000.0001) %MON trAdv_CFL_w_max              =   7.1268490760575E-02
(PID.TID 0000.0001) %MON advcfl_uvel_max              =   7.5342138433764E-02
(PID.TID 0000.0001) %MON advcfl_vvel_max              =   7.9937409673886E-02
(PID.TID 0000.0001) %MON advcfl_wvel_max              =   6.4520330091452E-02
(PID.TID 0000.0001) %MON advcfl_W_hf_max              =   7.1268490760575E-02
(PID.TID 0000.0001) %MON pe_b_mean                    =   4.7376631084183E-04
(PID.TID 0000.0001) %MON ke_max                       =   3.5480549435385E-02
(PID.TID 0000.0001) %MON ke_mean                      =   1.3983312358541E-04
(PID.TID 0000.0001) %MON ke_vol                       =   1.3398024453628E+18
(PID.TID 0000.0001) %MON vort_r_min                   =  -1.3287312112653E-06
(PID.TID 0000.0001) %MON vort_r_max                   =   1.1841787899201E-06
(PID.TID 0000.0001) %MON vort_a_mean                  =  -2.0493733748264E-05
(PID.TID 0000.0001) %MON vort_a_sd                    =   7.5053946559972E-05
(PID.TID 0000.0001) %MON vort_p_mean                  =  -2.4715772238166E-05
(PID.TID 0000.0001) %MON vort_p_sd                    =   1.2777062586073E-04
(PID.TID 0000.0001) %MON surfExpan_theta_mean         =   4.9562101775994E-08
(PID.TID 0000.0001) %MON surfExpan_salt_mean          =   1.4998173319587E-08
(PID.TID 0000.0001) // =======================================================
(PID.TID 0000.0001) // End MONITOR dynamic field statistics
(PID.TID 0000.0001) // =======================================================
 DRIVER_GET_EXPORT_STATE_3D:MASK : Associated & shape =          32          32          15
  Finished plug run method 
 AGCM Date: 2000/04/15  Time: 07:30:00
  Starting plug run method 
 EXTERNAL_FIELDS_LOAD,     72042 : iP,iLd,i0,i1=    1    2    1    2 ; Wght=  0.1000000000  0.9000000000
 cg2d: Sum(rhs),rhsMax =  -2.28794760914752E-12  4.19791006816102E+00
(PID.TID 0000.0001)      cg2d_init_res =   3.42881277619712E-02
(PID.TID 0000.0001)      cg2d_iters(min,last) =      -1      85
(PID.TID 0000.0001)      cg2d_last_res =   9.82175563824975E-10
(PID.TID 0000.0001) // =======================================================
(PID.TID 0000.0001) // Begin MONITOR dynamic field statistics
(PID.TID 0000.0001) // =======================================================
(PID.TID 0000.0001) %MON time_tsnumber                =                 72043
(PID.TID 0000.0001) %MON time_secondsf                =   6.2245152000000E+09
(PID.TID 0000.0001) %MON dynstat_eta_max              =   8.7824779515699E-01
(PID.TID 0000.0001) %MON dynstat_eta_min              =  -1.5985279154145E+00
(PID.TID 0000.0001) %MON dynstat_eta_mean             =   1.4290160822043E-14
(PID.TID 0000.0001) %MON dynstat_eta_sd               =   5.9630064837889E-01
(PID.TID 0000.0001) %MON dynstat_eta_del2             =   8.0560786996825E-04
(PID.TID 0000.0001) %MON dynstat_uvel_max             =   1.7359004107611E-01
(PID.TID 0000.0001) %MON dynstat_uvel_min             =  -2.6492214701065E-01
(PID.TID 0000.0001) %MON dynstat_uvel_mean            =  -4.6871328797674E-04
(PID.TID 0000.0001) %MON dynstat_uvel_sd              =   1.2006490488754E-02
(PID.TID 0000.0001) %MON dynstat_uvel_del2            =   5.1531186689315E-05
(PID.TID 0000.0001) %MON dynstat_vvel_max             =   1.8308121621765E-01
(PID.TID 0000.0001) %MON dynstat_vvel_min             =  -2.2295010875183E-01
(PID.TID 0000.0001) %MON dynstat_vvel_mean            =  -3.8411464589184E-04
(PID.TID 0000.0001) %MON dynstat_vvel_sd              =   1.2579651249958E-02
(PID.TID 0000.0001) %MON dynstat_vvel_del2            =   5.0197382160040E-05
(PID.TID 0000.0001) %MON dynstat_wvel_max             =   1.0409848709494E-04
(PID.TID 0000.0001) %MON dynstat_wvel_min             =  -1.9814402558852E-04
(PID.TID 0000.0001) %MON dynstat_wvel_mean            =   3.6921739925854E-11
(PID.TID 0000.0001) %MON dynstat_wvel_sd              =   3.6792861590246E-06
(PID.TID 0000.0001) %MON dynstat_wvel_del2            =   2.6528113096716E-08
(PID.TID 0000.0001) %MON dynstat_theta_max            =   3.1244523336363E+01
(PID.TID 0000.0001) %MON dynstat_theta_min            =  -3.8376378415154E+00
(PID.TID 0000.0001) %MON dynstat_theta_mean           =   3.9117736501355E+00
(PID.TID 0000.0001) %MON dynstat_theta_sd             =   4.5781110438503E+00
(PID.TID 0000.0001) %MON dynstat_theta_del2           =   2.7728414058539E-03
(PID.TID 0000.0001) %MON dynstat_salt_max             =   4.1412192759993E+01
(PID.TID 0000.0001) %MON dynstat_salt_min             =   1.8398315075980E+01
(PID.TID 0000.0001) %MON dynstat_salt_mean            =   3.4772099407742E+01
(PID.TID 0000.0001) %MON dynstat_salt_sd              =   5.3133453891886E-01
(PID.TID 0000.0001) %MON dynstat_salt_del2            =   8.3599369375676E-04
(PID.TID 0000.0001) %MON dynstat_sst_max              =   3.1244523336363E+01
(PID.TID 0000.0001) %MON dynstat_sst_min              =  -2.0026589952064E+00
(PID.TID 0000.0001) %MON dynstat_sst_mean             =   1.8324001434868E+01
(PID.TID 0000.0001) %MON dynstat_sst_sd               =   9.7959244256018E+00
(PID.TID 0000.0001) %MON dynstat_sst_del2             =   1.7619879947451E-02
(PID.TID 0000.0001) %MON dynstat_sss_max              =   4.1412192759993E+01
(PID.TID 0000.0001) %MON dynstat_sss_min              =   1.8398315075980E+01
(PID.TID 0000.0001) %MON dynstat_sss_mean             =   3.4620944023098E+01
(PID.TID 0000.0001) %MON dynstat_sss_sd               =   1.4597399515218E+00
(PID.TID 0000.0001) %MON dynstat_sss_del2             =   8.4633515784225E-03
(PID.TID 0000.0001) %MON forcing_qnet_max             =   4.0380986656091E+02
(PID.TID 0000.0001) %MON forcing_qnet_min             =  -1.9056807092639E+02
(PID.TID 0000.0001) %MON forcing_qnet_mean            =  -1.3562190375881E+01
(PID.TID 0000.0001) %MON forcing_qnet_sd              =   8.8875322150842E+01
(PID.TID 0000.0001) %MON forcing_qnet_del2            =   4.2401624588019E-01
(PID.TID 0000.0001) %MON forcing_qsw_max              =   0.0000000000000E+00
(PID.TID 0000.0001) %MON forcing_qsw_min              =   0.0000000000000E+00
(PID.TID 0000.0001) %MON forcing_qsw_mean             =   0.0000000000000E+00
(PID.TID 0000.0001) %MON forcing_qsw_sd               =   0.0000000000000E+00
(PID.TID 0000.0001) %MON forcing_qsw_del2             =   0.0000000000000E+00
(PID.TID 0000.0001) %MON forcing_empmr_max            =   7.6494447208479E-05
(PID.TID 0000.0001) %MON forcing_empmr_min            =  -1.5362614137596E-04
(PID.TID 0000.0001) %MON forcing_empmr_mean           =   4.1932798010144E-22
(PID.TID 0000.0001) %MON forcing_empmr_sd             =   2.4051723601802E-05
(PID.TID 0000.0001) %MON forcing_empmr_del2           =   1.2276157049243E-07
(PID.TID 0000.0001) %MON forcing_fu_max               =   2.6597361391120E-01
(PID.TID 0000.0001) %MON forcing_fu_min               =  -2.3042723049859E-01
(PID.TID 0000.0001) %MON forcing_fu_mean              =  -4.7631712868812E-03
(PID.TID 0000.0001) %MON forcing_fu_sd                =   6.5148377378375E-02
(PID.TID 0000.0001) %MON forcing_fu_del2              =   2.2353744595332E-04
(PID.TID 0000.0001) %MON forcing_fv_max               =   2.8544461590808E-01
(PID.TID 0000.0001) %MON forcing_fv_min               =  -3.0016043215148E-01
(PID.TID 0000.0001) %MON forcing_fv_mean              =  -1.3695054883199E-02
(PID.TID 0000.0001) %MON forcing_fv_sd                =   7.5624272653548E-02
(PID.TID 0000.0001) %MON forcing_fv_del2              =   2.5644248208946E-04
(PID.TID 0000.0001) %MON trAdv_CFL_u_max              =   7.4716928822428E-02
(PID.TID 0000.0001) %MON trAdv_CFL_v_max              =   8.4909289756905E-02
(PID.TID 0000.0001) %MON trAdv_CFL_w_max              =   7.1359187076547E-02
(PID.TID 0000.0001) %MON advcfl_uvel_max              =   7.5136946117378E-02
(PID.TID 0000.0001) %MON advcfl_vvel_max              =   7.9802522861885E-02
(PID.TID 0000.0001) %MON advcfl_wvel_max              =   6.4602429474897E-02
(PID.TID 0000.0001) %MON advcfl_W_hf_max              =   7.1359187076547E-02
(PID.TID 0000.0001) %MON pe_b_mean                    =   4.7369089382923E-04
(PID.TID 0000.0001) %MON ke_max                       =   3.5446886367571E-02
(PID.TID 0000.0001) %MON ke_mean                      =   1.3981143407004E-04
(PID.TID 0000.0001) %MON ke_vol                       =   1.3398024453628E+18
(PID.TID 0000.0001) %MON vort_r_min                   =  -1.3294161081954E-06
(PID.TID 0000.0001) %MON vort_r_max                   =   1.1799896892828E-06
(PID.TID 0000.0001) %MON vort_a_mean                  =  -2.0493733748264E-05
(PID.TID 0000.0001) %MON vort_a_sd                    =   7.5053946701878E-05
(PID.TID 0000.0001) %MON vort_p_mean                  =  -2.4715772208349E-05
(PID.TID 0000.0001) %MON vort_p_sd                    =   1.2777061754612E-04
(PID.TID 0000.0001) %MON surfExpan_theta_mean         =   4.9796338368922E-08
(PID.TID 0000.0001) %MON surfExpan_salt_mean          =   1.4970675637026E-08
(PID.TID 0000.0001) // =======================================================
(PID.TID 0000.0001) // End MONITOR dynamic field statistics
(PID.TID 0000.0001) // =======================================================
 DRIVER_GET_EXPORT_STATE_3D:MASK : Associated & shape =          32          32          15
  Finished plug run method 
 AGCM Date: 2000/04/15  Time: 07:45:00
  Starting plug run method 
 EXTERNAL_FIELDS_LOAD,     72043 : iP,iLd,i0,i1=    1    2    1    2 ; Wght=  0.0666666667  0.9333333333
 cg2d: Sum(rhs),rhsMax =  -2.38031816479634E-12  4.20180108415768E+00
(PID.TID 0000.0001)      cg2d_init_res =   3.34535439938228E-02
(PID.TID 0000.0001)      cg2d_iters(min,last) =      -1      85
(PID.TID 0000.0001)      cg2d_last_res =   9.75503123013150E-10
(PID.TID 0000.0001) // =======================================================
(PID.TID 0000.0001) // Begin MONITOR dynamic field statistics
(PID.TID 0000.0001) // =======================================================
(PID.TID 0000.0001) %MON time_tsnumber                =                 72044
(PID.TID 0000.0001) %MON time_secondsf                =   6.2246016000000E+09
(PID.TID 0000.0001) %MON dynstat_eta_max              =   8.7755867470419E-01
(PID.TID 0000.0001) %MON dynstat_eta_min              =  -1.5983515288883E+00
(PID.TID 0000.0001) %MON dynstat_eta_mean             =   1.4400085136058E-14
(PID.TID 0000.0001) %MON dynstat_eta_sd               =   5.9625306622505E-01
(PID.TID 0000.0001) %MON dynstat_eta_del2             =   8.0613465403612E-04
(PID.TID 0000.0001) %MON dynstat_uvel_max             =   1.7344705381701E-01
(PID.TID 0000.0001) %MON dynstat_uvel_min             =  -2.6419691588896E-01
(PID.TID 0000.0001) %MON dynstat_uvel_mean            =  -4.6821083066864E-04
(PID.TID 0000.0001) %MON dynstat_uvel_sd              =   1.2004767943945E-02
(PID.TID 0000.0001) %MON dynstat_uvel_del2            =   5.1550027342632E-05
(PID.TID 0000.0001) %MON dynstat_vvel_max             =   1.8268082565938E-01
(PID.TID 0000.0001) %MON dynstat_vvel_min             =  -2.2299563611022E-01
(PID.TID 0000.0001) %MON dynstat_vvel_mean            =  -3.8348612799120E-04
(PID.TID 0000.0001) %MON dynstat_vvel_sd              =   1.2579508345491E-02
(PID.TID 0000.0001) %MON dynstat_vvel_del2            =   5.0210548653619E-05
(PID.TID 0000.0001) %MON dynstat_wvel_max             =   1.0389109116987E-04
(PID.TID 0000.0001) %MON dynstat_wvel_min             =  -1.9841071782980E-04
(PID.TID 0000.0001) %MON dynstat_wvel_mean            =   3.9645489851627E-11
(PID.TID 0000.0001) %MON dynstat_wvel_sd              =   3.6749253575657E-06
(PID.TID 0000.0001) %MON dynstat_wvel_del2            =   2.6524978642505E-08
(PID.TID 0000.0001) %MON dynstat_theta_max            =   3.1243047786643E+01
(PID.TID 0000.0001) %MON dynstat_theta_min            =  -3.8564460909366E+00
(PID.TID 0000.0001) %MON dynstat_theta_mean           =   3.9118391013476E+00
(PID.TID 0000.0001) %MON dynstat_theta_sd             =   4.5784155417703E+00
(PID.TID 0000.0001) %MON dynstat_theta_del2           =   2.7769037751713E-03
(PID.TID 0000.0001) %MON dynstat_salt_max             =   4.1412844340103E+01
(PID.TID 0000.0001) %MON dynstat_salt_min             =   1.8399681208335E+01
(PID.TID 0000.0001) %MON dynstat_salt_mean            =   3.4772100444955E+01
(PID.TID 0000.0001) %MON dynstat_salt_sd              =   5.3132990308554E-01
(PID.TID 0000.0001) %MON dynstat_salt_del2            =   8.3686139688109E-04
(PID.TID 0000.0001) %MON dynstat_sst_max              =   3.1243047786643E+01
(PID.TID 0000.0001) %MON dynstat_sst_min              =  -2.0010352038182E+00
(PID.TID 0000.0001) %MON dynstat_sst_mean             =   1.8329820498564E+01
(PID.TID 0000.0001) %MON dynstat_sst_sd               =   9.7997962254494E+00
(PID.TID 0000.0001) %MON dynstat_sst_del2             =   1.7632669795042E-02
(PID.TID 0000.0001) %MON dynstat_sss_max              =   4.1412844340103E+01
(PID.TID 0000.0001) %MON dynstat_sss_min              =   1.8399681208335E+01
(PID.TID 0000.0001) %MON dynstat_sss_mean             =   3.4620862844251E+01
(PID.TID 0000.0001) %MON dynstat_sss_sd               =   1.4596211777499E+00
(PID.TID 0000.0001) %MON dynstat_sss_del2             =   8.4702570191197E-03
(PID.TID 0000.0001) %MON forcing_qnet_max             =   4.0251818589816E+02
(PID.TID 0000.0001) %MON forcing_qnet_min             =  -1.9034744793389E+02
(PID.TID 0000.0001) %MON forcing_qnet_mean            =  -1.3607854911236E+01
(PID.TID 0000.0001) %MON forcing_qnet_sd              =   8.8169567050953E+01
(PID.TID 0000.0001) %MON forcing_qnet_del2            =   4.2479986477707E-01
(PID.TID 0000.0001) %MON forcing_qsw_max              =   0.0000000000000E+00
(PID.TID 0000.0001) %MON forcing_qsw_min              =   0.0000000000000E+00
(PID.TID 0000.0001) %MON forcing_qsw_mean             =   0.0000000000000E+00
(PID.TID 0000.0001) %MON forcing_qsw_sd               =   0.0000000000000E+00
(PID.TID 0000.0001) %MON forcing_qsw_del2             =   0.0000000000000E+00
(PID.TID 0000.0001) %MON forcing_empmr_max            =   7.6494447208479E-05
(PID.TID 0000.0001) %MON forcing_empmr_min            =  -1.5362614137596E-04
(PID.TID 0000.0001) %MON forcing_empmr_mean           =   4.1932798010144E-22
(PID.TID 0000.0001) %MON forcing_empmr_sd             =   2.4051723601802E-05
(PID.TID 0000.0001) %MON forcing_empmr_del2           =   1.2276157049243E-07
(PID.TID 0000.0001) %MON forcing_fu_max               =   2.6781491369290E-01
(PID.TID 0000.0001) %MON forcing_fu_min               =  -2.3339559259883E-01
(PID.TID 0000.0001) %MON forcing_fu_mean              =  -4.7952999779190E-03
(PID.TID 0000.0001) %MON forcing_fu_sd                =   6.5336810767755E-02
(PID.TID 0000.0001) %MON forcing_fu_del2              =   2.2677217378249E-04
(PID.TID 0000.0001) %MON forcing_fv_max               =   2.8587805616211E-01
(PID.TID 0000.0001) %MON forcing_fv_min               =  -3.0299033425523E-01
(PID.TID 0000.0001) %MON forcing_fv_mean              =  -1.3693264889696E-02
(PID.TID 0000.0001) %MON forcing_fv_sd                =   7.5822509794363E-02
(PID.TID 0000.0001) %MON forcing_fv_del2              =   2.5912702515386E-04
(PID.TID 0000.0001) %MON trAdv_CFL_u_max              =   7.4512388526690E-02
(PID.TID 0000.0001) %MON trAdv_CFL_v_max              =   8.4723555117470E-02
(PID.TID 0000.0001) %MON trAdv_CFL_w_max              =   7.1455242598132E-02
(PID.TID 0000.0001) %MON advcfl_uvel_max              =   7.4931256814586E-02
(PID.TID 0000.0001) %MON advcfl_vvel_max              =   7.9627998258324E-02
(PID.TID 0000.0001) %MON advcfl_wvel_max              =   6.4689381209416E-02
(PID.TID 0000.0001) %MON advcfl_W_hf_max              =   7.1455242598132E-02
(PID.TID 0000.0001) %MON pe_b_mean                    =   4.7361529996972E-04
(PID.TID 0000.0001) %MON ke_max                       =   3.5412611677405E-02
(PID.TID 0000.0001) %MON ke_mean                      =   1.3979032260860E-04
(PID.TID 0000.0001) %MON ke_vol                       =   1.3398024453628E+18
(PID.TID 0000.0001) %MON vort_r_min                   =  -1.3301484442733E-06
(PID.TID 0000.0001) %MON vort_r_max                   =   1.1759433263014E-06
(PID.TID 0000.0001) %MON vort_a_mean                  =  -2.0493733748264E-05
(PID.TID 0000.0001) %MON vort_a_sd                    =   7.5053946855718E-05
(PID.TID 0000.0001) %MON vort_p_mean                  =  -2.4715772180817E-05
(PID.TID 0000.0001) %MON vort_p_sd                    =   1.2777060910780E-04
(PID.TID 0000.0001) %MON surfExpan_theta_mean         =   5.0073711034387E-08
(PID.TID 0000.0001) %MON surfExpan_salt_mean          =   1.4957160588671E-08
(PID.TID 0000.0001) // =======================================================
(PID.TID 0000.0001) // End MONITOR dynamic field statistics
(PID.TID 0000.0001) // =======================================================
 DRIVER_GET_EXPORT_STATE_3D:MASK : Associated & shape =          32          32          15
  Finished plug run method 
 AGCM Date: 2000/04/15  Time: 08:00:00
 
 Writing:     40 Slices (  1 Nodes,  1 PartitionRoot) to File:  TEST.mit_ocn.20000415_0800z.nc4
 
  Starting plug run method 
 EXTERNAL_FIELDS_LOAD,     72044 : iP,iLd,i0,i1=    1    2    1    2 ; Wght=  0.0333333333  0.9666666667
 cg2d: Sum(rhs),rhsMax =  -2.32347474593553E-12  4.20575217986618E+00
(PID.TID 0000.0001)      cg2d_init_res =   3.34385514647932E-02
(PID.TID 0000.0001)      cg2d_iters(min,last) =      -1      85
(PID.TID 0000.0001)      cg2d_last_res =   9.74227780379143E-10
(PID.TID 0000.0001) // =======================================================
(PID.TID 0000.0001) // Begin MONITOR dynamic field statistics
(PID.TID 0000.0001) // =======================================================
(PID.TID 0000.0001) %MON time_tsnumber                =                 72045
(PID.TID 0000.0001) %MON time_secondsf                =   6.2246880000000E+09
(PID.TID 0000.0001) %MON dynstat_eta_max              =   8.7685601494031E-01
(PID.TID 0000.0001) %MON dynstat_eta_min              =  -1.5981979284213E+00
(PID.TID 0000.0001) %MON dynstat_eta_mean             =   1.4372604057554E-14
(PID.TID 0000.0001) %MON dynstat_eta_sd               =   5.9620582114671E-01
(PID.TID 0000.0001) %MON dynstat_eta_del2             =   8.0666165124811E-04
(PID.TID 0000.0001) %MON dynstat_uvel_max             =   1.7354745023284E-01
(PID.TID 0000.0001) %MON dynstat_uvel_min             =  -2.6347052003796E-01
(PID.TID 0000.0001) %MON dynstat_uvel_mean            =  -4.6770275293603E-04
(PID.TID 0000.0001) %MON dynstat_uvel_sd              =   1.2002763613871E-02
(PID.TID 0000.0001) %MON dynstat_uvel_del2            =   5.1568713250323E-05
(PID.TID 0000.0001) %MON dynstat_vvel_max             =   1.8219298206819E-01
(PID.TID 0000.0001) %MON dynstat_vvel_min             =  -2.2303783143180E-01
(PID.TID 0000.0001) %MON dynstat_vvel_mean            =  -3.8286195733478E-04
(PID.TID 0000.0001) %MON dynstat_vvel_sd              =   1.2579634235298E-02
(PID.TID 0000.0001) %MON dynstat_vvel_del2            =   5.0225343388135E-05
(PID.TID 0000.0001) %MON dynstat_wvel_max             =   1.0373718805922E-04
(PID.TID 0000.0001) %MON dynstat_wvel_min             =  -1.9868764272599E-04
(PID.TID 0000.0001) %MON dynstat_wvel_mean            =   4.1967582281747E-11
(PID.TID 0000.0001) %MON dynstat_wvel_sd              =   3.6706729483756E-06
(PID.TID 0000.0001) %MON dynstat_wvel_del2            =   2.6522112208332E-08
(PID.TID 0000.0001) %MON dynstat_theta_max            =   3.1241193649491E+01
(PID.TID 0000.0001) %MON dynstat_theta_min            =  -3.8749214123470E+00
(PID.TID 0000.0001) %MON dynstat_theta_mean           =   3.9119046761103E+00
(PID.TID 0000.0001) %MON dynstat_theta_sd             =   4.5787245395583E+00
(PID.TID 0000.0001) %MON dynstat_theta_del2           =   2.7809662384839E-03
(PID.TID 0000.0001) %MON dynstat_salt_max             =   4.1413493493294E+01
(PID.TID 0000.0001) %MON dynstat_salt_min             =   1.8403304376810E+01
(PID.TID 0000.0001) %MON dynstat_salt_mean            =   3.4772101493919E+01
(PID.TID 0000.0001) %MON dynstat_salt_sd              =   5.3132533693390E-01
(PID.TID 0000.0001) %MON dynstat_salt_del2            =   8.3771657745338E-04
(PID.TID 0000.0001) %MON dynstat_sst_max              =   3.1241193649491E+01
(PID.TID 0000.0001) %MON dynstat_sst_min              =  -1.9995114466530E+00
(PID.TID 0000.0001) %MON dynstat_sst_mean             =   1.8335584953604E+01
(PID.TID 0000.0001) %MON dynstat_sst_sd               =   9.8037941123843E+00
(PID.TID 0000.0001) %MON dynstat_sst_del2             =   1.7643036731025E-02
(PID.TID 0000.0001) %MON dynstat_sss_max              =   4.1413493493294E+01
(PID.TID 0000.0001) %MON dynstat_sss_min              =   1.8403304376810E+01
(PID.TID 0000.0001) %MON dynstat_sss_mean             =   3.4620771077105E+01
(PID.TID 0000.0001) %MON dynstat_sss_sd               =   1.4594721643884E+00
(PID.TID 0000.0001) %MON dynstat_sss_del2             =   8.4766705286773E-03
(PID.TID 0000.0001) %MON forcing_qnet_max             =   4.0122650523542E+02
(PID.TID 0000.0001) %MON forcing_qnet_min             =  -1.9012682494139E+02
(PID.TID 0000.0001) %MON forcing_qnet_mean            =  -1.3653519446591E+01
(PID.TID 0000.0001) %MON forcing_qnet_sd              =   8.7481705926786E+01
(PID.TID 0000.0001) %MON forcing_qnet_del2            =   4.2568964996579E-01
(PID.TID 0000.0001) %MON forcing_qsw_max              =   0.0000000000000E+00
(PID.TID 0000.0001) %MON forcing_qsw_min              =   0.0000000000000E+00
(PID.TID 0000.0001) %MON forcing_qsw_mean             =   0.0000000000000E+00
(PID.TID 0000.0001) %MON forcing_qsw_sd               =   0.0000000000000E+00
(PID.TID 0000.0001) %MON forcing_qsw_del2             =   0.0000000000000E+00
(PID.TID 0000.0001) %MON forcing_empmr_max            =   7.6494447208479E-05
(PID.TID 0000.0001) %MON forcing_empmr_min            =  -1.5362614137596E-04
(PID.TID 0000.0001) %MON forcing_empmr_mean           =   4.1932798010144E-22
(PID.TID 0000.0001) %MON forcing_empmr_sd             =   2.4051723601802E-05
(PID.TID 0000.0001) %MON forcing_empmr_del2           =   1.2276157049243E-07
(PID.TID 0000.0001) %MON forcing_fu_max               =   2.6965621347460E-01
(PID.TID 0000.0001) %MON forcing_fu_min               =  -2.3636395469907E-01
(PID.TID 0000.0001) %MON forcing_fu_mean              =  -4.8274286689567E-03
(PID.TID 0000.0001) %MON forcing_fu_sd                =   6.5538977797988E-02
(PID.TID 0000.0001) %MON forcing_fu_del2              =   2.3020738985025E-04
(PID.TID 0000.0001) %MON forcing_fv_max               =   2.8631149641613E-01
(PID.TID 0000.0001) %MON forcing_fv_min               =  -3.0582023635899E-01
(PID.TID 0000.0001) %MON forcing_fv_mean              =  -1.3691474896194E-02
(PID.TID 0000.0001) %MON forcing_fv_sd                =   7.6037494805404E-02
(PID.TID 0000.0001) %MON forcing_fv_del2              =   2.6197350714952E-04
(PID.TID 0000.0001) %MON trAdv_CFL_u_max              =   7.4307519622422E-02
(PID.TID 0000.0001) %MON trAdv_CFL_v_max              =   8.4497262273385E-02
(PID.TID 0000.0001) %MON trAdv_CFL_w_max              =   7.1554982644821E-02
(PID.TID 0000.0001) %MON advcfl_uvel_max              =   7.4725237172465E-02
(PID.TID 0000.0001) %MON advcfl_vvel_max              =   7.9415354109768E-02
(PID.TID 0000.0001) %MON advcfl_wvel_max              =   6.4779669175568E-02
(PID.TID 0000.0001) %MON advcfl_W_hf_max              =   7.1554982644821E-02
(PID.TID 0000.0001) %MON pe_b_mean                    =   4.7354024759107E-04
(PID.TID 0000.0001) %MON ke_max                       =   3.5377715656734E-02
(PID.TID 0000.0001) %MON ke_mean                      =   1.3976924305820E-04
(PID.TID 0000.0001) %MON ke_vol                       =   1.3398024453628E+18
(PID.TID 0000.0001) %MON vort_r_min                   =  -1.3309474476682E-06
(PID.TID 0000.0001) %MON vort_r_max                   =   1.1720580753742E-06
(PID.TID 0000.0001) %MON vort_a_mean                  =  -2.0493733748264E-05
(PID.TID 0000.0001) %MON vort_a_sd                    =   7.5053947021716E-05
(PID.TID 0000.0001) %MON vort_p_mean                  =  -2.4715772155402E-05
(PID.TID 0000.0001) %MON vort_p_sd                    =   1.2777060060064E-04
(PID.TID 0000.0001) %MON surfExpan_theta_mean         =   5.0381384456969E-08
(PID.TID 0000.0001) %MON surfExpan_salt_mean          =   1.4956709657297E-08
(PID.TID 0000.0001) // =======================================================
(PID.TID 0000.0001) // End MONITOR dynamic field statistics
(PID.TID 0000.0001) // =======================================================
 DRIVER_GET_EXPORT_STATE_3D:MASK : Associated & shape =          32          32          15
  Finished plug run method 
 AGCM Date: 2000/04/15  Time: 08:15:00
  Starting plug run method 
 EXTERNAL_FIELDS_LOAD,     72045 : iP,iLd,i0,i1=    1    2    2    3 ; Wght=  1.0000000000  0.0000000000
 EXTERNAL_FIELDS_LOAD, it=     72045 : Reading new data, i0,i1=    2    3 (prev=    1    2 )
(PID.TID 0000.0001)  MDS_READ_FIELD: opening global file: trenberth_taux.bin
(PID.TID 0000.0001)  MDS_READ_FIELD: opening global file: trenberth_taux.bin
(PID.TID 0000.0001)  MDS_READ_FIELD: opening global file: trenberth_tauy.bin
(PID.TID 0000.0001)  MDS_READ_FIELD: opening global file: trenberth_tauy.bin
(PID.TID 0000.0001)  MDS_READ_FIELD: opening global file: shiQnet_cs32.bin
(PID.TID 0000.0001)  MDS_READ_FIELD: opening global file: shiQnet_cs32.bin
(PID.TID 0000.0001)  MDS_READ_FIELD: opening global file: shiEmPR_cs32.bin
(PID.TID 0000.0001)  MDS_READ_FIELD: opening global file: shiEmPR_cs32.bin
(PID.TID 0000.0001)  MDS_READ_FIELD: opening global file: lev_surfT_cs_12m.bin
(PID.TID 0000.0001)  MDS_READ_FIELD: opening global file: lev_surfT_cs_12m.bin
(PID.TID 0000.0001)  MDS_READ_FIELD: opening global file: lev_surfS_cs_12m.bin
(PID.TID 0000.0001)  MDS_READ_FIELD: opening global file: lev_surfS_cs_12m.bin
 cg2d: Sum(rhs),rhsMax =  -2.24531504500192E-12  4.20971425392905E+00
(PID.TID 0000.0001)      cg2d_init_res =   3.33272335634350E-02
(PID.TID 0000.0001)      cg2d_iters(min,last) =      -1      85
(PID.TID 0000.0001)      cg2d_last_res =   9.77346781674246E-10
(PID.TID 0000.0001) // =======================================================
(PID.TID 0000.0001) // Begin MONITOR dynamic field statistics
(PID.TID 0000.0001) // =======================================================
(PID.TID 0000.0001) %MON time_tsnumber                =                 72046
(PID.TID 0000.0001) %MON time_secondsf                =   6.2247744000000E+09
(PID.TID 0000.0001) %MON dynstat_eta_max              =   8.7614032078401E-01
(PID.TID 0000.0001) %MON dynstat_eta_min              =  -1.5980673331513E+00
(PID.TID 0000.0001) %MON dynstat_eta_mean             =   1.4070312194011E-14
(PID.TID 0000.0001) %MON dynstat_eta_sd               =   5.9615943672476E-01
(PID.TID 0000.0001) %MON dynstat_eta_del2             =   8.0718960817590E-04
(PID.TID 0000.0001) %MON dynstat_uvel_max             =   1.7366764272475E-01
(PID.TID 0000.0001) %MON dynstat_uvel_min             =  -2.6274352704286E-01
(PID.TID 0000.0001) %MON dynstat_uvel_mean            =  -4.6718811141404E-04
(PID.TID 0000.0001) %MON dynstat_uvel_sd              =   1.2000447478913E-02
(PID.TID 0000.0001) %MON dynstat_uvel_del2            =   5.1587469941215E-05
(PID.TID 0000.0001) %MON dynstat_vvel_max             =   1.8162170917161E-01
(PID.TID 0000.0001) %MON dynstat_vvel_min             =  -2.2307674768406E-01
(PID.TID 0000.0001) %MON dynstat_vvel_mean            =  -3.8224237921971E-04
(PID.TID 0000.0001) %MON dynstat_vvel_sd              =   1.2580010003735E-02
(PID.TID 0000.0001) %MON dynstat_vvel_del2            =   5.0241745792637E-05
(PID.TID 0000.0001) %MON dynstat_wvel_max             =   1.0363923357145E-04
(PID.TID 0000.0001) %MON dynstat_wvel_min             =  -1.9897014010232E-04
(PID.TID 0000.0001) %MON dynstat_wvel_mean            =   4.3335798188581E-11
(PID.TID 0000.0001) %MON dynstat_wvel_sd              =   3.6665060712609E-06
(PID.TID 0000.0001) %MON dynstat_wvel_del2            =   2.6519645374216E-08
(PID.TID 0000.0001) %MON dynstat_theta_max            =   3.1238962620063E+01
(PID.TID 0000.0001) %MON dynstat_theta_min            =  -3.8930287281379E+00
(PID.TID 0000.0001) %MON dynstat_theta_mean           =   3.9119703938758E+00
(PID.TID 0000.0001) %MON dynstat_theta_sd             =   4.5790358015847E+00
(PID.TID 0000.0001) %MON dynstat_theta_del2           =   2.7822623154364E-03
(PID.TID 0000.0001) %MON dynstat_salt_max             =   4.1414139819078E+01
(PID.TID 0000.0001) %MON dynstat_salt_min             =   1.8413250741777E+01
(PID.TID 0000.0001) %MON dynstat_salt_mean            =   3.4772102554849E+01
(PID.TID 0000.0001) %MON dynstat_salt_sd              =   5.3131977220109E-01
(PID.TID 0000.0001) %MON dynstat_salt_del2            =   8.3825494950684E-04
(PID.TID 0000.0001) %MON dynstat_sst_max              =   3.1238962620063E+01
(PID.TID 0000.0001) %MON dynstat_sst_min              =  -1.9980842288247E+00
(PID.TID 0000.0001) %MON dynstat_sst_mean             =   1.8341383158563E+01
(PID.TID 0000.0001) %MON dynstat_sst_sd               =   9.8078553172234E+00
(PID.TID 0000.0001) %MON dynstat_sst_del2             =   1.7664706111024E-02
(PID.TID 0000.0001) %MON dynstat_sss_max              =   4.1414139819078E+01
(PID.TID 0000.0001) %MON dynstat_sss_min              =   1.8413250741777E+01
(PID.TID 0000.0001) %MON dynstat_sss_mean             =   3.4620689111569E+01
(PID.TID 0000.0001) %MON dynstat_sss_sd               =   1.4592778149947E+00
(PID.TID 0000.0001) %MON dynstat_sss_del2             =   8.4851566858747E-03
(PID.TID 0000.0001) %MON forcing_qnet_max             =   3.9993482457267E+02
(PID.TID 0000.0001) %MON forcing_qnet_min             =  -1.8990620194889E+02
(PID.TID 0000.0001) %MON forcing_qnet_mean            =  -1.3699183981947E+01
(PID.TID 0000.0001) %MON forcing_qnet_sd              =   8.6812164131190E+01
(PID.TID 0000.0001) %MON forcing_qnet_del2            =   4.2668493726690E-01
(PID.TID 0000.0001) %MON forcing_qsw_max              =   0.0000000000000E+00
(PID.TID 0000.0001) %MON forcing_qsw_min              =   0.0000000000000E+00
(PID.TID 0000.0001) %MON forcing_qsw_mean             =   0.0000000000000E+00
(PID.TID 0000.0001) %MON forcing_qsw_sd               =   0.0000000000000E+00
(PID.TID 0000.0001) %MON forcing_qsw_del2             =   0.0000000000000E+00
(PID.TID 0000.0001) %MON forcing_empmr_max            =   7.6494447208479E-05
(PID.TID 0000.0001) %MON forcing_empmr_min            =  -1.5362614137596E-04
(PID.TID 0000.0001) %MON forcing_empmr_mean           =   4.1932798010144E-22
(PID.TID 0000.0001) %MON forcing_empmr_sd             =   2.4051723601802E-05
(PID.TID 0000.0001) %MON forcing_empmr_del2           =   1.2276157049243E-07
(PID.TID 0000.0001) %MON forcing_fu_max               =   2.7149751325630E-01
(PID.TID 0000.0001) %MON forcing_fu_min               =  -2.3933231679931E-01
(PID.TID 0000.0001) %MON forcing_fu_mean              =  -4.8595573599945E-03
(PID.TID 0000.0001) %MON forcing_fu_sd                =   6.5754751794427E-02
(PID.TID 0000.0001) %MON forcing_fu_del2              =   2.3383425831608E-04
(PID.TID 0000.0001) %MON forcing_fv_max               =   2.8674493667015E-01
(PID.TID 0000.0001) %MON forcing_fv_min               =  -3.0865013846275E-01
(PID.TID 0000.0001) %MON forcing_fv_mean              =  -1.3689684902691E-02
(PID.TID 0000.0001) %MON forcing_fv_sd                =   7.6269086061621E-02
(PID.TID 0000.0001) %MON forcing_fv_del2              =   2.6497670929648E-04
(PID.TID 0000.0001) %MON trAdv_CFL_u_max              =   7.4102482190028E-02
(PID.TID 0000.0001) %MON trAdv_CFL_v_max              =   8.4232277439991E-02
(PID.TID 0000.0001) %MON trAdv_CFL_w_max              =   7.1656728682854E-02
(PID.TID 0000.0001) %MON advcfl_uvel_max              =   7.4519048168953E-02
(PID.TID 0000.0001) %MON advcfl_vvel_max              =   7.9166344302365E-02
(PID.TID 0000.0001) %MON advcfl_wvel_max              =   6.4871773980529E-02
(PID.TID 0000.0001) %MON advcfl_W_hf_max              =   7.1656728682854E-02
(PID.TID 0000.0001) %MON pe_b_mean                    =   4.7346656821577E-04
(PID.TID 0000.0001) %MON ke_max                       =   3.5342183250700E-02
(PID.TID 0000.0001) %MON ke_mean                      =   1.3974764505099E-04
(PID.TID 0000.0001) %MON ke_vol                       =   1.3398024453628E+18
(PID.TID 0000.0001) %MON vort_r_min                   =  -1.3318313773924E-06
(PID.TID 0000.0001) %MON vort_r_max                   =   1.1683660668638E-06
(PID.TID 0000.0001) %MON vort_a_mean                  =  -2.0493733748264E-05
(PID.TID 0000.0001) %MON vort_a_sd                    =   7.5053947200153E-05
(PID.TID 0000.0001) %MON vort_p_mean                  =  -2.4715772131991E-05
(PID.TID 0000.0001) %MON vort_p_sd                    =   1.2777059208038E-04
(PID.TID 0000.0001) %MON surfExpan_theta_mean         =   5.0711328989748E-08
(PID.TID 0000.0001) %MON surfExpan_salt_mean          =   1.4969314727460E-08
(PID.TID 0000.0001) // =======================================================
(PID.TID 0000.0001) // End MONITOR dynamic field statistics
(PID.TID 0000.0001) // =======================================================
 DRIVER_GET_EXPORT_STATE_3D:MASK : Associated & shape =          32          32          15
  Finished plug run method 
 AGCM Date: 2000/04/15  Time: 08:30:00
  Starting plug run method 
 EXTERNAL_FIELDS_LOAD,     72046 : iP,iLd,i0,i1=    2    3    2    3 ; Wght=  0.9666666667  0.0333333333
 cg2d: Sum(rhs),rhsMax =  -2.34479102800833E-12  4.21364597587675E+00
(PID.TID 0000.0001)      cg2d_init_res =   3.33458910110169E-02
(PID.TID 0000.0001)      cg2d_iters(min,last) =      -1      85
(PID.TID 0000.0001)      cg2d_last_res =   9.84098943601069E-10
(PID.TID 0000.0001) // =======================================================
(PID.TID 0000.0001) // Begin MONITOR dynamic field statistics
(PID.TID 0000.0001) // =======================================================
(PID.TID 0000.0001) %MON time_tsnumber                =                 72047
(PID.TID 0000.0001) %MON time_secondsf                =   6.2248608000000E+09
(PID.TID 0000.0001) %MON dynstat_eta_max              =   8.7543408854552E-01
(PID.TID 0000.0001) %MON dynstat_eta_min              =  -1.5980055074362E+00
(PID.TID 0000.0001) %MON dynstat_eta_mean             =   1.4262679743539E-14
(PID.TID 0000.0001) %MON dynstat_eta_sd               =   5.9611749682774E-01
(PID.TID 0000.0001) %MON dynstat_eta_del2             =   8.0773579544058E-04
(PID.TID 0000.0001) %MON dynstat_uvel_max             =   1.7388321071554E-01
(PID.TID 0000.0001) %MON dynstat_uvel_min             =  -2.6202108767451E-01
(PID.TID 0000.0001) %MON dynstat_uvel_mean            =  -4.6671652506284E-04
(PID.TID 0000.0001) %MON dynstat_uvel_sd              =   1.1997644732894E-02
(PID.TID 0000.0001) %MON dynstat_uvel_del2            =   5.1604925555134E-05
(PID.TID 0000.0001) %MON dynstat_vvel_max             =   1.8090233864614E-01
(PID.TID 0000.0001) %MON dynstat_vvel_min             =  -2.2311059696014E-01
(PID.TID 0000.0001) %MON dynstat_vvel_mean            =  -3.8161192323178E-04
(PID.TID 0000.0001) %MON dynstat_vvel_sd              =   1.2580903774928E-02
(PID.TID 0000.0001) %MON dynstat_vvel_del2            =   5.0257773439946E-05
(PID.TID 0000.0001) %MON dynstat_wvel_max             =   1.0359618593132E-04
(PID.TID 0000.0001) %MON dynstat_wvel_min             =  -1.9924440087014E-04
(PID.TID 0000.0001) %MON dynstat_wvel_mean            =   6.3400554614074E-11
(PID.TID 0000.0001) %MON dynstat_wvel_sd              =   3.6624475443246E-06
(PID.TID 0000.0001) %MON dynstat_wvel_del2            =   2.6517689473796E-08
(PID.TID 0000.0001) %MON dynstat_theta_max            =   3.1237078541719E+01
(PID.TID 0000.0001) %MON dynstat_theta_min            =  -3.9107585297000E+00
(PID.TID 0000.0001) %MON dynstat_theta_mean           =   3.9120338700999E+00
(PID.TID 0000.0001) %MON dynstat_theta_sd             =   4.5793444790104E+00
(PID.TID 0000.0001) %MON dynstat_theta_del2           =   2.7844828753994E-03
(PID.TID 0000.0001) %MON dynstat_salt_max             =   4.1414810370853E+01
(PID.TID 0000.0001) %MON dynstat_salt_min             =   1.8413673552965E+01
(PID.TID 0000.0001) %MON dynstat_salt_mean            =   3.4772103620161E+01
(PID.TID 0000.0001) %MON dynstat_salt_sd              =   5.3131432884957E-01
(PID.TID 0000.0001) %MON dynstat_salt_del2            =   8.3912566448518E-04
(PID.TID 0000.0001) %MON dynstat_sst_max              =   3.1237078541719E+01
(PID.TID 0000.0001) %MON dynstat_sst_min              =  -1.9958815274783E+00
(PID.TID 0000.0001) %MON dynstat_sst_mean             =   1.8347031181224E+01
(PID.TID 0000.0001) %MON dynstat_sst_sd               =   9.8120199069062E+00
(PID.TID 0000.0001) %MON dynstat_sst_del2             =   1.7696094362202E-02
(PID.TID 0000.0001) %MON dynstat_sss_max              =   4.1414810370853E+01
(PID.TID 0000.0001) %MON dynstat_sss_min              =   1.8413673552965E+01
(PID.TID 0000.0001) %MON dynstat_sss_mean             =   3.4620634235033E+01
(PID.TID 0000.0001) %MON dynstat_sss_sd               =   1.4590522860046E+00
(PID.TID 0000.0001) %MON dynstat_sss_del2             =   8.4956025192424E-03
(PID.TID 0000.0001) %MON forcing_qnet_max             =   3.9455027982402E+02
(PID.TID 0000.0001) %MON forcing_qnet_min             =  -1.8860205515447E+02
(PID.TID 0000.0001) %MON forcing_qnet_mean            =  -1.3495865835952E+01
(PID.TID 0000.0001) %MON forcing_qnet_sd              =   8.5513320384978E+01
(PID.TID 0000.0001) %MON forcing_qnet_del2            =   4.2607488152198E-01
(PID.TID 0000.0001) %MON forcing_qsw_max              =   0.0000000000000E+00
(PID.TID 0000.0001) %MON forcing_qsw_min              =   0.0000000000000E+00
(PID.TID 0000.0001) %MON forcing_qsw_mean             =   0.0000000000000E+00
(PID.TID 0000.0001) %MON forcing_qsw_sd               =   0.0000000000000E+00
(PID.TID 0000.0001) %MON forcing_qsw_del2             =   0.0000000000000E+00
(PID.TID 0000.0001) %MON forcing_empmr_max            =   7.6494447208479E-05
(PID.TID 0000.0001) %MON forcing_empmr_min            =  -1.5362614137596E-04
(PID.TID 0000.0001) %MON forcing_empmr_mean           =   0.0000000000000E+00
(PID.TID 0000.0001) %MON forcing_empmr_sd             =   2.4051723601802E-05
(PID.TID 0000.0001) %MON forcing_empmr_del2           =   1.2276157049243E-07
(PID.TID 0000.0001) %MON forcing_fu_max               =   2.6983795128906E-01
(PID.TID 0000.0001) %MON forcing_fu_min               =  -2.4124760111361E-01
(PID.TID 0000.0001) %MON forcing_fu_mean              =  -4.9843868940058E-03
(PID.TID 0000.0001) %MON forcing_fu_sd                =   6.5705420781621E-02
(PID.TID 0000.0001) %MON forcing_fu_del2              =   2.3016180816885E-04
(PID.TID 0000.0001) %MON forcing_fv_max               =   2.8425241617652E-01
(PID.TID 0000.0001) %MON forcing_fv_min               =  -3.0904892064708E-01
(PID.TID 0000.0001) %MON forcing_fv_mean              =  -1.3655037852591E-02
(PID.TID 0000.0001) %MON forcing_fv_sd                =   7.6118450385746E-02
(PID.TID 0000.0001) %MON forcing_fv_del2              =   2.6101588474223E-04
(PID.TID 0000.0001) %MON trAdv_CFL_u_max              =   7.3898728923548E-02
(PID.TID 0000.0001) %MON trAdv_CFL_v_max              =   8.3898608873172E-02
(PID.TID 0000.0001) %MON trAdv_CFL_w_max              =   7.1755507533718E-02
(PID.TID 0000.0001) %MON advcfl_uvel_max              =   7.4314150660365E-02
(PID.TID 0000.0001) %MON advcfl_vvel_max              =   7.8852780824959E-02
(PID.TID 0000.0001) %MON advcfl_wvel_max              =   6.4961193340301E-02
(PID.TID 0000.0001) %MON advcfl_W_hf_max              =   7.1755507533718E-02
(PID.TID 0000.0001) %MON pe_b_mean                    =   4.7339995368478E-04
(PID.TID 0000.0001) %MON ke_max                       =   3.5307792155263E-02
(PID.TID 0000.0001) %MON ke_mean                      =   1.3972674979403E-04
(PID.TID 0000.0001) %MON ke_vol                       =   1.3398024453628E+18
(PID.TID 0000.0001) %MON vort_r_min                   =  -1.3325588146273E-06
(PID.TID 0000.0001) %MON vort_r_max                   =   1.1649554870156E-06
(PID.TID 0000.0001) %MON vort_a_mean                  =  -2.0493733748264E-05
(PID.TID 0000.0001) %MON vort_a_sd                    =   7.5053947389590E-05
(PID.TID 0000.0001) %MON vort_p_mean                  =  -2.4715772110214E-05
(PID.TID 0000.0001) %MON vort_p_sd                    =   1.2777058360149E-04
(PID.TID 0000.0001) %MON surfExpan_theta_mean         =   5.1444604585284E-08
(PID.TID 0000.0001) %MON surfExpan_salt_mean          =   1.4927404325413E-08
(PID.TID 0000.0001) // =======================================================
(PID.TID 0000.0001) // End MONITOR dynamic field statistics
(PID.TID 0000.0001) // =======================================================
 DRIVER_GET_EXPORT_STATE_3D:MASK : Associated & shape =          32          32          15
  Finished plug run method 
 AGCM Date: 2000/04/15  Time: 08:45:00
  Starting plug run method 
 EXTERNAL_FIELDS_LOAD,     72047 : iP,iLd,i0,i1=    2    3    2    3 ; Wght=  0.9333333333  0.0666666667
 cg2d: Sum(rhs),rhsMax =  -2.29505303650512E-12  4.21745276974613E+00
(PID.TID 0000.0001)      cg2d_init_res =   3.30189967075897E-02
(PID.TID 0000.0001)      cg2d_iters(min,last) =      -1      85
(PID.TID 0000.0001)      cg2d_last_res =   9.56800735592685E-10
(PID.TID 0000.0001) // =======================================================
(PID.TID 0000.0001) // Begin MONITOR dynamic field statistics
(PID.TID 0000.0001) // =======================================================
(PID.TID 0000.0001) %MON time_tsnumber                =                 72048
(PID.TID 0000.0001) %MON time_secondsf                =   6.2249472000000E+09
(PID.TID 0000.0001) %MON dynstat_eta_max              =   8.7513748770105E-01
(PID.TID 0000.0001) %MON dynstat_eta_min              =  -1.5980004845407E+00
(PID.TID 0000.0001) %MON dynstat_eta_mean             =   1.4537490528578E-14
(PID.TID 0000.0001) %MON dynstat_eta_sd               =   5.9608051237454E-01
(PID.TID 0000.0001) %MON dynstat_eta_del2             =   8.0824168016525E-04
(PID.TID 0000.0001) %MON dynstat_uvel_max             =   1.7417165020051E-01
(PID.TID 0000.0001) %MON dynstat_uvel_min             =  -2.6130174034602E-01
(PID.TID 0000.0001) %MON dynstat_uvel_mean            =  -4.6626005055860E-04
(PID.TID 0000.0001) %MON dynstat_uvel_sd              =   1.1994303182614E-02
(PID.TID 0000.0001) %MON dynstat_uvel_del2            =   5.1621026882487E-05
(PID.TID 0000.0001) %MON dynstat_vvel_max             =   1.8007348733258E-01
(PID.TID 0000.0001) %MON dynstat_vvel_min             =  -2.2314009311152E-01
(PID.TID 0000.0001) %MON dynstat_vvel_mean            =  -3.8098891285211E-04
(PID.TID 0000.0001) %MON dynstat_vvel_sd              =   1.2582215343540E-02
(PID.TID 0000.0001) %MON dynstat_vvel_del2            =   5.0274006413702E-05
(PID.TID 0000.0001) %MON dynstat_wvel_max             =   1.0360719703427E-04
(PID.TID 0000.0001) %MON dynstat_wvel_min             =  -1.9950991782424E-04
(PID.TID 0000.0001) %MON dynstat_wvel_mean            =   6.9483120111976E-11
(PID.TID 0000.0001) %MON dynstat_wvel_sd              =   3.6583985593925E-06
(PID.TID 0000.0001) %MON dynstat_wvel_del2            =   2.6516364403600E-08
(PID.TID 0000.0001) %MON dynstat_theta_max            =   3.1235533033565E+01
(PID.TID 0000.0001) %MON dynstat_theta_min            =  -3.9280757603361E+00
(PID.TID 0000.0001) %MON dynstat_theta_mean           =   3.9120950466796E+00
(PID.TID 0000.0001) %MON dynstat_theta_sd             =   4.5796511839839E+00
(PID.TID 0000.0001) %MON dynstat_theta_del2           =   2.7892413434892E-03
(PID.TID 0000.0001) %MON dynstat_salt_max             =   4.1415500863954E+01
(PID.TID 0000.0001) %MON dynstat_salt_min             =   1.8414081128916E+01
(PID.TID 0000.0001) %MON dynstat_salt_mean            =   3.4772104685696E+01
(PID.TID 0000.0001) %MON dynstat_salt_sd              =   5.3130932891218E-01
(PID.TID 0000.0001) %MON dynstat_salt_del2            =   8.4024272162663E-04
(PID.TID 0000.0001) %MON dynstat_sst_max              =   3.1235533033565E+01
(PID.TID 0000.0001) %MON dynstat_sst_min              =  -1.9937736851133E+00
(PID.TID 0000.0001) %MON dynstat_sst_mean             =   1.8352441353689E+01
(PID.TID 0000.0001) %MON dynstat_sst_sd               =   9.8163430106674E+00
(PID.TID 0000.0001) %MON dynstat_sst_del2             =   1.7734557367780E-02
(PID.TID 0000.0001) %MON dynstat_sss_max              =   4.1415500863954E+01
(PID.TID 0000.0001) %MON dynstat_sss_min              =   1.8414081128916E+01
(PID.TID 0000.0001) %MON dynstat_sss_mean             =   3.4620587279996E+01
(PID.TID 0000.0001) %MON dynstat_sss_sd               =   1.4588784578427E+00
(PID.TID 0000.0001) %MON dynstat_sss_del2             =   8.5067785544680E-03
(PID.TID 0000.0001) %MON forcing_qnet_max             =   3.8916573507537E+02
(PID.TID 0000.0001) %MON forcing_qnet_min             =  -1.8729790836006E+02
(PID.TID 0000.0001) %MON forcing_qnet_mean            =  -1.3292547689957E+01
(PID.TID 0000.0001) %MON forcing_qnet_sd              =   8.4232910607793E+01
(PID.TID 0000.0001) %MON forcing_qnet_del2            =   4.2557416241461E-01
(PID.TID 0000.0001) %MON forcing_qsw_max              =   0.0000000000000E+00
(PID.TID 0000.0001) %MON forcing_qsw_min              =   0.0000000000000E+00
(PID.TID 0000.0001) %MON forcing_qsw_mean             =   0.0000000000000E+00
(PID.TID 0000.0001) %MON forcing_qsw_sd               =   0.0000000000000E+00
(PID.TID 0000.0001) %MON forcing_qsw_del2             =   0.0000000000000E+00
(PID.TID 0000.0001) %MON forcing_empmr_max            =   7.6494447208479E-05
(PID.TID 0000.0001) %MON forcing_empmr_min            =  -1.5362614137596E-04
(PID.TID 0000.0001) %MON forcing_empmr_mean           =   8.3865596020288E-22
(PID.TID 0000.0001) %MON forcing_empmr_sd             =   2.4051723601802E-05
(PID.TID 0000.0001) %MON forcing_empmr_del2           =   1.2276157049243E-07
(PID.TID 0000.0001) %MON forcing_fu_max               =   2.6817838932182E-01
(PID.TID 0000.0001) %MON forcing_fu_min               =  -2.4316288542792E-01
(PID.TID 0000.0001) %MON forcing_fu_mean              =  -5.1092164280170E-03
(PID.TID 0000.0001) %MON forcing_fu_sd                =   6.5671669073129E-02
(PID.TID 0000.0001) %MON forcing_fu_del2              =   2.2668006584341E-04
(PID.TID 0000.0001) %MON forcing_fv_max               =   2.8175989568288E-01
(PID.TID 0000.0001) %MON forcing_fv_min               =  -3.0944770283141E-01
(PID.TID 0000.0001) %MON forcing_fv_mean              =  -1.3620390802491E-02
(PID.TID 0000.0001) %MON forcing_fv_sd                =   7.5988184473441E-02
(PID.TID 0000.0001) %MON forcing_fv_del2              =   2.5727220896445E-04
(PID.TID 0000.0001) %MON trAdv_CFL_u_max              =   7.3695847636368E-02
(PID.TID 0000.0001) %MON trAdv_CFL_v_max              =   8.3514167595653E-02
(PID.TID 0000.0001) %MON trAdv_CFL_w_max              =   7.1851140639127E-02
(PID.TID 0000.0001) %MON advcfl_uvel_max              =   7.4110130112930E-02
(PID.TID 0000.0001) %MON advcfl_vvel_max              =   7.8491496214411E-02
(PID.TID 0000.0001) %MON advcfl_wvel_max              =   6.5047761886848E-02
(PID.TID 0000.0001) %MON advcfl_W_hf_max              =   7.1851140639127E-02
(PID.TID 0000.0001) %MON pe_b_mean                    =   4.7334121393836E-04
(PID.TID 0000.0001) %MON ke_max                       =   3.5273855339556E-02
(PID.TID 0000.0001) %MON ke_mean                      =   1.3970481168439E-04
(PID.TID 0000.0001) %MON ke_vol                       =   1.3398024453628E+18
(PID.TID 0000.0001) %MON vort_r_min                   =  -1.3331988365353E-06
(PID.TID 0000.0001) %MON vort_r_max                   =   1.1618564774187E-06
(PID.TID 0000.0001) %MON vort_a_mean                  =  -2.0493733748264E-05
(PID.TID 0000.0001) %MON vort_a_sd                    =   7.5053947584832E-05
(PID.TID 0000.0001) %MON vort_p_mean                  =  -2.4715772094530E-05
(PID.TID 0000.0001) %MON vort_p_sd                    =   1.2777057543332E-04
(PID.TID 0000.0001) %MON surfExpan_theta_mean         =   5.2313475131950E-08
(PID.TID 0000.0001) %MON surfExpan_salt_mean          =   1.4927861723915E-08
(PID.TID 0000.0001) // =======================================================
(PID.TID 0000.0001) // End MONITOR dynamic field statistics
(PID.TID 0000.0001) // =======================================================
 DRIVER_GET_EXPORT_STATE_3D:MASK : Associated & shape =          32          32          15
  Finished plug run method 
 AGCM Date: 2000/04/15  Time: 09:00:00
 
 Writing:    147 Slices (  1 Nodes,  1 PartitionRoot) to File:  TEST.geosgcm_surf.20000415_0730z.nc4
 Writing:     40 Slices (  1 Nodes,  1 PartitionRoot) to File:  TEST.mit_ocn.20000415_0900z.nc4
 
  Starting plug run method 
 EXTERNAL_FIELDS_LOAD,     72048 : iP,iLd,i0,i1=    2    3    2    3 ; Wght=  0.9000000000  0.1000000000
 cg2d: Sum(rhs),rhsMax =  -2.30215846386272E-12  4.22109156097929E+00
(PID.TID 0000.0001)      cg2d_init_res =   3.26823557750695E-02
(PID.TID 0000.0001)      cg2d_iters(min,last) =      -1      85
(PID.TID 0000.0001)      cg2d_last_res =   9.26950535857764E-10
(PID.TID 0000.0001) // =======================================================
(PID.TID 0000.0001) // Begin MONITOR dynamic field statistics
(PID.TID 0000.0001) // =======================================================
(PID.TID 0000.0001) %MON time_tsnumber                =                 72049
(PID.TID 0000.0001) %MON time_secondsf                =   6.2250336000000E+09
(PID.TID 0000.0001) %MON dynstat_eta_max              =   8.7489161286738E-01
(PID.TID 0000.0001) %MON dynstat_eta_min              =  -1.5980328909578E+00
(PID.TID 0000.0001) %MON dynstat_eta_mean             =   1.4152755429523E-14
(PID.TID 0000.0001) %MON dynstat_eta_sd               =   5.9604930902752E-01
(PID.TID 0000.0001) %MON dynstat_eta_del2             =   8.0870757224318E-04
(PID.TID 0000.0001) %MON dynstat_uvel_max             =   1.7452822650469E-01
(PID.TID 0000.0001) %MON dynstat_uvel_min             =  -2.6058584208207E-01
(PID.TID 0000.0001) %MON dynstat_uvel_mean            =  -4.6580449393794E-04
(PID.TID 0000.0001) %MON dynstat_uvel_sd              =   1.1990401734361E-02
(PID.TID 0000.0001) %MON dynstat_uvel_del2            =   5.1635636041294E-05
(PID.TID 0000.0001) %MON dynstat_vvel_max             =   1.7914358777342E-01
(PID.TID 0000.0001) %MON dynstat_vvel_min             =  -2.2316524693670E-01
(PID.TID 0000.0001) %MON dynstat_vvel_mean            =  -3.8039478646934E-04
(PID.TID 0000.0001) %MON dynstat_vvel_sd              =   1.2583944873461E-02
(PID.TID 0000.0001) %MON dynstat_vvel_del2            =   5.0290349920074E-05
(PID.TID 0000.0001) %MON dynstat_wvel_max             =   1.0367148407299E-04
(PID.TID 0000.0001) %MON dynstat_wvel_min             =  -1.9976207404271E-04
(PID.TID 0000.0001) %MON dynstat_wvel_mean            =   6.0869933838589E-11
(PID.TID 0000.0001) %MON dynstat_wvel_sd              =   3.6543156516179E-06
(PID.TID 0000.0001) %MON dynstat_wvel_del2            =   2.6515685683382E-08
(PID.TID 0000.0001) %MON dynstat_theta_max            =   3.1234320075189E+01
(PID.TID 0000.0001) %MON dynstat_theta_min            =  -3.9449642025595E+00
(PID.TID 0000.0001) %MON dynstat_theta_mean           =   3.9121538993711E+00
(PID.TID 0000.0001) %MON dynstat_theta_sd             =   4.5799550263950E+00
(PID.TID 0000.0001) %MON dynstat_theta_del2           =   2.7937725467705E-03
(PID.TID 0000.0001) %MON dynstat_salt_max             =   4.1416208586170E+01
(PID.TID 0000.0001) %MON dynstat_salt_min             =   1.8414473118660E+01
(PID.TID 0000.0001) %MON dynstat_salt_mean            =   3.4772105751675E+01
(PID.TID 0000.0001) %MON dynstat_salt_sd              =   5.3130430358834E-01
(PID.TID 0000.0001) %MON dynstat_salt_del2            =   8.4132293160565E-04
(PID.TID 0000.0001) %MON dynstat_sst_max              =   3.1234320075189E+01
(PID.TID 0000.0001) %MON dynstat_sst_min              =  -1.9917644572848E+00
(PID.TID 0000.0001) %MON dynstat_sst_mean             =   1.8357625482437E+01
(PID.TID 0000.0001) %MON dynstat_sst_sd               =   9.8208116719300E+00
(PID.TID 0000.0001) %MON dynstat_sst_del2             =   1.7774004824046E-02
(PID.TID 0000.0001) %MON dynstat_sss_max              =   4.1416208586170E+01
(PID.TID 0000.0001) %MON dynstat_sss_min              =   1.8414473118660E+01
(PID.TID 0000.0001) %MON dynstat_sss_mean             =   3.4620552167561E+01
(PID.TID 0000.0001) %MON dynstat_sss_sd               =   1.4587186636996E+00
(PID.TID 0000.0001) %MON dynstat_sss_del2             =   8.5173466973096E-03
(PID.TID 0000.0001) %MON forcing_qnet_max             =   3.8378119032672E+02
(PID.TID 0000.0001) %MON forcing_qnet_min             =  -1.8599376156564E+02
(PID.TID 0000.0001) %MON forcing_qnet_mean            =  -1.3089229543962E+01
(PID.TID 0000.0001) %MON forcing_qnet_sd              =   8.2971788215818E+01
(PID.TID 0000.0001) %MON forcing_qnet_del2            =   4.2518316622751E-01
(PID.TID 0000.0001) %MON forcing_qsw_max              =   0.0000000000000E+00
(PID.TID 0000.0001) %MON forcing_qsw_min              =   0.0000000000000E+00
(PID.TID 0000.0001) %MON forcing_qsw_mean             =   0.0000000000000E+00
(PID.TID 0000.0001) %MON forcing_qsw_sd               =   0.0000000000000E+00
(PID.TID 0000.0001) %MON forcing_qsw_del2             =   0.0000000000000E+00
(PID.TID 0000.0001) %MON forcing_empmr_max            =   7.6494447208479E-05
(PID.TID 0000.0001) %MON forcing_empmr_min            =  -1.5362614137596E-04
(PID.TID 0000.0001) %MON forcing_empmr_mean           =   0.0000000000000E+00
(PID.TID 0000.0001) %MON forcing_empmr_sd             =   2.4051723601802E-05
(PID.TID 0000.0001) %MON forcing_empmr_del2           =   1.2276157049243E-07
(PID.TID 0000.0001) %MON forcing_fu_max               =   2.6654913199001E-01
(PID.TID 0000.0001) %MON forcing_fu_min               =  -2.4507816974223E-01
(PID.TID 0000.0001) %MON forcing_fu_mean              =  -5.2340459620282E-03
(PID.TID 0000.0001) %MON forcing_fu_sd                =   6.5653520696369E-02
(PID.TID 0000.0001) %MON forcing_fu_del2              =   2.2339794828038E-04
(PID.TID 0000.0001) %MON forcing_fv_max               =   2.7926737518924E-01
(PID.TID 0000.0001) %MON forcing_fv_min               =  -3.0984648501574E-01
(PID.TID 0000.0001) %MON forcing_fv_mean              =  -1.3585743752391E-02
(PID.TID 0000.0001) %MON forcing_fv_sd                =   7.5878393235508E-02
(PID.TID 0000.0001) %MON forcing_fv_del2              =   2.5375529299430E-04
(PID.TID 0000.0001) %MON trAdv_CFL_u_max              =   7.3493939029925E-02
(PID.TID 0000.0001) %MON trAdv_CFL_v_max              =   8.3082863361860E-02
(PID.TID 0000.0001) %MON trAdv_CFL_w_max              =   7.1941959953359E-02
(PID.TID 0000.0001) %MON advcfl_uvel_max              =   7.3907087785625E-02
(PID.TID 0000.0001) %MON advcfl_vvel_max              =   7.8086166097198E-02
(PID.TID 0000.0001) %MON advcfl_wvel_max              =   6.5129974329397E-02
(PID.TID 0000.0001) %MON advcfl_W_hf_max              =   7.1941959953359E-02
(PID.TID 0000.0001) %MON pe_b_mean                    =   4.7329165874147E-04
(PID.TID 0000.0001) %MON ke_max                       =   3.5240347210004E-02
(PID.TID 0000.0001) %MON ke_mean                      =   1.3968160829167E-04
(PID.TID 0000.0001) %MON ke_vol                       =   1.3398024453628E+18
(PID.TID 0000.0001) %MON vort_r_min                   =  -1.3337609612126E-06
(PID.TID 0000.0001) %MON vort_r_max                   =   1.1591036538538E-06
(PID.TID 0000.0001) %MON vort_a_mean                  =  -2.0493733748264E-05
(PID.TID 0000.0001) %MON vort_a_sd                    =   7.5053947782532E-05
(PID.TID 0000.0001) %MON vort_p_mean                  =  -2.4715772086167E-05
(PID.TID 0000.0001) %MON vort_p_sd                    =   1.2777056765413E-04
(PID.TID 0000.0001) %MON surfExpan_theta_mean         =   5.3197562887860E-08
(PID.TID 0000.0001) %MON surfExpan_salt_mean          =   1.4960829981848E-08
(PID.TID 0000.0001) // =======================================================
(PID.TID 0000.0001) // End MONITOR dynamic field statistics
(PID.TID 0000.0001) // =======================================================
 DRIVER_GET_EXPORT_STATE_3D:MASK : Associated & shape =          32          32          15
  Finished plug run method 
 AGCM Date: 2000/04/15  Time: 09:15:00
  Starting plug run method 
 EXTERNAL_FIELDS_LOAD,     72049 : iP,iLd,i0,i1=    2    3    2    3 ; Wght=  0.8666666667  0.1333333333
 cg2d: Sum(rhs),rhsMax =  -2.30215846386272E-12  4.22451523050124E+00
(PID.TID 0000.0001)      cg2d_init_res =   3.23856636073761E-02
(PID.TID 0000.0001)      cg2d_iters(min,last) =      -1      85
(PID.TID 0000.0001)      cg2d_last_res =   9.21901108318219E-10
(PID.TID 0000.0001) // =======================================================
(PID.TID 0000.0001) // Begin MONITOR dynamic field statistics
(PID.TID 0000.0001) // =======================================================
(PID.TID 0000.0001) %MON time_tsnumber                =                 72050
(PID.TID 0000.0001) %MON time_secondsf                =   6.2251200000000E+09
(PID.TID 0000.0001) %MON dynstat_eta_max              =   8.7467584661566E-01
(PID.TID 0000.0001) %MON dynstat_eta_min              =  -1.5980979293070E+00
(PID.TID 0000.0001) %MON dynstat_eta_mean             =   1.4564971607082E-14
(PID.TID 0000.0001) %MON dynstat_eta_sd               =   5.9602672792397E-01
(PID.TID 0000.0001) %MON dynstat_eta_del2             =   8.0915577518551E-04
(PID.TID 0000.0001) %MON dynstat_uvel_max             =   1.7495019177445E-01
(PID.TID 0000.0001) %MON dynstat_uvel_min             =  -2.5987364951078E-01
(PID.TID 0000.0001) %MON dynstat_uvel_mean            =  -4.6533426358923E-04
(PID.TID 0000.0001) %MON dynstat_uvel_sd              =   1.1985916210132E-02
(PID.TID 0000.0001) %MON dynstat_uvel_del2            =   5.1648781254114E-05
(PID.TID 0000.0001) %MON dynstat_vvel_max             =   1.7812212457984E-01
(PID.TID 0000.0001) %MON dynstat_vvel_min             =  -2.2318603117120E-01
(PID.TID 0000.0001) %MON dynstat_vvel_mean            =  -3.7984372067524E-04
(PID.TID 0000.0001) %MON dynstat_vvel_sd              =   1.2586090826425E-02
(PID.TID 0000.0001) %MON dynstat_vvel_del2            =   5.0306681737225E-05
(PID.TID 0000.0001) %MON dynstat_wvel_max             =   1.0378614726743E-04
(PID.TID 0000.0001) %MON dynstat_wvel_min             =  -1.9999424222027E-04
(PID.TID 0000.0001) %MON dynstat_wvel_mean            =   3.7224693446864E-11
(PID.TID 0000.0001) %MON dynstat_wvel_sd              =   3.6501504116678E-06
(PID.TID 0000.0001) %MON dynstat_wvel_del2            =   2.6515704516124E-08
(PID.TID 0000.0001) %MON dynstat_theta_max            =   3.1233432132325E+01
(PID.TID 0000.0001) %MON dynstat_theta_min            =  -3.9613874870656E+00
(PID.TID 0000.0001) %MON dynstat_theta_mean           =   3.9122104821202E+00
(PID.TID 0000.0001) %MON dynstat_theta_sd             =   4.5802562295514E+00
(PID.TID 0000.0001) %MON dynstat_theta_del2           =   2.7977913310133E-03
(PID.TID 0000.0001) %MON dynstat_salt_max             =   4.1416931249617E+01
(PID.TID 0000.0001) %MON dynstat_salt_min             =   1.8414849022700E+01
(PID.TID 0000.0001) %MON dynstat_salt_mean            =   3.4772106818013E+01
(PID.TID 0000.0001) %MON dynstat_salt_sd              =   5.3129933902815E-01
(PID.TID 0000.0001) %MON dynstat_salt_del2            =   8.4226790151255E-04
(PID.TID 0000.0001) %MON dynstat_sst_max              =   3.1233432132325E+01
(PID.TID 0000.0001) %MON dynstat_sst_min              =  -1.9898531099463E+00
(PID.TID 0000.0001) %MON dynstat_sst_mean             =   1.8362555804705E+01
(PID.TID 0000.0001) %MON dynstat_sst_sd               =   9.8254498828907E+00
(PID.TID 0000.0001) %MON dynstat_sst_del2             =   1.7808699644512E-02
(PID.TID 0000.0001) %MON dynstat_sss_max              =   4.1416931249617E+01
(PID.TID 0000.0001) %MON dynstat_sss_min              =   1.8414849022700E+01
(PID.TID 0000.0001) %MON dynstat_sss_mean             =   3.4620520767531E+01
(PID.TID 0000.0001) %MON dynstat_sss_sd               =   1.4585295982187E+00
(PID.TID 0000.0001) %MON dynstat_sss_del2             =   8.5260796002686E-03
(PID.TID 0000.0001) %MON forcing_qnet_max             =   3.7839664557807E+02
(PID.TID 0000.0001) %MON forcing_qnet_min             =  -1.8468961477123E+02
(PID.TID 0000.0001) %MON forcing_qnet_mean            =  -1.2885911397967E+01
(PID.TID 0000.0001) %MON forcing_qnet_sd              =   8.1730846037920E+01
(PID.TID 0000.0001) %MON forcing_qnet_del2            =   4.2490219586280E-01
(PID.TID 0000.0001) %MON forcing_qsw_max              =   0.0000000000000E+00
(PID.TID 0000.0001) %MON forcing_qsw_min              =   0.0000000000000E+00
(PID.TID 0000.0001) %MON forcing_qsw_mean             =   0.0000000000000E+00
(PID.TID 0000.0001) %MON forcing_qsw_sd               =   0.0000000000000E+00
(PID.TID 0000.0001) %MON forcing_qsw_del2             =   0.0000000000000E+00
(PID.TID 0000.0001) %MON forcing_empmr_max            =   7.6494447208479E-05
(PID.TID 0000.0001) %MON forcing_empmr_min            =  -1.5362614137596E-04
(PID.TID 0000.0001) %MON forcing_empmr_mean           =  -4.1932798010144E-22
(PID.TID 0000.0001) %MON forcing_empmr_sd             =   2.4051723601802E-05
(PID.TID 0000.0001) %MON forcing_empmr_del2           =   1.2276157049243E-07
(PID.TID 0000.0001) %MON forcing_fu_max               =   2.6534204091263E-01
(PID.TID 0000.0001) %MON forcing_fu_min               =  -2.4699345405653E-01
(PID.TID 0000.0001) %MON forcing_fu_mean              =  -5.3588754960395E-03
(PID.TID 0000.0001) %MON forcing_fu_sd                =   6.5650988591368E-02
(PID.TID 0000.0001) %MON forcing_fu_del2              =   2.2032437694202E-04
(PID.TID 0000.0001) %MON forcing_fv_max               =   2.7677485469560E-01
(PID.TID 0000.0001) %MON forcing_fv_min               =  -3.1024526720007E-01
(PID.TID 0000.0001) %MON forcing_fv_mean              =  -1.3551096702290E-02
(PID.TID 0000.0001) %MON forcing_fv_sd                =   7.5789165653313E-02
(PID.TID 0000.0001) %MON forcing_fv_del2              =   2.5047468881965E-04
(PID.TID 0000.0001) %MON trAdv_CFL_u_max              =   7.3293075499877E-02
(PID.TID 0000.0001) %MON trAdv_CFL_v_max              =   8.2609095434102E-02
(PID.TID 0000.0001) %MON trAdv_CFL_w_max              =   7.2025578028142E-02
(PID.TID 0000.0001) %MON advcfl_uvel_max              =   7.3705096463047E-02
(PID.TID 0000.0001) %MON advcfl_vvel_max              =   7.7640924681707E-02
(PID.TID 0000.0001) %MON advcfl_wvel_max              =   6.5205669916345E-02
(PID.TID 0000.0001) %MON advcfl_W_hf_max              =   7.2025578028142E-02
(PID.TID 0000.0001) %MON pe_b_mean                    =   4.7325579846833E-04
(PID.TID 0000.0001) %MON ke_max                       =   3.5207227920268E-02
(PID.TID 0000.0001) %MON ke_mean                      =   1.3965686178183E-04
(PID.TID 0000.0001) %MON ke_vol                       =   1.3398024453628E+18
(PID.TID 0000.0001) %MON vort_r_min                   =  -1.3342464317626E-06
(PID.TID 0000.0001) %MON vort_r_max                   =   1.1567189597187E-06
(PID.TID 0000.0001) %MON vort_a_mean                  =  -2.0493733748264E-05
(PID.TID 0000.0001) %MON vort_a_sd                    =   7.5053947982056E-05
(PID.TID 0000.0001) %MON vort_p_mean                  =  -2.4715772083031E-05
(PID.TID 0000.0001) %MON vort_p_sd                    =   1.2777056041227E-04
(PID.TID 0000.0001) %MON surfExpan_theta_mean         =   5.4073163552210E-08
(PID.TID 0000.0001) %MON surfExpan_salt_mean          =   1.5022719519525E-08
(PID.TID 0000.0001) // =======================================================
(PID.TID 0000.0001) // End MONITOR dynamic field statistics
(PID.TID 0000.0001) // =======================================================
 DRIVER_GET_EXPORT_STATE_3D:MASK : Associated & shape =          32          32          15
  Finished plug run method 
 AGCM Date: 2000/04/15  Time: 09:30:00
  Starting plug run method 
 EXTERNAL_FIELDS_LOAD,     72050 : iP,iLd,i0,i1=    2    3    2    3 ; Wght=  0.8333333333  0.1666666667
 cg2d: Sum(rhs),rhsMax =  -2.31636931857793E-12  4.22767948180637E+00
(PID.TID 0000.0001)      cg2d_init_res =   3.20693647561846E-02
(PID.TID 0000.0001)      cg2d_iters(min,last) =      -1      85
(PID.TID 0000.0001)      cg2d_last_res =   9.21259587093397E-10
(PID.TID 0000.0001) // =======================================================
(PID.TID 0000.0001) // Begin MONITOR dynamic field statistics
(PID.TID 0000.0001) // =======================================================
(PID.TID 0000.0001) %MON time_tsnumber                =                 72051
(PID.TID 0000.0001) %MON time_secondsf                =   6.2252064000000E+09
(PID.TID 0000.0001) %MON dynstat_eta_max              =   8.7450261378350E-01
(PID.TID 0000.0001) %MON dynstat_eta_min              =  -1.5981918256843E+00
(PID.TID 0000.0001) %MON dynstat_eta_mean             =   1.4510009450074E-14
(PID.TID 0000.0001) %MON dynstat_eta_sd               =   5.9601586379349E-01
(PID.TID 0000.0001) %MON dynstat_eta_del2             =   8.0958548669726E-04
(PID.TID 0000.0001) %MON dynstat_uvel_max             =   1.7543405697299E-01
(PID.TID 0000.0001) %MON dynstat_uvel_min             =  -2.5916534710485E-01
(PID.TID 0000.0001) %MON dynstat_uvel_mean            =  -4.6483696026941E-04
(PID.TID 0000.0001) %MON dynstat_uvel_sd              =   1.1980835916593E-02
(PID.TID 0000.0001) %MON dynstat_uvel_del2            =   5.1660505828946E-05
(PID.TID 0000.0001) %MON dynstat_vvel_max             =   1.7701931720598E-01
(PID.TID 0000.0001) %MON dynstat_vvel_min             =  -2.2320239021973E-01
(PID.TID 0000.0001) %MON dynstat_vvel_mean            =  -3.7934119322944E-04
(PID.TID 0000.0001) %MON dynstat_vvel_sd              =   1.2588647485783E-02
(PID.TID 0000.0001) %MON dynstat_vvel_del2            =   5.0322896647061E-05
(PID.TID 0000.0001) %MON dynstat_wvel_max             =   1.0394794921480E-04
(PID.TID 0000.0001) %MON dynstat_wvel_min             =  -2.0020238072460E-04
(PID.TID 0000.0001) %MON dynstat_wvel_mean            =   4.2666275107293E-12
(PID.TID 0000.0001) %MON dynstat_wvel_sd              =   3.6458617771041E-06
(PID.TID 0000.0001) %MON dynstat_wvel_del2            =   2.6516376044177E-08
(PID.TID 0000.0001) %MON dynstat_theta_max            =   3.1232860522930E+01
(PID.TID 0000.0001) %MON dynstat_theta_min            =  -3.9773346350040E+00
(PID.TID 0000.0001) %MON dynstat_theta_mean           =   3.9122648949194E+00
(PID.TID 0000.0001) %MON dynstat_theta_sd             =   4.5805548063883E+00
(PID.TID 0000.0001) %MON dynstat_theta_del2           =   2.8010609003541E-03
(PID.TID 0000.0001) %MON dynstat_salt_max             =   4.1417667137111E+01
(PID.TID 0000.0001) %MON dynstat_salt_min             =   1.8415208329055E+01
(PID.TID 0000.0001) %MON dynstat_salt_mean            =   3.4772107884785E+01
(PID.TID 0000.0001) %MON dynstat_salt_sd              =   5.3129438656416E-01
(PID.TID 0000.0001) %MON dynstat_salt_del2            =   8.4305434679262E-04
(PID.TID 0000.0001) %MON dynstat_sst_max              =   3.1232860522930E+01
(PID.TID 0000.0001) %MON dynstat_sst_min              =  -1.9880461433222E+00
(PID.TID 0000.0001) %MON dynstat_sst_mean             =   1.8367194372275E+01
(PID.TID 0000.0001) %MON dynstat_sst_sd               =   9.8302961209635E+00
(PID.TID 0000.0001) %MON dynstat_sst_del2             =   1.7825470224516E-02
(PID.TID 0000.0001) %MON dynstat_sss_max              =   4.1417667137111E+01
(PID.TID 0000.0001) %MON dynstat_sss_min              =   1.8415208329055E+01
(PID.TID 0000.0001) %MON dynstat_sss_mean             =   3.4620483938673E+01
(PID.TID 0000.0001) %MON dynstat_sss_sd               =   1.4583476350225E+00
(PID.TID 0000.0001) %MON dynstat_sss_del2             =   8.5325738457817E-03
(PID.TID 0000.0001) %MON forcing_qnet_max             =   3.7301210082942E+02
(PID.TID 0000.0001) %MON forcing_qnet_min             =  -1.8338546797681E+02
(PID.TID 0000.0001) %MON forcing_qnet_mean            =  -1.2682593251972E+01
(PID.TID 0000.0001) %MON forcing_qnet_sd              =   8.0511017211878E+01
(PID.TID 0000.0001) %MON forcing_qnet_del2            =   4.2473146967494E-01
(PID.TID 0000.0001) %MON forcing_qsw_max              =   0.0000000000000E+00
(PID.TID 0000.0001) %MON forcing_qsw_min              =   0.0000000000000E+00
(PID.TID 0000.0001) %MON forcing_qsw_mean             =   0.0000000000000E+00
(PID.TID 0000.0001) %MON forcing_qsw_sd               =   0.0000000000000E+00
(PID.TID 0000.0001) %MON forcing_qsw_del2             =   0.0000000000000E+00
(PID.TID 0000.0001) %MON forcing_empmr_max            =   7.6494447208479E-05
(PID.TID 0000.0001) %MON forcing_empmr_min            =  -1.5362614137596E-04
(PID.TID 0000.0001) %MON forcing_empmr_mean           =   8.3865596020288E-22
(PID.TID 0000.0001) %MON forcing_empmr_sd             =   2.4051723601802E-05
(PID.TID 0000.0001) %MON forcing_empmr_del2           =   1.2276157049243E-07
(PID.TID 0000.0001) %MON forcing_fu_max               =   2.6413494983525E-01
(PID.TID 0000.0001) %MON forcing_fu_min               =  -2.4890873837084E-01
(PID.TID 0000.0001) %MON forcing_fu_mean              =  -5.4837050300507E-03
(PID.TID 0000.0001) %MON forcing_fu_sd                =   6.5664074564686E-02
(PID.TID 0000.0001) %MON forcing_fu_del2              =   2.1746819442804E-04
(PID.TID 0000.0001) %MON forcing_fv_max               =   2.7445865834269E-01
(PID.TID 0000.0001) %MON forcing_fv_min               =  -3.1064404938440E-01
(PID.TID 0000.0001) %MON forcing_fv_mean              =  -1.3516449652190E-02
(PID.TID 0000.0001) %MON forcing_fv_sd                =   7.5720574422271E-02
(PID.TID 0000.0001) %MON forcing_fv_del2              =   2.4743979582007E-04
(PID.TID 0000.0001) %MON trAdv_CFL_u_max              =   7.3093309093938E-02
(PID.TID 0000.0001) %MON trAdv_CFL_v_max              =   8.2097604173050E-02
(PID.TID 0000.0001) %MON trAdv_CFL_w_max              =   7.2100539891156E-02
(PID.TID 0000.0001) %MON advcfl_uvel_max              =   7.3504208465160E-02
(PID.TID 0000.0001) %MON advcfl_vvel_max              =   7.7160226484029E-02
(PID.TID 0000.0001) %MON advcfl_wvel_max              =   6.5273530923039E-02
(PID.TID 0000.0001) %MON advcfl_W_hf_max              =   7.2100539891156E-02
(PID.TID 0000.0001) %MON pe_b_mean                    =   4.7323854600081E-04
(PID.TID 0000.0001) %MON ke_max                       =   3.5174441166372E-02
(PID.TID 0000.0001) %MON ke_mean                      =   1.3963039404050E-04
(PID.TID 0000.0001) %MON ke_vol                       =   1.3398024453628E+18
(PID.TID 0000.0001) %MON vort_r_min                   =  -1.3346565267172E-06
(PID.TID 0000.0001) %MON vort_r_max                   =   1.1547317330527E-06
(PID.TID 0000.0001) %MON vort_a_mean                  =  -2.0493733748264E-05
(PID.TID 0000.0001) %MON vort_a_sd                    =   7.5053948185193E-05
(PID.TID 0000.0001) %MON vort_p_mean                  =  -2.4715772081361E-05
(PID.TID 0000.0001) %MON vort_p_sd                    =   1.2777055389113E-04
(PID.TID 0000.0001) %MON surfExpan_theta_mean         =   5.4957038412577E-08
(PID.TID 0000.0001) %MON surfExpan_salt_mean          =   1.5109797273116E-08
(PID.TID 0000.0001) // =======================================================
(PID.TID 0000.0001) // End MONITOR dynamic field statistics
(PID.TID 0000.0001) // =======================================================
 DRIVER_GET_EXPORT_STATE_3D:MASK : Associated & shape =          32          32          15
  Finished plug run method 
 AGCM Date: 2000/04/15  Time: 09:45:00
  Starting plug run method 
 EXTERNAL_FIELDS_LOAD,     72051 : iP,iLd,i0,i1=    2    3    2    3 ; Wght=  0.8000000000  0.2000000000
 cg2d: Sum(rhs),rhsMax =  -2.25242047235952E-12  4.23054255634604E+00
(PID.TID 0000.0001)      cg2d_init_res =   3.17099849852120E-02
(PID.TID 0000.0001)      cg2d_iters(min,last) =      -1      85
(PID.TID 0000.0001)      cg2d_last_res =   9.11107171857926E-10
(PID.TID 0000.0001) // =======================================================
(PID.TID 0000.0001) // Begin MONITOR dynamic field statistics
(PID.TID 0000.0001) // =======================================================
(PID.TID 0000.0001) %MON time_tsnumber                =                 72052
(PID.TID 0000.0001) %MON time_secondsf                =   6.2252928000000E+09
(PID.TID 0000.0001) %MON dynstat_eta_max              =   8.7438094634715E-01
(PID.TID 0000.0001) %MON dynstat_eta_min              =  -1.5983102293229E+00
(PID.TID 0000.0001) %MON dynstat_eta_mean             =   1.4510009450074E-14
(PID.TID 0000.0001) %MON dynstat_eta_sd               =   5.9601901161354E-01
(PID.TID 0000.0001) %MON dynstat_eta_del2             =   8.0999369633790E-04
(PID.TID 0000.0001) %MON dynstat_uvel_max             =   1.7597571615048E-01
(PID.TID 0000.0001) %MON dynstat_uvel_min             =  -2.5846108510610E-01
(PID.TID 0000.0001) %MON dynstat_uvel_mean            =  -4.6430523050286E-04
(PID.TID 0000.0001) %MON dynstat_uvel_sd              =   1.1975167799839E-02
(PID.TID 0000.0001) %MON dynstat_uvel_del2            =   5.1670875449121E-05
(PID.TID 0000.0001) %MON dynstat_vvel_max             =   1.7584598194074E-01
(PID.TID 0000.0001) %MON dynstat_vvel_min             =  -2.2321424304557E-01
(PID.TID 0000.0001) %MON dynstat_vvel_mean            =  -3.7888374402971E-04
(PID.TID 0000.0001) %MON dynstat_vvel_sd              =   1.2591602604882E-02
(PID.TID 0000.0001) %MON dynstat_vvel_del2            =   5.0338942128504E-05
(PID.TID 0000.0001) %MON dynstat_wvel_max             =   1.0415296581937E-04
(PID.TID 0000.0001) %MON dynstat_wvel_min             =  -2.0038322593595E-04
(PID.TID 0000.0001) %MON dynstat_wvel_mean            =  -3.2527375206826E-11
(PID.TID 0000.0001) %MON dynstat_wvel_sd              =   3.6414200401441E-06
(PID.TID 0000.0001) %MON dynstat_wvel_del2            =   2.6517824314703E-08
(PID.TID 0000.0001) %MON dynstat_theta_max            =   3.1232595624503E+01
(PID.TID 0000.0001) %MON dynstat_theta_min            =  -3.9927652049212E+00
(PID.TID 0000.0001) %MON dynstat_theta_mean           =   3.9123171622600E+00
(PID.TID 0000.0001) %MON dynstat_theta_sd             =   4.5808507493535E+00
(PID.TID 0000.0001) %MON dynstat_theta_del2           =   2.8038006905978E-03
(PID.TID 0000.0001) %MON dynstat_salt_max             =   4.1418414967646E+01
(PID.TID 0000.0001) %MON dynstat_salt_min             =   1.8415550468035E+01
(PID.TID 0000.0001) %MON dynstat_salt_mean            =   3.4772108952360E+01
(PID.TID 0000.0001) %MON dynstat_salt_sd              =   5.3128943365142E-01
(PID.TID 0000.0001) %MON dynstat_salt_del2            =   8.4378811768232E-04
(PID.TID 0000.0001) %MON dynstat_sst_max              =   3.1232595624503E+01
(PID.TID 0000.0001) %MON dynstat_sst_min              =  -1.9863216339490E+00
(PID.TID 0000.0001) %MON dynstat_sst_mean             =   1.8371540064308E+01
(PID.TID 0000.0001) %MON dynstat_sst_sd               =   9.8353507058476E+00
(PID.TID 0000.0001) %MON dynstat_sst_del2             =   1.7830388553761E-02
(PID.TID 0000.0001) %MON dynstat_sss_max              =   4.1418414967646E+01
(PID.TID 0000.0001) %MON dynstat_sss_min              =   1.8415550468035E+01
(PID.TID 0000.0001) %MON dynstat_sss_mean             =   3.4620446926578E+01
(PID.TID 0000.0001) %MON dynstat_sss_sd               =   1.4581765541903E+00
(PID.TID 0000.0001) %MON dynstat_sss_del2             =   8.5379467850125E-03
(PID.TID 0000.0001) %MON forcing_qnet_max             =   3.6762755608077E+02
(PID.TID 0000.0001) %MON forcing_qnet_min             =  -1.8208132118239E+02
(PID.TID 0000.0001) %MON forcing_qnet_mean            =  -1.2479275105978E+01
(PID.TID 0000.0001) %MON forcing_qnet_sd              =   7.9313275906255E+01
(PID.TID 0000.0001) %MON forcing_qnet_del2            =   4.2467112062497E-01
(PID.TID 0000.0001) %MON forcing_qsw_max              =   0.0000000000000E+00
(PID.TID 0000.0001) %MON forcing_qsw_min              =   0.0000000000000E+00
(PID.TID 0000.0001) %MON forcing_qsw_mean             =   0.0000000000000E+00
(PID.TID 0000.0001) %MON forcing_qsw_sd               =   0.0000000000000E+00
(PID.TID 0000.0001) %MON forcing_qsw_del2             =   0.0000000000000E+00
(PID.TID 0000.0001) %MON forcing_empmr_max            =   7.6494447208479E-05
(PID.TID 0000.0001) %MON forcing_empmr_min            =  -1.5362614137596E-04
(PID.TID 0000.0001) %MON forcing_empmr_mean           =   8.3865596020288E-22
(PID.TID 0000.0001) %MON forcing_empmr_sd             =   2.4051723601802E-05
(PID.TID 0000.0001) %MON forcing_empmr_del2           =   1.2276157049243E-07
(PID.TID 0000.0001) %MON forcing_fu_max               =   2.6292785875787E-01
(PID.TID 0000.0001) %MON forcing_fu_min               =  -2.5082402268515E-01
(PID.TID 0000.0001) %MON forcing_fu_mean              =  -5.6085345640619E-03
(PID.TID 0000.0001) %MON forcing_fu_sd                =   6.5692769282980E-02
(PID.TID 0000.0001) %MON forcing_fu_del2              =   2.1483807119452E-04
(PID.TID 0000.0001) %MON forcing_fv_max               =   2.7241550355563E-01
(PID.TID 0000.0001) %MON forcing_fv_min               =  -3.1104283156873E-01
(PID.TID 0000.0001) %MON forcing_fv_mean              =  -1.3481802602090E-02
(PID.TID 0000.0001) %MON forcing_fv_sd                =   7.5672675658009E-02
(PID.TID 0000.0001) %MON forcing_fv_del2              =   2.4465975797249E-04
(PID.TID 0000.0001) %MON trAdv_CFL_u_max              =   7.2894682202802E-02
(PID.TID 0000.0001) %MON trAdv_CFL_v_max              =   8.1553406359840E-02
(PID.TID 0000.0001) %MON trAdv_CFL_w_max              =   7.2165671846857E-02
(PID.TID 0000.0001) %MON advcfl_uvel_max              =   7.3304466403390E-02
(PID.TID 0000.0001) %MON advcfl_vvel_max              =   7.6648786172109E-02
(PID.TID 0000.0001) %MON advcfl_wvel_max              =   6.5332493286288E-02
(PID.TID 0000.0001) %MON advcfl_W_hf_max              =   7.2165671846857E-02
(PID.TID 0000.0001) %MON pe_b_mean                    =   4.7324354477284E-04
(PID.TID 0000.0001) %MON ke_max                       =   3.5141923938235E-02
(PID.TID 0000.0001) %MON ke_mean                      =   1.3960214534261E-04
(PID.TID 0000.0001) %MON ke_vol                       =   1.3398024453628E+18
(PID.TID 0000.0001) %MON vort_r_min                   =  -1.3349926007986E-06
(PID.TID 0000.0001) %MON vort_r_max                   =   1.1531647663839E-06
(PID.TID 0000.0001) %MON vort_a_mean                  =  -2.0493733748264E-05
(PID.TID 0000.0001) %MON vort_a_sd                    =   7.5053948394874E-05
(PID.TID 0000.0001) %MON vort_p_mean                  =  -2.4715772078056E-05
(PID.TID 0000.0001) %MON vort_p_sd                    =   1.2777054824194E-04
(PID.TID 0000.0001) %MON surfExpan_theta_mean         =   5.5851324115387E-08
(PID.TID 0000.0001) %MON surfExpan_salt_mean          =   1.5215014792383E-08
(PID.TID 0000.0001) // =======================================================
(PID.TID 0000.0001) // End MONITOR dynamic field statistics
(PID.TID 0000.0001) // =======================================================
 DRIVER_GET_EXPORT_STATE_3D:MASK : Associated & shape =          32          32          15
  Finished plug run method 
 AGCM Date: 2000/04/15  Time: 10:00:00
 
 Writing:     40 Slices (  1 Nodes,  1 PartitionRoot) to File:  TEST.mit_ocn.20000415_1000z.nc4
 
  Starting plug run method 
 EXTERNAL_FIELDS_LOAD,     72052 : iP,iLd,i0,i1=    2    3    2    3 ; Wght=  0.7666666667  0.2333333333
 cg2d: Sum(rhs),rhsMax =  -2.35189645536593E-12  4.23306733948759E+00
(PID.TID 0000.0001)      cg2d_init_res =   3.13540246484429E-02
(PID.TID 0000.0001)      cg2d_iters(min,last) =      -1      85
(PID.TID 0000.0001)      cg2d_last_res =   8.66284197760814E-10
(PID.TID 0000.0001) // =======================================================
(PID.TID 0000.0001) // Begin MONITOR dynamic field statistics
(PID.TID 0000.0001) // =======================================================
(PID.TID 0000.0001) %MON time_tsnumber                =                 72053
(PID.TID 0000.0001) %MON time_secondsf                =   6.2253792000000E+09
(PID.TID 0000.0001) %MON dynstat_eta_max              =   8.7431415253747E-01
(PID.TID 0000.0001) %MON dynstat_eta_min              =  -1.5984488542879E+00
(PID.TID 0000.0001) %MON dynstat_eta_mean             =   1.4180236508027E-14
(PID.TID 0000.0001) %MON dynstat_eta_sd               =   5.9603736798211E-01
(PID.TID 0000.0001) %MON dynstat_eta_del2             =   8.1038094419732E-04
(PID.TID 0000.0001) %MON dynstat_uvel_max             =   1.7657053097788E-01
(PID.TID 0000.0001) %MON dynstat_uvel_min             =  -2.5776101312653E-01
(PID.TID 0000.0001) %MON dynstat_uvel_mean            =  -4.6373521548237E-04
(PID.TID 0000.0001) %MON dynstat_uvel_sd              =   1.1968935980900E-02
(PID.TID 0000.0001) %MON dynstat_uvel_del2            =   5.1679969372098E-05
(PID.TID 0000.0001) %MON dynstat_vvel_max             =   1.7461327186614E-01
(PID.TID 0000.0001) %MON dynstat_vvel_min             =  -2.2322148581144E-01
(PID.TID 0000.0001) %MON dynstat_vvel_mean            =  -3.7846142780675E-04
(PID.TID 0000.0001) %MON dynstat_vvel_sd              =   1.2594938015232E-02
(PID.TID 0000.0001) %MON dynstat_vvel_del2            =   5.0354787428817E-05
(PID.TID 0000.0001) %MON dynstat_wvel_max             =   1.0439663638266E-04
(PID.TID 0000.0001) %MON dynstat_wvel_min             =  -2.0053419892376E-04
(PID.TID 0000.0001) %MON dynstat_wvel_mean            =  -7.0302410647602E-11
(PID.TID 0000.0001) %MON dynstat_wvel_sd              =   3.6368028356531E-06
(PID.TID 0000.0001) %MON dynstat_wvel_del2            =   2.6520061444169E-08
(PID.TID 0000.0001) %MON dynstat_theta_max            =   3.1232627026412E+01
(PID.TID 0000.0001) %MON dynstat_theta_min            =  -4.0076750470618E+00
(PID.TID 0000.0001) %MON dynstat_theta_mean           =   3.9123674389650E+00
(PID.TID 0000.0001) %MON dynstat_theta_sd             =   4.5811440435368E+00
(PID.TID 0000.0001) %MON dynstat_theta_del2           =   2.8065124272296E-03
(PID.TID 0000.0001) %MON dynstat_salt_max             =   4.1419173736162E+01
(PID.TID 0000.0001) %MON dynstat_salt_min             =   1.8415874768073E+01
(PID.TID 0000.0001) %MON dynstat_salt_mean            =   3.4772110020989E+01
(PID.TID 0000.0001) %MON dynstat_salt_sd              =   5.3128451139249E-01
(PID.TID 0000.0001) %MON dynstat_salt_del2            =   8.4446047922439E-04
(PID.TID 0000.0001) %MON dynstat_sst_max              =   3.1232627026412E+01
(PID.TID 0000.0001) %MON dynstat_sst_min              =  -1.9846767780705E+00
(PID.TID 0000.0001) %MON dynstat_sst_mean             =   1.8375656281378E+01
(PID.TID 0000.0001) %MON dynstat_sst_sd               =   9.8405759554696E+00
(PID.TID 0000.0001) %MON dynstat_sst_del2             =   1.7832363415429E-02
(PID.TID 0000.0001) %MON dynstat_sss_max              =   4.1419173736162E+01
(PID.TID 0000.0001) %MON dynstat_sss_min              =   1.8415874768073E+01
(PID.TID 0000.0001) %MON dynstat_sss_mean             =   3.4620415074429E+01
(PID.TID 0000.0001) %MON dynstat_sss_sd               =   1.4580152508952E+00
(PID.TID 0000.0001) %MON dynstat_sss_del2             =   8.5429023259473E-03
(PID.TID 0000.0001) %MON forcing_qnet_max             =   3.6224301133212E+02
(PID.TID 0000.0001) %MON forcing_qnet_min             =  -1.8077717438798E+02
(PID.TID 0000.0001) %MON forcing_qnet_mean            =  -1.2275956959983E+01
(PID.TID 0000.0001) %MON forcing_qnet_sd              =   7.8138637827555E+01
(PID.TID 0000.0001) %MON forcing_qnet_del2            =   4.2472119576367E-01
(PID.TID 0000.0001) %MON forcing_qsw_max              =   0.0000000000000E+00
(PID.TID 0000.0001) %MON forcing_qsw_min              =   0.0000000000000E+00
(PID.TID 0000.0001) %MON forcing_qsw_mean             =   0.0000000000000E+00
(PID.TID 0000.0001) %MON forcing_qsw_sd               =   0.0000000000000E+00
(PID.TID 0000.0001) %MON forcing_qsw_del2             =   0.0000000000000E+00
(PID.TID 0000.0001) %MON forcing_empmr_max            =   7.6494447208479E-05
(PID.TID 0000.0001) %MON forcing_empmr_min            =  -1.5362614137596E-04
(PID.TID 0000.0001) %MON forcing_empmr_mean           =  -4.1932798010144E-22
(PID.TID 0000.0001) %MON forcing_empmr_sd             =   2.4051723601802E-05
(PID.TID 0000.0001) %MON forcing_empmr_del2           =   1.2276157049243E-07
(PID.TID 0000.0001) %MON forcing_fu_max               =   2.6172076768049E-01
(PID.TID 0000.0001) %MON forcing_fu_min               =  -2.5273930699945E-01
(PID.TID 0000.0001) %MON forcing_fu_mean              =  -5.7333640980732E-03
(PID.TID 0000.0001) %MON forcing_fu_sd                =   6.5737052306248E-02
(PID.TID 0000.0001) %MON forcing_fu_del2              =   2.1244240352451E-04
(PID.TID 0000.0001) %MON forcing_fv_max               =   2.7037234876857E-01
(PID.TID 0000.0001) %MON forcing_fv_min               =  -3.1177782705636E-01
(PID.TID 0000.0001) %MON forcing_fv_mean              =  -1.3447155551990E-02
(PID.TID 0000.0001) %MON forcing_fv_sd                =   7.5645508667970E-02
(PID.TID 0000.0001) %MON forcing_fv_del2              =   2.4214335338046E-04
(PID.TID 0000.0001) %MON trAdv_CFL_u_max              =   7.2697237028212E-02
(PID.TID 0000.0001) %MON trAdv_CFL_v_max              =   8.0981674647218E-02
(PID.TID 0000.0001) %MON trAdv_CFL_w_max              =   7.2220046550210E-02
(PID.TID 0000.0001) %MON advcfl_uvel_max              =   7.3105912710539E-02
(PID.TID 0000.0001) %MON advcfl_vvel_max              =   7.6111465217277E-02
(PID.TID 0000.0001) %MON advcfl_wvel_max              =   6.5381716177408E-02
(PID.TID 0000.0001) %MON advcfl_W_hf_max              =   7.2220046550210E-02
(PID.TID 0000.0001) %MON pe_b_mean                    =   4.7327269540910E-04
(PID.TID 0000.0001) %MON ke_max                       =   3.5109615280746E-02
(PID.TID 0000.0001) %MON ke_mean                      =   1.3957217598056E-04
(PID.TID 0000.0001) %MON ke_vol                       =   1.3398024453628E+18
(PID.TID 0000.0001) %MON vort_r_min                   =  -1.3352560677560E-06
(PID.TID 0000.0001) %MON vort_r_max                   =   1.1520342575312E-06
(PID.TID 0000.0001) %MON vort_a_mean                  =  -2.0493733748264E-05
(PID.TID 0000.0001) %MON vort_a_sd                    =   7.5053948614046E-05
(PID.TID 0000.0001) %MON vort_p_mean                  =  -2.4715772071233E-05
(PID.TID 0000.0001) %MON vort_p_sd                    =   1.2777054355933E-04
(PID.TID 0000.0001) %MON surfExpan_theta_mean         =   5.6729164429141E-08
(PID.TID 0000.0001) %MON surfExpan_salt_mean          =   1.5331825617337E-08
(PID.TID 0000.0001) // =======================================================
(PID.TID 0000.0001) // End MONITOR dynamic field statistics
(PID.TID 0000.0001) // =======================================================
 DRIVER_GET_EXPORT_STATE_3D:MASK : Associated & shape =          32          32          15
  Finished plug run method 
 AGCM Date: 2000/04/15  Time: 10:15:00
  Starting plug run method 
 EXTERNAL_FIELDS_LOAD,     72053 : iP,iLd,i0,i1=    2    3    2    3 ; Wght=  0.7333333333  0.2666666667
 cg2d: Sum(rhs),rhsMax =  -2.30215846386272E-12  4.23522215572123E+00
(PID.TID 0000.0001)      cg2d_init_res =   3.09828948574990E-02
(PID.TID 0000.0001)      cg2d_iters(min,last) =      -1      84
(PID.TID 0000.0001)      cg2d_last_res =   8.97054074126008E-10
(PID.TID 0000.0001) // =======================================================
(PID.TID 0000.0001) // Begin MONITOR dynamic field statistics
(PID.TID 0000.0001) // =======================================================
(PID.TID 0000.0001) %MON time_tsnumber                =                 72054
(PID.TID 0000.0001) %MON time_secondsf                =   6.2254656000000E+09
(PID.TID 0000.0001) %MON dynstat_eta_max              =   8.7430067953599E-01
(PID.TID 0000.0001) %MON dynstat_eta_min              =  -1.5986035936731E+00
(PID.TID 0000.0001) %MON dynstat_eta_mean             =   1.4097793272515E-14
(PID.TID 0000.0001) %MON dynstat_eta_sd               =   5.9607131438357E-01
(PID.TID 0000.0001) %MON dynstat_eta_del2             =   8.1074799491567E-04
(PID.TID 0000.0001) %MON dynstat_uvel_max             =   1.7721339975563E-01
(PID.TID 0000.0001) %MON dynstat_uvel_min             =  -2.5706529042785E-01
(PID.TID 0000.0001) %MON dynstat_uvel_mean            =  -4.6312558047426E-04
(PID.TID 0000.0001) %MON dynstat_uvel_sd              =   1.1962182621784E-02
(PID.TID 0000.0001) %MON dynstat_uvel_del2            =   5.1687830446871E-05
(PID.TID 0000.0001) %MON dynstat_vvel_max             =   1.7333255827799E-01
(PID.TID 0000.0001) %MON dynstat_vvel_min             =  -2.2322399588769E-01
(PID.TID 0000.0001) %MON dynstat_vvel_mean            =  -3.7806153660967E-04
(PID.TID 0000.0001) %MON dynstat_vvel_sd              =   1.2598627216526E-02
(PID.TID 0000.0001) %MON dynstat_vvel_del2            =   5.0370398160141E-05
(PID.TID 0000.0001) %MON dynstat_wvel_max             =   1.0467383546192E-04
(PID.TID 0000.0001) %MON dynstat_wvel_min             =  -2.0065337910554E-04
(PID.TID 0000.0001) %MON dynstat_wvel_mean            =  -1.0750937567705E-10
(PID.TID 0000.0001) %MON dynstat_wvel_sd              =   3.6319973228941E-06
(PID.TID 0000.0001) %MON dynstat_wvel_del2            =   2.6523054770504E-08
(PID.TID 0000.0001) %MON dynstat_theta_max            =   3.1232943607991E+01
(PID.TID 0000.0001) %MON dynstat_theta_min            =  -4.0220187703393E+00
(PID.TID 0000.0001) %MON dynstat_theta_mean           =   3.9124157426136E+00
(PID.TID 0000.0001) %MON dynstat_theta_sd             =   4.5814344699856E+00
(PID.TID 0000.0001) %MON dynstat_theta_del2           =   2.8085180487527E-03
(PID.TID 0000.0001) %MON dynstat_salt_max             =   4.1419942639505E+01
(PID.TID 0000.0001) %MON dynstat_salt_min             =   1.8416180437810E+01
(PID.TID 0000.0001) %MON dynstat_salt_mean            =   3.4772111090933E+01
(PID.TID 0000.0001) %MON dynstat_salt_sd              =   5.3127949956564E-01
(PID.TID 0000.0001) %MON dynstat_salt_del2            =   8.4492632214695E-04
(PID.TID 0000.0001) %MON dynstat_sst_max              =   3.1232943607991E+01
(PID.TID 0000.0001) %MON dynstat_sst_min              =  -1.9831005542562E+00
(PID.TID 0000.0001) %MON dynstat_sst_mean             =   1.8379487789202E+01
(PID.TID 0000.0001) %MON dynstat_sst_sd               =   9.8459877064732E+00
(PID.TID 0000.0001) %MON dynstat_sst_del2             =   1.7822115741186E-02
(PID.TID 0000.0001) %MON dynstat_sss_max              =   4.1419942639505E+01
(PID.TID 0000.0001) %MON dynstat_sss_min              =   1.8416180437810E+01
(PID.TID 0000.0001) %MON dynstat_sss_mean             =   3.4620383801845E+01
(PID.TID 0000.0001) %MON dynstat_sss_sd               =   1.4578524615461E+00
(PID.TID 0000.0001) %MON dynstat_sss_del2             =   8.5451086735547E-03
(PID.TID 0000.0001) %MON forcing_qnet_max             =   3.5685846658347E+02
(PID.TID 0000.0001) %MON forcing_qnet_min             =  -1.7947302759356E+02
(PID.TID 0000.0001) %MON forcing_qnet_mean            =  -1.2072638813988E+01
(PID.TID 0000.0001) %MON forcing_qnet_sd              =   7.6988160467589E+01
(PID.TID 0000.0001) %MON forcing_qnet_del2            =   4.2488165604836E-01
(PID.TID 0000.0001) %MON forcing_qsw_max              =   0.0000000000000E+00
(PID.TID 0000.0001) %MON forcing_qsw_min              =   0.0000000000000E+00
(PID.TID 0000.0001) %MON forcing_qsw_mean             =   0.0000000000000E+00
(PID.TID 0000.0001) %MON forcing_qsw_sd               =   0.0000000000000E+00
(PID.TID 0000.0001) %MON forcing_qsw_del2             =   0.0000000000000E+00
(PID.TID 0000.0001) %MON forcing_empmr_max            =   7.6494447208479E-05
(PID.TID 0000.0001) %MON forcing_empmr_min            =  -1.5362614137596E-04
(PID.TID 0000.0001) %MON forcing_empmr_mean           =   0.0000000000000E+00
(PID.TID 0000.0001) %MON forcing_empmr_sd             =   2.4051723601802E-05
(PID.TID 0000.0001) %MON forcing_empmr_del2           =   1.2276157049243E-07
(PID.TID 0000.0001) %MON forcing_fu_max               =   2.6051367660312E-01
(PID.TID 0000.0001) %MON forcing_fu_min               =  -2.5556843903575E-01
(PID.TID 0000.0001) %MON forcing_fu_mean              =  -5.8581936320844E-03
(PID.TID 0000.0001) %MON forcing_fu_sd                =   6.5796892160491E-02
(PID.TID 0000.0001) %MON forcing_fu_del2              =   2.1028920450144E-04
(PID.TID 0000.0001) %MON forcing_fv_max               =   2.6832919398151E-01
(PID.TID 0000.0001) %MON forcing_fv_min               =  -3.1291616041268E-01
(PID.TID 0000.0001) %MON forcing_fv_mean              =  -1.3412508501890E-02
(PID.TID 0000.0001) %MON forcing_fv_sd                =   7.5639095790603E-02
(PID.TID 0000.0001) %MON forcing_fv_del2              =   2.3989887828210E-04
(PID.TID 0000.0001) %MON trAdv_CFL_u_max              =   7.2501018483554E-02
(PID.TID 0000.0001) %MON trAdv_CFL_v_max              =   8.0387682849768E-02
(PID.TID 0000.0001) %MON trAdv_CFL_w_max              =   7.2262973243338E-02
(PID.TID 0000.0001) %MON advcfl_uvel_max              =   7.2908592556247E-02
(PID.TID 0000.0001) %MON advcfl_vvel_max              =   7.5553220207167E-02
(PID.TID 0000.0001) %MON advcfl_wvel_max              =   6.5420573414033E-02
(PID.TID 0000.0001) %MON advcfl_W_hf_max              =   7.2262973243338E-02
(PID.TID 0000.0001) %MON pe_b_mean                    =   4.7332660599688E-04
(PID.TID 0000.0001) %MON ke_max                       =   3.5077459500793E-02
(PID.TID 0000.0001) %MON ke_mean                      =   1.3954064779785E-04
(PID.TID 0000.0001) %MON ke_vol                       =   1.3398024453628E+18
(PID.TID 0000.0001) %MON vort_r_min                   =  -1.3354484173211E-06
(PID.TID 0000.0001) %MON vort_r_max                   =   1.1513565179611E-06
(PID.TID 0000.0001) %MON vort_a_mean                  =  -2.0493733748264E-05
(PID.TID 0000.0001) %MON vort_a_sd                    =   7.5053948844929E-05
(PID.TID 0000.0001) %MON vort_p_mean                  =  -2.4715772059961E-05
(PID.TID 0000.0001) %MON vort_p_sd                    =   1.2777053988780E-04
(PID.TID 0000.0001) %MON surfExpan_theta_mean         =   5.7545525629270E-08
(PID.TID 0000.0001) %MON surfExpan_salt_mean          =   1.5450640384845E-08
(PID.TID 0000.0001) // =======================================================
(PID.TID 0000.0001) // End MONITOR dynamic field statistics
(PID.TID 0000.0001) // =======================================================
 DRIVER_GET_EXPORT_STATE_3D:MASK : Associated & shape =          32          32          15
  Finished plug run method 
 AGCM Date: 2000/04/15  Time: 10:30:00
  Starting plug run method 
 EXTERNAL_FIELDS_LOAD,     72054 : iP,iLd,i0,i1=    2    3    2    3 ; Wght=  0.7000000000  0.3000000000
 cg2d: Sum(rhs),rhsMax =  -2.28794760914752E-12  4.23698091158782E+00
(PID.TID 0000.0001)      cg2d_init_res =   3.07449585010220E-02
(PID.TID 0000.0001)      cg2d_iters(min,last) =      -1      84
(PID.TID 0000.0001)      cg2d_last_res =   8.80368325180903E-10
(PID.TID 0000.0001) // =======================================================
(PID.TID 0000.0001) // Begin MONITOR dynamic field statistics
(PID.TID 0000.0001) // =======================================================
(PID.TID 0000.0001) %MON time_tsnumber                =                 72055
(PID.TID 0000.0001) %MON time_secondsf                =   6.2255520000000E+09
(PID.TID 0000.0001) %MON dynstat_eta_max              =   8.7433589784715E-01
(PID.TID 0000.0001) %MON dynstat_eta_min              =  -1.5987703119716E+00
(PID.TID 0000.0001) %MON dynstat_eta_mean             =   1.4235198665035E-14
(PID.TID 0000.0001) %MON dynstat_eta_sd               =   5.9612077027134E-01
(PID.TID 0000.0001) %MON dynstat_eta_del2             =   8.1108941290412E-04
(PID.TID 0000.0001) %MON dynstat_uvel_max             =   1.7789882791122E-01
(PID.TID 0000.0001) %MON dynstat_uvel_min             =  -2.5637407732109E-01
(PID.TID 0000.0001) %MON dynstat_uvel_mean            =  -4.6247594274546E-04
(PID.TID 0000.0001) %MON dynstat_uvel_sd              =   1.1954965559657E-02
(PID.TID 0000.0001) %MON dynstat_uvel_del2            =   5.1694536632737E-05
(PID.TID 0000.0001) %MON dynstat_vvel_max             =   1.7201530621231E-01
(PID.TID 0000.0001) %MON dynstat_vvel_min             =  -2.2322164260587E-01
(PID.TID 0000.0001) %MON dynstat_vvel_mean            =  -3.7767140710535E-04
(PID.TID 0000.0001) %MON dynstat_vvel_sd              =   1.2602637562033E-02
(PID.TID 0000.0001) %MON dynstat_vvel_del2            =   5.0385757208252E-05
(PID.TID 0000.0001) %MON dynstat_wvel_max             =   1.0497882162964E-04
(PID.TID 0000.0001) %MON dynstat_wvel_min             =  -2.0073926011489E-04
(PID.TID 0000.0001) %MON dynstat_wvel_mean            =  -1.4399583425196E-10
(PID.TID 0000.0001) %MON dynstat_wvel_sd              =   3.6269989132467E-06
(PID.TID 0000.0001) %MON dynstat_wvel_del2            =   2.6526722719946E-08
(PID.TID 0000.0001) %MON dynstat_theta_max            =   3.1233533551068E+01
(PID.TID 0000.0001) %MON dynstat_theta_min            =  -4.0358007752987E+00
(PID.TID 0000.0001) %MON dynstat_theta_mean           =   3.9124621253618E+00
(PID.TID 0000.0001) %MON dynstat_theta_sd             =   4.5817220008552E+00
(PID.TID 0000.0001) %MON dynstat_theta_del2           =   2.8094059211888E-03
(PID.TID 0000.0001) %MON dynstat_salt_max             =   4.1420721069460E+01
(PID.TID 0000.0001) %MON dynstat_salt_min             =   1.8416466584702E+01
(PID.TID 0000.0001) %MON dynstat_salt_mean            =   3.4772112162455E+01
(PID.TID 0000.0001) %MON dynstat_salt_sd              =   5.3127435554293E-01
(PID.TID 0000.0001) %MON dynstat_salt_del2            =   8.4518273968154E-04
(PID.TID 0000.0001) %MON dynstat_sst_max              =   3.1233533551068E+01
(PID.TID 0000.0001) %MON dynstat_sst_min              =  -1.9815878925690E+00
(PID.TID 0000.0001) %MON dynstat_sst_mean             =   1.8383095041187E+01
(PID.TID 0000.0001) %MON dynstat_sst_sd               =   9.8515589537042E+00
(PID.TID 0000.0001) %MON dynstat_sst_del2             =   1.7796223373525E-02
(PID.TID 0000.0001) %MON dynstat_sss_max              =   4.1420721069460E+01
(PID.TID 0000.0001) %MON dynstat_sss_min              =   1.8416466584702E+01
(PID.TID 0000.0001) %MON dynstat_sss_mean             =   3.4620358140854E+01
(PID.TID 0000.0001) %MON dynstat_sss_sd               =   1.4576889485747E+00
(PID.TID 0000.0001) %MON dynstat_sss_del2             =   8.5451677903285E-03
(PID.TID 0000.0001) %MON forcing_qnet_max             =   3.5147392183482E+02
(PID.TID 0000.0001) %MON forcing_qnet_min             =  -1.7816888079915E+02
(PID.TID 0000.0001) %MON forcing_qnet_mean            =  -1.1869320667993E+01
(PID.TID 0000.0001) %MON forcing_qnet_sd              =   7.5862943041344E+01
(PID.TID 0000.0001) %MON forcing_qnet_del2            =   4.2515237649495E-01
(PID.TID 0000.0001) %MON forcing_qsw_max              =   0.0000000000000E+00
(PID.TID 0000.0001) %MON forcing_qsw_min              =   0.0000000000000E+00
(PID.TID 0000.0001) %MON forcing_qsw_mean             =   0.0000000000000E+00
(PID.TID 0000.0001) %MON forcing_qsw_sd               =   0.0000000000000E+00
(PID.TID 0000.0001) %MON forcing_qsw_del2             =   0.0000000000000E+00
(PID.TID 0000.0001) %MON forcing_empmr_max            =   7.6494447208479E-05
(PID.TID 0000.0001) %MON forcing_empmr_min            =  -1.5362614137596E-04
(PID.TID 0000.0001) %MON forcing_empmr_mean           =  -4.1932798010144E-22
(PID.TID 0000.0001) %MON forcing_empmr_sd             =   2.4051723601802E-05
(PID.TID 0000.0001) %MON forcing_empmr_del2           =   1.2276157049243E-07
(PID.TID 0000.0001) %MON forcing_fu_max               =   2.5958431458687E-01
(PID.TID 0000.0001) %MON forcing_fu_min               =  -2.5889419686490E-01
(PID.TID 0000.0001) %MON forcing_fu_mean              =  -5.9830231660957E-03
(PID.TID 0000.0001) %MON forcing_fu_sd                =   6.5872246449181E-02
(PID.TID 0000.0001) %MON forcing_fu_del2              =   2.0838599036001E-04
(PID.TID 0000.0001) %MON forcing_fv_max               =   2.6628603919445E-01
(PID.TID 0000.0001) %MON forcing_fv_min               =  -3.1405449376900E-01
(PID.TID 0000.0001) %MON forcing_fv_mean              =  -1.3377861451790E-02
(PID.TID 0000.0001) %MON forcing_fv_sd                =   7.5653442303668E-02
(PID.TID 0000.0001) %MON forcing_fv_del2              =   2.3793402828345E-04
(PID.TID 0000.0001) %MON trAdv_CFL_u_max              =   7.2306071774844E-02
(PID.TID 0000.0001) %MON trAdv_CFL_v_max              =   7.9776748072282E-02
(PID.TID 0000.0001) %MON trAdv_CFL_w_max              =   7.2293909850127E-02
(PID.TID 0000.0001) %MON advcfl_uvel_max              =   7.2712551407763E-02
(PID.TID 0000.0001) %MON advcfl_vvel_max              =   7.4979048589466E-02
(PID.TID 0000.0001) %MON advcfl_wvel_max              =   6.5448573863873E-02
(PID.TID 0000.0001) %MON advcfl_W_hf_max              =   7.2293909850127E-02
(PID.TID 0000.0001) %MON pe_b_mean                    =   4.7340515283531E-04
(PID.TID 0000.0001) %MON ke_max                       =   3.5045404814831E-02
(PID.TID 0000.0001) %MON ke_mean                      =   1.3950782312614E-04
(PID.TID 0000.0001) %MON ke_vol                       =   1.3398024453628E+18
(PID.TID 0000.0001) %MON vort_r_min                   =  -1.3355712410236E-06
(PID.TID 0000.0001) %MON vort_r_max                   =   1.1511389075021E-06
(PID.TID 0000.0001) %MON vort_a_mean                  =  -2.0493733748264E-05
(PID.TID 0000.0001) %MON vort_a_sd                    =   7.5053949088769E-05
(PID.TID 0000.0001) %MON vort_p_mean                  =  -2.4715772043454E-05
(PID.TID 0000.0001) %MON vort_p_sd                    =   1.2777053722979E-04
(PID.TID 0000.0001) %MON surfExpan_theta_mean         =   5.8259232612830E-08
(PID.TID 0000.0001) %MON surfExpan_salt_mean          =   1.5564151356404E-08
(PID.TID 0000.0001) // =======================================================
(PID.TID 0000.0001) // End MONITOR dynamic field statistics
(PID.TID 0000.0001) // =======================================================
 DRIVER_GET_EXPORT_STATE_3D:MASK : Associated & shape =          32          32          15
  Finished plug run method 
 AGCM Date: 2000/04/15  Time: 10:45:00
  Starting plug run method 
 EXTERNAL_FIELDS_LOAD,     72055 : iP,iLd,i0,i1=    2    3    2    3 ; Wght=  0.6666666667  0.3333333333
 cg2d: Sum(rhs),rhsMax =  -2.30215846386272E-12  4.23832318770522E+00
(PID.TID 0000.0001)      cg2d_init_res =   3.06687410211081E-02
(PID.TID 0000.0001)      cg2d_iters(min,last) =      -1      84
(PID.TID 0000.0001)      cg2d_last_res =   9.32686385945208E-10
(PID.TID 0000.0001) // =======================================================
(PID.TID 0000.0001) // Begin MONITOR dynamic field statistics
(PID.TID 0000.0001) // =======================================================
(PID.TID 0000.0001) %MON time_tsnumber                =                 72056
(PID.TID 0000.0001) %MON time_secondsf                =   6.2256384000000E+09
(PID.TID 0000.0001) %MON dynstat_eta_max              =   8.7441397012608E-01
(PID.TID 0000.0001) %MON dynstat_eta_min              =  -1.5989447999890E+00
(PID.TID 0000.0001) %MON dynstat_eta_mean             =   1.4564971607082E-14
(PID.TID 0000.0001) %MON dynstat_eta_sd               =   5.9618556508250E-01
(PID.TID 0000.0001) %MON dynstat_eta_del2             =   8.1141187917784E-04
(PID.TID 0000.0001) %MON dynstat_uvel_max             =   1.7862100186024E-01
(PID.TID 0000.0001) %MON dynstat_uvel_min             =  -2.5568752263206E-01
(PID.TID 0000.0001) %MON dynstat_uvel_mean            =  -4.6178597801305E-04
(PID.TID 0000.0001) %MON dynstat_uvel_sd              =   1.1947358504505E-02
(PID.TID 0000.0001) %MON dynstat_uvel_del2            =   5.1700127938137E-05
(PID.TID 0000.0001) %MON dynstat_vvel_max             =   1.7067295930799E-01
(PID.TID 0000.0001) %MON dynstat_vvel_min             =  -2.2321428760599E-01
(PID.TID 0000.0001) %MON dynstat_vvel_mean            =  -3.7728041109501E-04
(PID.TID 0000.0001) %MON dynstat_vvel_sd              =   1.2606928971536E-02
(PID.TID 0000.0001) %MON dynstat_vvel_del2            =   5.0400794707289E-05
(PID.TID 0000.0001) %MON dynstat_wvel_max             =   1.0530568601233E-04
(PID.TID 0000.0001) %MON dynstat_wvel_min             =  -2.0079112323359E-04
(PID.TID 0000.0001) %MON dynstat_wvel_mean            =  -1.7983039048088E-10
(PID.TID 0000.0001) %MON dynstat_wvel_sd              =   3.6218164444296E-06
(PID.TID 0000.0001) %MON dynstat_wvel_del2            =   2.6530931250510E-08
(PID.TID 0000.0001) %MON dynstat_theta_max            =   3.1234384317986E+01
(PID.TID 0000.0001) %MON dynstat_theta_min            =  -4.0489693771856E+00
(PID.TID 0000.0001) %MON dynstat_theta_mean           =   3.9125066186740E+00
(PID.TID 0000.0001) %MON dynstat_theta_sd             =   4.5820065672282E+00
(PID.TID 0000.0001) %MON dynstat_theta_del2           =   2.8093262593131E-03
(PID.TID 0000.0001) %MON dynstat_salt_max             =   4.1421508608001E+01
(PID.TID 0000.0001) %MON dynstat_salt_min             =   1.8416732345333E+01
(PID.TID 0000.0001) %MON dynstat_salt_mean            =   3.4772113235821E+01
(PID.TID 0000.0001) %MON dynstat_salt_sd              =   5.3126904980113E-01
(PID.TID 0000.0001) %MON dynstat_salt_del2            =   8.4523875606872E-04
(PID.TID 0000.0001) %MON dynstat_sst_max              =   3.1234384317986E+01
(PID.TID 0000.0001) %MON dynstat_sst_min              =  -1.9801292823808E+00
(PID.TID 0000.0001) %MON dynstat_sst_mean             =   1.8386496826719E+01
(PID.TID 0000.0001) %MON dynstat_sst_sd               =   9.8572450859557E+00
(PID.TID 0000.0001) %MON dynstat_sst_del2             =   1.7759912733334E-02
(PID.TID 0000.0001) %MON dynstat_sss_max              =   4.1421508608001E+01
(PID.TID 0000.0001) %MON dynstat_sss_min              =   1.8416732345333E+01
(PID.TID 0000.0001) %MON dynstat_sss_mean             =   3.4620352281283E+01
(PID.TID 0000.0001) %MON dynstat_sss_sd               =   1.4575268603881E+00
(PID.TID 0000.0001) %MON dynstat_sss_del2             =   8.5431732454007E-03
(PID.TID 0000.0001) %MON forcing_qnet_max             =   3.4608937708617E+02
(PID.TID 0000.0001) %MON forcing_qnet_min             =  -1.7686473400473E+02
(PID.TID 0000.0001) %MON forcing_qnet_mean            =  -1.1666002521998E+01
(PID.TID 0000.0001) %MON forcing_qnet_sd              =   7.4764126061091E+01
(PID.TID 0000.0001) %MON forcing_qnet_del2            =   4.2553314666384E-01
(PID.TID 0000.0001) %MON forcing_qsw_max              =   0.0000000000000E+00
(PID.TID 0000.0001) %MON forcing_qsw_min              =   0.0000000000000E+00
(PID.TID 0000.0001) %MON forcing_qsw_mean             =   0.0000000000000E+00
(PID.TID 0000.0001) %MON forcing_qsw_sd               =   0.0000000000000E+00
(PID.TID 0000.0001) %MON forcing_qsw_del2             =   0.0000000000000E+00
(PID.TID 0000.0001) %MON forcing_empmr_max            =   7.6494447208479E-05
(PID.TID 0000.0001) %MON forcing_empmr_min            =  -1.5362614137596E-04
(PID.TID 0000.0001) %MON forcing_empmr_mean           =   8.3865596020288E-22
(PID.TID 0000.0001) %MON forcing_empmr_sd             =   2.4051723601802E-05
(PID.TID 0000.0001) %MON forcing_empmr_del2           =   1.2276157049243E-07
(PID.TID 0000.0001) %MON forcing_fu_max               =   2.5935047464474E-01
(PID.TID 0000.0001) %MON forcing_fu_min               =  -2.6221995469406E-01
(PID.TID 0000.0001) %MON forcing_fu_mean              =  -6.1078527001069E-03
(PID.TID 0000.0001) %MON forcing_fu_sd                =   6.5963062002618E-02
(PID.TID 0000.0001) %MON forcing_fu_del2              =   2.0673966518472E-04
(PID.TID 0000.0001) %MON forcing_fv_max               =   2.6424288440739E-01
(PID.TID 0000.0001) %MON forcing_fv_min               =  -3.1519282712531E-01
(PID.TID 0000.0001) %MON forcing_fv_mean              =  -1.3343214401689E-02
(PID.TID 0000.0001) %MON forcing_fv_sd                =   7.5688536402542E-02
(PID.TID 0000.0001) %MON forcing_fv_del2              =   2.3625578009621E-04
(PID.TID 0000.0001) %MON trAdv_CFL_u_max              =   7.2134303428107E-02
(PID.TID 0000.0001) %MON trAdv_CFL_v_max              =   7.9154177473077E-02
(PID.TID 0000.0001) %MON trAdv_CFL_w_max              =   7.2312597555128E-02
(PID.TID 0000.0001) %MON advcfl_uvel_max              =   7.2517831474914E-02
(PID.TID 0000.0001) %MON advcfl_vvel_max              =   7.4393938485146E-02
(PID.TID 0000.0001) %MON advcfl_wvel_max              =   6.5465483197669E-02
(PID.TID 0000.0001) %MON advcfl_W_hf_max              =   7.2312597555128E-02
(PID.TID 0000.0001) %MON pe_b_mean                    =   4.7350807112322E-04
(PID.TID 0000.0001) %MON ke_max                       =   3.5013401143057E-02
(PID.TID 0000.0001) %MON ke_mean                      =   1.3947405127550E-04
(PID.TID 0000.0001) %MON ke_vol                       =   1.3398024453628E+18
(PID.TID 0000.0001) %MON vort_r_min                   =  -1.3356262477880E-06
(PID.TID 0000.0001) %MON vort_r_max                   =   1.1513909037991E-06
(PID.TID 0000.0001) %MON vort_a_mean                  =  -2.0493733748264E-05
(PID.TID 0000.0001) %MON vort_a_sd                    =   7.5053949345817E-05
(PID.TID 0000.0001) %MON vort_p_mean                  =  -2.4715772021004E-05
(PID.TID 0000.0001) %MON vort_p_sd                    =   1.2777053558549E-04
(PID.TID 0000.0001) %MON surfExpan_theta_mean         =   5.8834589131609E-08
(PID.TID 0000.0001) %MON surfExpan_salt_mean          =   1.5662346515725E-08
(PID.TID 0000.0001) // =======================================================
(PID.TID 0000.0001) // End MONITOR dynamic field statistics
(PID.TID 0000.0001) // =======================================================
 DRIVER_GET_EXPORT_STATE_3D:MASK : Associated & shape =          32          32          15
  Finished plug run method 
 AGCM Date: 2000/04/15  Time: 11:00:00
 
 Writing:     40 Slices (  1 Nodes,  1 PartitionRoot) to File:  TEST.mit_ocn.20000415_1100z.nc4
 
  Starting plug run method 
 EXTERNAL_FIELDS_LOAD,     72056 : iP,iLd,i0,i1=    2    3    2    3 ; Wght=  0.6333333333  0.3666666667
 cg2d: Sum(rhs),rhsMax =  -2.35189645536593E-12  4.23923450629728E+00
(PID.TID 0000.0001)      cg2d_init_res =   3.08445511531326E-02
(PID.TID 0000.0001)      cg2d_iters(min,last) =      -1      84
(PID.TID 0000.0001)      cg2d_last_res =   8.70585619180695E-10
(PID.TID 0000.0001) // =======================================================
(PID.TID 0000.0001) // Begin MONITOR dynamic field statistics
(PID.TID 0000.0001) // =======================================================
(PID.TID 0000.0001) %MON time_tsnumber                =                 72057
(PID.TID 0000.0001) %MON time_secondsf                =   6.2257248000000E+09
(PID.TID 0000.0001) %MON dynstat_eta_max              =   8.7453023163605E-01
(PID.TID 0000.0001) %MON dynstat_eta_min              =  -1.5991229639148E+00
(PID.TID 0000.0001) %MON dynstat_eta_mean             =   1.4125274351019E-14
(PID.TID 0000.0001) %MON dynstat_eta_sd               =   5.9626555053993E-01
(PID.TID 0000.0001) %MON dynstat_eta_del2             =   8.1171671593370E-04
(PID.TID 0000.0001) %MON dynstat_uvel_max             =   1.7937386632096E-01
(PID.TID 0000.0001) %MON dynstat_uvel_min             =  -2.5500575472148E-01
(PID.TID 0000.0001) %MON dynstat_uvel_mean            =  -4.6105603830240E-04
(PID.TID 0000.0001) %MON dynstat_uvel_sd              =   1.1939447172726E-02
(PID.TID 0000.0001) %MON dynstat_uvel_del2            =   5.1704708171889E-05
(PID.TID 0000.0001) %MON dynstat_vvel_max             =   1.6931686454398E-01
(PID.TID 0000.0001) %MON dynstat_vvel_min             =  -2.2320178948234E-01
(PID.TID 0000.0001) %MON dynstat_vvel_mean            =  -3.7688062240230E-04
(PID.TID 0000.0001) %MON dynstat_vvel_sd              =   1.2611456540136E-02
(PID.TID 0000.0001) %MON dynstat_vvel_del2            =   5.0415504949355E-05
(PID.TID 0000.0001) %MON dynstat_wvel_max             =   1.0564811993794E-04
(PID.TID 0000.0001) %MON dynstat_wvel_min             =  -2.0080856479114E-04
(PID.TID 0000.0001) %MON dynstat_wvel_mean            =  -2.1473538798140E-10
(PID.TID 0000.0001) %MON dynstat_wvel_sd              =   3.6164658612172E-06
(PID.TID 0000.0001) %MON dynstat_wvel_del2            =   2.6535682838798E-08
(PID.TID 0000.0001) %MON dynstat_theta_max            =   3.1243957901103E+01
(PID.TID 0000.0001) %MON dynstat_theta_min            =  -4.0615295763224E+00
(PID.TID 0000.0001) %MON dynstat_theta_mean           =   3.9125492732733E+00
(PID.TID 0000.0001) %MON dynstat_theta_sd             =   4.5822888301608E+00
(PID.TID 0000.0001) %MON dynstat_theta_del2           =   2.8092993539993E-03
(PID.TID 0000.0001) %MON dynstat_salt_max             =   4.1422304986952E+01
(PID.TID 0000.0001) %MON dynstat_salt_min             =   1.8416977184521E+01
(PID.TID 0000.0001) %MON dynstat_salt_mean            =   3.4772114310884E+01
(PID.TID 0000.0001) %MON dynstat_salt_sd              =   5.3126390092646E-01
(PID.TID 0000.0001) %MON dynstat_salt_del2            =   8.4529595824309E-04
(PID.TID 0000.0001) %MON dynstat_sst_max              =   3.1243957901103E+01
(PID.TID 0000.0001) %MON dynstat_sst_min              =  -1.9787151907109E+00
(PID.TID 0000.0001) %MON dynstat_sst_mean             =   1.8389744992480E+01
(PID.TID 0000.0001) %MON dynstat_sst_sd               =   9.8630386304916E+00
(PID.TID 0000.0001) %MON dynstat_sst_del2             =   1.7731275485184E-02
(PID.TID 0000.0001) %MON dynstat_sss_max              =   4.1422304986952E+01
(PID.TID 0000.0001) %MON dynstat_sss_min              =   1.8416977184521E+01
(PID.TID 0000.0001) %MON dynstat_sss_mean             =   3.4620366277922E+01
(PID.TID 0000.0001) %MON dynstat_sss_sd               =   1.4573782966452E+00
(PID.TID 0000.0001) %MON dynstat_sss_del2             =   8.5410748628211E-03
(PID.TID 0000.0001) %MON forcing_qnet_max             =   3.4070483233752E+02
(PID.TID 0000.0001) %MON forcing_qnet_min             =  -1.7556058721032E+02
(PID.TID 0000.0001) %MON forcing_qnet_mean            =  -1.1462684376003E+01
(PID.TID 0000.0001) %MON forcing_qnet_sd              =   7.3692890488408E+01
(PID.TID 0000.0001) %MON forcing_qnet_del2            =   4.2602367147540E-01
(PID.TID 0000.0001) %MON forcing_qsw_max              =   0.0000000000000E+00
(PID.TID 0000.0001) %MON forcing_qsw_min              =   0.0000000000000E+00
(PID.TID 0000.0001) %MON forcing_qsw_mean             =   0.0000000000000E+00
(PID.TID 0000.0001) %MON forcing_qsw_sd               =   0.0000000000000E+00
(PID.TID 0000.0001) %MON forcing_qsw_del2             =   0.0000000000000E+00
(PID.TID 0000.0001) %MON forcing_empmr_max            =   7.6494447208479E-05
(PID.TID 0000.0001) %MON forcing_empmr_min            =  -1.5362614137596E-04
(PID.TID 0000.0001) %MON forcing_empmr_mean           =   0.0000000000000E+00
(PID.TID 0000.0001) %MON forcing_empmr_sd             =   2.4051723601802E-05
(PID.TID 0000.0001) %MON forcing_empmr_del2           =   1.2276157049243E-07
(PID.TID 0000.0001) %MON forcing_fu_max               =   2.5926455828511E-01
(PID.TID 0000.0001) %MON forcing_fu_min               =  -2.6554571252322E-01
(PID.TID 0000.0001) %MON forcing_fu_mean              =  -6.2326822341181E-03
(PID.TID 0000.0001) %MON forcing_fu_sd                =   6.6069275063968E-02
(PID.TID 0000.0001) %MON forcing_fu_del2              =   2.0535640744071E-04
(PID.TID 0000.0001) %MON forcing_fv_max               =   2.6219972962033E-01
(PID.TID 0000.0001) %MON forcing_fv_min               =  -3.1633116048163E-01
(PID.TID 0000.0001) %MON forcing_fv_mean              =  -1.3308567351589E-02
(PID.TID 0000.0001) %MON forcing_fv_sd                =   7.5744349248732E-02
(PID.TID 0000.0001) %MON forcing_fv_del2              =   2.3487027747684E-04
(PID.TID 0000.0001) %MON trAdv_CFL_u_max              =   7.2087650613862E-02
(PID.TID 0000.0001) %MON trAdv_CFL_v_max              =   7.8525233370340E-02
(PID.TID 0000.0001) %MON trAdv_CFL_w_max              =   7.2318890976321E-02
(PID.TID 0000.0001) %MON advcfl_uvel_max              =   7.2328319826986E-02
(PID.TID 0000.0001) %MON advcfl_vvel_max              =   7.3802835882465E-02
(PID.TID 0000.0001) %MON advcfl_wvel_max              =   6.5471169803602E-02
(PID.TID 0000.0001) %MON advcfl_W_hf_max              =   7.2318890976321E-02
(PID.TID 0000.0001) %MON pe_b_mean                    =   4.7363513324111E-04
(PID.TID 0000.0001) %MON ke_max                       =   3.4981398459395E-02
(PID.TID 0000.0001) %MON ke_mean                      =   1.3943975606448E-04
(PID.TID 0000.0001) %MON ke_vol                       =   1.3398024453628E+18
(PID.TID 0000.0001) %MON vort_r_min                   =  -1.3356152624976E-06
(PID.TID 0000.0001) %MON vort_r_max                   =   1.1521090459476E-06
(PID.TID 0000.0001) %MON vort_a_mean                  =  -2.0493733748264E-05
(PID.TID 0000.0001) %MON vort_a_sd                    =   7.5053949615462E-05
(PID.TID 0000.0001) %MON vort_p_mean                  =  -2.4715771992040E-05
(PID.TID 0000.0001) %MON vort_p_sd                    =   1.2777053494258E-04
(PID.TID 0000.0001) %MON surfExpan_theta_mean         =   5.9265388844204E-08
(PID.TID 0000.0001) %MON surfExpan_salt_mean          =   1.5739249017265E-08
(PID.TID 0000.0001) // =======================================================
(PID.TID 0000.0001) // End MONITOR dynamic field statistics
(PID.TID 0000.0001) // =======================================================
 DRIVER_GET_EXPORT_STATE_3D:MASK : Associated & shape =          32          32          15
  Finished plug run method 
 AGCM Date: 2000/04/15  Time: 11:15:00
  Starting plug run method 
 EXTERNAL_FIELDS_LOAD,     72057 : iP,iLd,i0,i1=    2    3    2    3 ; Wght=  0.6000000000  0.4000000000
 cg2d: Sum(rhs),rhsMax =  -2.17426077142591E-12  4.23970657138745E+00
(PID.TID 0000.0001)      cg2d_init_res =   3.05367946547854E-02
(PID.TID 0000.0001)      cg2d_iters(min,last) =      -1      84
(PID.TID 0000.0001)      cg2d_last_res =   8.27844442452882E-10
(PID.TID 0000.0001) // =======================================================
(PID.TID 0000.0001) // Begin MONITOR dynamic field statistics
(PID.TID 0000.0001) // =======================================================
(PID.TID 0000.0001) %MON time_tsnumber                =                 72058
(PID.TID 0000.0001) %MON time_secondsf                =   6.2258112000000E+09
(PID.TID 0000.0001) %MON dynstat_eta_max              =   8.7468091508644E-01
(PID.TID 0000.0001) %MON dynstat_eta_min              =  -1.5993010929832E+00
(PID.TID 0000.0001) %MON dynstat_eta_mean             =   1.4510009450074E-14
(PID.TID 0000.0001) %MON dynstat_eta_sd               =   5.9636074398787E-01
(PID.TID 0000.0001) %MON dynstat_eta_del2             =   8.1200882721047E-04
(PID.TID 0000.0001) %MON dynstat_uvel_max             =   1.8015120406758E-01
(PID.TID 0000.0001) %MON dynstat_uvel_min             =  -2.5432887788639E-01
(PID.TID 0000.0001) %MON dynstat_uvel_mean            =  -4.6028722980108E-04
(PID.TID 0000.0001) %MON dynstat_uvel_sd              =   1.1931329163457E-02
(PID.TID 0000.0001) %MON dynstat_uvel_del2            =   5.1708392415562E-05
(PID.TID 0000.0001) %MON dynstat_vvel_max             =   1.6834505433141E-01
(PID.TID 0000.0001) %MON dynstat_vvel_min             =  -2.2318400748357E-01
(PID.TID 0000.0001) %MON dynstat_vvel_mean            =  -3.7646680686372E-04
(PID.TID 0000.0001) %MON dynstat_vvel_sd              =   1.2616169077364E-02
(PID.TID 0000.0001) %MON dynstat_vvel_del2            =   5.0429863362354E-05
(PID.TID 0000.0001) %MON dynstat_wvel_max             =   1.0599961417204E-04
(PID.TID 0000.0001) %MON dynstat_wvel_min             =  -2.0079162269115E-04
(PID.TID 0000.0001) %MON dynstat_wvel_mean            =  -2.4864471215712E-10
(PID.TID 0000.0001) %MON dynstat_wvel_sd              =   3.6109741493430E-06
(PID.TID 0000.0001) %MON dynstat_wvel_del2            =   2.6541001244305E-08
(PID.TID 0000.0001) %MON dynstat_theta_max            =   3.1260073009774E+01
(PID.TID 0000.0001) %MON dynstat_theta_min            =  -4.0734606543936E+00
(PID.TID 0000.0001) %MON dynstat_theta_mean           =   3.9125901268718E+00
(PID.TID 0000.0001) %MON dynstat_theta_sd             =   4.5825695398304E+00
(PID.TID 0000.0001) %MON dynstat_theta_del2           =   2.8107561399080E-03
(PID.TID 0000.0001) %MON dynstat_salt_max             =   4.1423110017796E+01
(PID.TID 0000.0001) %MON dynstat_salt_min             =   1.8417201216844E+01
(PID.TID 0000.0001) %MON dynstat_salt_mean            =   3.4772115387473E+01
(PID.TID 0000.0001) %MON dynstat_salt_sd              =   5.3125931883267E-01
(PID.TID 0000.0001) %MON dynstat_salt_del2            =   8.4568945185753E-04
(PID.TID 0000.0001) %MON dynstat_sst_max              =   3.1260073009774E+01
(PID.TID 0000.0001) %MON dynstat_sst_min              =  -1.9773353723891E+00
(PID.TID 0000.0001) %MON dynstat_sst_mean             =   1.8392625034493E+01
(PID.TID 0000.0001) %MON dynstat_sst_sd               =   9.8690723493808E+00
(PID.TID 0000.0001) %MON dynstat_sst_del2             =   1.7717928422608E-02
(PID.TID 0000.0001) %MON dynstat_sss_max              =   4.1423110017796E+01
(PID.TID 0000.0001) %MON dynstat_sss_min              =   1.8417201216844E+01
(PID.TID 0000.0001) %MON dynstat_sss_mean             =   3.4620357446356E+01
(PID.TID 0000.0001) %MON dynstat_sss_sd               =   1.4572245091067E+00
(PID.TID 0000.0001) %MON dynstat_sss_del2             =   8.5424068234002E-03
(PID.TID 0000.0001) %MON forcing_qnet_max             =   3.3532028758887E+02
(PID.TID 0000.0001) %MON forcing_qnet_min             =  -1.7559232341438E+02
(PID.TID 0000.0001) %MON forcing_qnet_mean            =  -1.1259366230008E+01
(PID.TID 0000.0001) %MON forcing_qnet_sd              =   7.2650456402337E+01
(PID.TID 0000.0001) %MON forcing_qnet_del2            =   4.2662357234751E-01
(PID.TID 0000.0001) %MON forcing_qsw_max              =   0.0000000000000E+00
(PID.TID 0000.0001) %MON forcing_qsw_min              =   0.0000000000000E+00
(PID.TID 0000.0001) %MON forcing_qsw_mean             =   0.0000000000000E+00
(PID.TID 0000.0001) %MON forcing_qsw_sd               =   0.0000000000000E+00
(PID.TID 0000.0001) %MON forcing_qsw_del2             =   0.0000000000000E+00
(PID.TID 0000.0001) %MON forcing_empmr_max            =   7.6494447208479E-05
(PID.TID 0000.0001) %MON forcing_empmr_min            =  -1.5362614137596E-04
(PID.TID 0000.0001) %MON forcing_empmr_mean           =   4.1932798010144E-22
(PID.TID 0000.0001) %MON forcing_empmr_sd             =   2.4051723601802E-05
(PID.TID 0000.0001) %MON forcing_empmr_del2           =   1.2276157049243E-07
(PID.TID 0000.0001) %MON forcing_fu_max               =   2.5917864192548E-01
(PID.TID 0000.0001) %MON forcing_fu_min               =  -2.6887147035238E-01
(PID.TID 0000.0001) %MON forcing_fu_mean              =  -6.3575117681294E-03
(PID.TID 0000.0001) %MON forcing_fu_sd                =   6.6190811510456E-02
(PID.TID 0000.0001) %MON forcing_fu_del2              =   2.0424156219318E-04
(PID.TID 0000.0001) %MON forcing_fv_max               =   2.6015657483327E-01
(PID.TID 0000.0001) %MON forcing_fv_min               =  -3.1746949383795E-01
(PID.TID 0000.0001) %MON forcing_fv_mean              =  -1.3273920301489E-02
(PID.TID 0000.0001) %MON forcing_fv_sd                =   7.5820835088114E-02
(PID.TID 0000.0001) %MON forcing_fv_del2              =   2.3378272531290E-04
(PID.TID 0000.0001) %MON trAdv_CFL_u_max              =   7.2040243217863E-02
(PID.TID 0000.0001) %MON trAdv_CFL_v_max              =   7.8074513826210E-02
(PID.TID 0000.0001) %MON trAdv_CFL_w_max              =   7.2312803817862E-02
(PID.TID 0000.0001) %MON advcfl_uvel_max              =   7.2280754403690E-02
(PID.TID 0000.0001) %MON advcfl_vvel_max              =   7.3379237501877E-02
(PID.TID 0000.0001) %MON advcfl_wvel_max              =   6.5465646039681E-02
(PID.TID 0000.0001) %MON advcfl_W_hf_max              =   7.2312803817862E-02
(PID.TID 0000.0001) %MON pe_b_mean                    =   4.7378637645954E-04
(PID.TID 0000.0001) %MON ke_max                       =   3.4949346231716E-02
(PID.TID 0000.0001) %MON ke_mean                      =   1.3940541650774E-04
(PID.TID 0000.0001) %MON ke_vol                       =   1.3398024453628E+18
(PID.TID 0000.0001) %MON vort_r_min                   =  -1.3355402085872E-06
(PID.TID 0000.0001) %MON vort_r_max                   =   1.1532970276963E-06
(PID.TID 0000.0001) %MON vort_a_mean                  =  -2.0493733748264E-05
(PID.TID 0000.0001) %MON vort_a_sd                    =   7.5053949896402E-05
(PID.TID 0000.0001) %MON vort_p_mean                  =  -2.4715771956253E-05
(PID.TID 0000.0001) %MON vort_p_sd                    =   1.2777053529775E-04
(PID.TID 0000.0001) %MON surfExpan_theta_mean         =   5.9557681828197E-08
(PID.TID 0000.0001) %MON surfExpan_salt_mean          =   1.5790170835809E-08
(PID.TID 0000.0001) // =======================================================
(PID.TID 0000.0001) // End MONITOR dynamic field statistics
(PID.TID 0000.0001) // =======================================================
 DRIVER_GET_EXPORT_STATE_3D:MASK : Associated & shape =          32          32          15
  Finished plug run method 
 AGCM Date: 2000/04/15  Time: 11:30:00
  Starting plug run method 
 EXTERNAL_FIELDS_LOAD,     72058 : iP,iLd,i0,i1=    2    3    2    3 ; Wght=  0.5666666667  0.4333333333
 cg2d: Sum(rhs),rhsMax =  -2.19557705349871E-12  4.23973734856315E+00
(PID.TID 0000.0001)      cg2d_init_res =   2.97321302930530E-02
(PID.TID 0000.0001)      cg2d_iters(min,last) =      -1      84
(PID.TID 0000.0001)      cg2d_last_res =   8.45138701838139E-10
(PID.TID 0000.0001) // =======================================================
(PID.TID 0000.0001) // Begin MONITOR dynamic field statistics
(PID.TID 0000.0001) // =======================================================
(PID.TID 0000.0001) %MON time_tsnumber                =                 72059
(PID.TID 0000.0001) %MON time_secondsf                =   6.2258976000000E+09
(PID.TID 0000.0001) %MON dynstat_eta_max              =   8.7486225529140E-01
(PID.TID 0000.0001) %MON dynstat_eta_min              =  -1.5994761224121E+00
(PID.TID 0000.0001) %MON dynstat_eta_mean             =   1.4455047293066E-14
(PID.TID 0000.0001) %MON dynstat_eta_sd               =   5.9647108629693E-01
(PID.TID 0000.0001) %MON dynstat_eta_del2             =   8.1229904789651E-04
(PID.TID 0000.0001) %MON dynstat_uvel_max             =   1.8094671654810E-01
(PID.TID 0000.0001) %MON dynstat_uvel_min             =  -2.5365697251168E-01
(PID.TID 0000.0001) %MON dynstat_uvel_mean            =  -4.5948299650500E-04
(PID.TID 0000.0001) %MON dynstat_uvel_sd              =   1.1923108791554E-02
(PID.TID 0000.0001) %MON dynstat_uvel_del2            =   5.1711394711294E-05
(PID.TID 0000.0001) %MON dynstat_vvel_max             =   1.6866516217469E-01
(PID.TID 0000.0001) %MON dynstat_vvel_min             =  -2.2316080338702E-01
(PID.TID 0000.0001) %MON dynstat_vvel_mean            =  -3.7603568975307E-04
(PID.TID 0000.0001) %MON dynstat_vvel_sd              =   1.2621013482161E-02
(PID.TID 0000.0001) %MON dynstat_vvel_del2            =   5.0443889771218E-05
(PID.TID 0000.0001) %MON dynstat_wvel_max             =   1.0635359778131E-04
(PID.TID 0000.0001) %MON dynstat_wvel_min             =  -2.0074077283597E-04
(PID.TID 0000.0001) %MON dynstat_wvel_mean            =  -2.8022601003900E-10
(PID.TID 0000.0001) %MON dynstat_wvel_sd              =   3.6053695251489E-06
(PID.TID 0000.0001) %MON dynstat_wvel_del2            =   2.6546975762109E-08
(PID.TID 0000.0001) %MON dynstat_theta_max            =   3.1275581776746E+01
(PID.TID 0000.0001) %MON dynstat_theta_min            =  -4.0847459237658E+00
(PID.TID 0000.0001) %MON dynstat_theta_mean           =   3.9126293808051E+00
(PID.TID 0000.0001) %MON dynstat_theta_sd             =   4.5828478704914E+00
(PID.TID 0000.0001) %MON dynstat_theta_del2           =   2.8122974332460E-03
(PID.TID 0000.0001) %MON dynstat_salt_max             =   4.1423923520287E+01
(PID.TID 0000.0001) %MON dynstat_salt_min             =   1.8417405255224E+01
(PID.TID 0000.0001) %MON dynstat_salt_mean            =   3.4772116466066E+01
(PID.TID 0000.0001) %MON dynstat_salt_sd              =   5.3125485881927E-01
(PID.TID 0000.0001) %MON dynstat_salt_del2            =   8.4611639529632E-04
(PID.TID 0000.0001) %MON dynstat_sst_max              =   3.1275581776746E+01
(PID.TID 0000.0001) %MON dynstat_sst_min              =  -1.9759788554882E+00
(PID.TID 0000.0001) %MON dynstat_sst_mean             =   1.8395252409147E+01
(PID.TID 0000.0001) %MON dynstat_sst_sd               =   9.8752559079428E+00
(PID.TID 0000.0001) %MON dynstat_sst_del2             =   1.7702842652417E-02
(PID.TID 0000.0001) %MON dynstat_sss_max              =   4.1423923520287E+01
(PID.TID 0000.0001) %MON dynstat_sss_min              =   1.8417405255224E+01
(PID.TID 0000.0001) %MON dynstat_sss_mean             =   3.4620337820919E+01
(PID.TID 0000.0001) %MON dynstat_sss_sd               =   1.4570728242612E+00
(PID.TID 0000.0001) %MON dynstat_sss_del2             =   8.5440149161019E-03
(PID.TID 0000.0001) %MON forcing_qnet_max             =   3.3065214585515E+02
(PID.TID 0000.0001) %MON forcing_qnet_min             =  -1.7610041800446E+02
(PID.TID 0000.0001) %MON forcing_qnet_mean            =  -1.1056048084014E+01
(PID.TID 0000.0001) %MON forcing_qnet_sd              =   7.1638081119421E+01
(PID.TID 0000.0001) %MON forcing_qnet_del2            =   4.2733238864513E-01
(PID.TID 0000.0001) %MON forcing_qsw_max              =   0.0000000000000E+00
(PID.TID 0000.0001) %MON forcing_qsw_min              =   0.0000000000000E+00
(PID.TID 0000.0001) %MON forcing_qsw_mean             =   0.0000000000000E+00
(PID.TID 0000.0001) %MON forcing_qsw_sd               =   0.0000000000000E+00
(PID.TID 0000.0001) %MON forcing_qsw_del2             =   0.0000000000000E+00
(PID.TID 0000.0001) %MON forcing_empmr_max            =   7.6494447208479E-05
(PID.TID 0000.0001) %MON forcing_empmr_min            =  -1.5362614137596E-04
(PID.TID 0000.0001) %MON forcing_empmr_mean           =   4.1932798010144E-22
(PID.TID 0000.0001) %MON forcing_empmr_sd             =   2.4051723601802E-05
(PID.TID 0000.0001) %MON forcing_empmr_del2           =   1.2276157049243E-07
(PID.TID 0000.0001) %MON forcing_fu_max               =   2.5909272556586E-01
(PID.TID 0000.0001) %MON forcing_fu_min               =  -2.7240689135013E-01
(PID.TID 0000.0001) %MON forcing_fu_mean              =  -6.4823413021406E-03
(PID.TID 0000.0001) %MON forcing_fu_sd                =   6.6327587107964E-02
(PID.TID 0000.0001) %MON forcing_fu_del2              =   2.0339954304560E-04
(PID.TID 0000.0001) %MON forcing_fv_max               =   2.5811342004621E-01
(PID.TID 0000.0001) %MON forcing_fv_min               =  -3.1860782719427E-01
(PID.TID 0000.0001) %MON forcing_fv_mean              =  -1.3239273251389E-02
(PID.TID 0000.0001) %MON forcing_fv_sd                =   7.5917931437799E-02
(PID.TID 0000.0001) %MON forcing_fv_del2              =   2.3299729583604E-04
(PID.TID 0000.0001) %MON trAdv_CFL_u_max              =   7.1992072068173E-02
(PID.TID 0000.0001) %MON trAdv_CFL_v_max              =   7.8222957835048E-02
(PID.TID 0000.0001) %MON trAdv_CFL_w_max              =   7.2294507741543E-02
(PID.TID 0000.0001) %MON advcfl_uvel_max              =   7.2232422672752E-02
(PID.TID 0000.0001) %MON advcfl_vvel_max              =   7.3518768001018E-02
(PID.TID 0000.0001) %MON advcfl_wvel_max              =   6.5449067068028E-02
(PID.TID 0000.0001) %MON advcfl_W_hf_max              =   7.2294507741543E-02
(PID.TID 0000.0001) %MON pe_b_mean                    =   4.7396171838059E-04
(PID.TID 0000.0001) %MON ke_max                       =   3.4917193684775E-02
(PID.TID 0000.0001) %MON ke_mean                      =   1.3937156095096E-04
(PID.TID 0000.0001) %MON ke_vol                       =   1.3398024453628E+18
(PID.TID 0000.0001) %MON vort_r_min                   =  -1.3354030789080E-06
(PID.TID 0000.0001) %MON vort_r_max                   =   1.1549427271082E-06
(PID.TID 0000.0001) %MON vort_a_mean                  =  -2.0493733748264E-05
(PID.TID 0000.0001) %MON vort_a_sd                    =   7.5053950186724E-05
(PID.TID 0000.0001) %MON vort_p_mean                  =  -2.4715771913285E-05
(PID.TID 0000.0001) %MON vort_p_sd                    =   1.2777053664868E-04
(PID.TID 0000.0001) %MON surfExpan_theta_mean         =   5.9738165085663E-08
(PID.TID 0000.0001) %MON surfExpan_salt_mean          =   1.5813399313385E-08
(PID.TID 0000.0001) // =======================================================
(PID.TID 0000.0001) // End MONITOR dynamic field statistics
(PID.TID 0000.0001) // =======================================================
 DRIVER_GET_EXPORT_STATE_3D:MASK : Associated & shape =          32          32          15
  Finished plug run method 
 AGCM Date: 2000/04/15  Time: 11:45:00
  Starting plug run method 
 EXTERNAL_FIELDS_LOAD,     72059 : iP,iLd,i0,i1=    2    3    2    3 ; Wght=  0.5333333333  0.4666666667
 cg2d: Sum(rhs),rhsMax =  -2.24531504500192E-12  4.23933096104203E+00
(PID.TID 0000.0001)      cg2d_init_res =   2.95284057692218E-02
(PID.TID 0000.0001)      cg2d_iters(min,last) =      -1      84
(PID.TID 0000.0001)      cg2d_last_res =   9.28139504680613E-10
(PID.TID 0000.0001) // =======================================================
(PID.TID 0000.0001) // Begin MONITOR dynamic field statistics
(PID.TID 0000.0001) // =======================================================
(PID.TID 0000.0001) %MON time_tsnumber                =                 72060
(PID.TID 0000.0001) %MON time_secondsf                =   6.2259840000000E+09
(PID.TID 0000.0001) %MON dynstat_eta_max              =   8.7507192540686E-01
(PID.TID 0000.0001) %MON dynstat_eta_min              =  -1.5996457656321E+00
(PID.TID 0000.0001) %MON dynstat_eta_mean             =   1.3960387879995E-14
(PID.TID 0000.0001) %MON dynstat_eta_sd               =   5.9659638337409E-01
(PID.TID 0000.0001) %MON dynstat_eta_del2             =   8.1257965508258E-04
(PID.TID 0000.0001) %MON dynstat_uvel_max             =   1.8175410357595E-01
(PID.TID 0000.0001) %MON dynstat_uvel_min             =  -2.5299009569556E-01
(PID.TID 0000.0001) %MON dynstat_uvel_mean            =  -4.5864942214100E-04
(PID.TID 0000.0001) %MON dynstat_uvel_sd              =   1.1914896460121E-02
(PID.TID 0000.0001) %MON dynstat_uvel_del2            =   5.1713857624426E-05
(PID.TID 0000.0001) %MON dynstat_vvel_max             =   1.6899118739600E-01
(PID.TID 0000.0001) %MON dynstat_vvel_min             =  -2.2313204217999E-01
(PID.TID 0000.0001) %MON dynstat_vvel_mean            =  -3.7558501290743E-04
(PID.TID 0000.0001) %MON dynstat_vvel_sd              =   1.2625933125567E-02
(PID.TID 0000.0001) %MON dynstat_vvel_del2            =   5.0457560262578E-05
(PID.TID 0000.0001) %MON dynstat_wvel_max             =   1.0670357698364E-04
(PID.TID 0000.0001) %MON dynstat_wvel_min             =  -2.0065687632661E-04
(PID.TID 0000.0001) %MON dynstat_wvel_mean            =  -3.0834846109126E-10
(PID.TID 0000.0001) %MON dynstat_wvel_sd              =   3.5996868399773E-06
(PID.TID 0000.0001) %MON dynstat_wvel_del2            =   2.6553597742585E-08
(PID.TID 0000.0001) %MON dynstat_theta_max            =   3.1290477071852E+01
(PID.TID 0000.0001) %MON dynstat_theta_min            =  -4.0953715288455E+00
(PID.TID 0000.0001) %MON dynstat_theta_mean           =   3.9126670220177E+00
(PID.TID 0000.0001) %MON dynstat_theta_sd             =   4.5831238066785E+00
(PID.TID 0000.0001) %MON dynstat_theta_del2           =   2.8137720060596E-03
(PID.TID 0000.0001) %MON dynstat_salt_max             =   4.1424745276295E+01
(PID.TID 0000.0001) %MON dynstat_salt_min             =   1.8417590431345E+01
(PID.TID 0000.0001) %MON dynstat_salt_mean            =   3.4772117546851E+01
(PID.TID 0000.0001) %MON dynstat_salt_sd              =   5.3125042981637E-01
(PID.TID 0000.0001) %MON dynstat_salt_del2            =   8.4652576503155E-04
(PID.TID 0000.0001) %MON dynstat_sst_max              =   3.1290477071852E+01
(PID.TID 0000.0001) %MON dynstat_sst_min              =  -1.9746340163752E+00
(PID.TID 0000.0001) %MON dynstat_sst_mean             =   1.8397622072681E+01
(PID.TID 0000.0001) %MON dynstat_sst_sd               =   9.8815794480301E+00
(PID.TID 0000.0001) %MON dynstat_sst_del2             =   1.7684881071854E-02
(PID.TID 0000.0001) %MON dynstat_sss_max              =   4.1424745276295E+01
(PID.TID 0000.0001) %MON dynstat_sss_min              =   1.8417590431345E+01
(PID.TID 0000.0001) %MON dynstat_sss_mean             =   3.4620318062629E+01
(PID.TID 0000.0001) %MON dynstat_sss_sd               =   1.4569215771877E+00
(PID.TID 0000.0001) %MON dynstat_sss_del2             =   8.5454267651161E-03
(PID.TID 0000.0001) %MON forcing_qnet_max             =   3.3042634335178E+02
(PID.TID 0000.0001) %MON forcing_qnet_min             =  -1.7660851259454E+02
(PID.TID 0000.0001) %MON forcing_qnet_mean            =  -1.0852729938019E+01
(PID.TID 0000.0001) %MON forcing_qnet_sd              =   7.0657056700312E+01
(PID.TID 0000.0001) %MON forcing_qnet_del2            =   4.2814957942894E-01
(PID.TID 0000.0001) %MON forcing_qsw_max              =   0.0000000000000E+00
(PID.TID 0000.0001) %MON forcing_qsw_min              =   0.0000000000000E+00
(PID.TID 0000.0001) %MON forcing_qsw_mean             =   0.0000000000000E+00
(PID.TID 0000.0001) %MON forcing_qsw_sd               =   0.0000000000000E+00
(PID.TID 0000.0001) %MON forcing_qsw_del2             =   0.0000000000000E+00
(PID.TID 0000.0001) %MON forcing_empmr_max            =   7.6494447208479E-05
(PID.TID 0000.0001) %MON forcing_empmr_min            =  -1.5362614137596E-04
(PID.TID 0000.0001) %MON forcing_empmr_mean           =   4.1932798010144E-22
(PID.TID 0000.0001) %MON forcing_empmr_sd             =   2.4051723601802E-05
(PID.TID 0000.0001) %MON forcing_empmr_del2           =   1.2276157049243E-07
(PID.TID 0000.0001) %MON forcing_fu_max               =   2.5900680920623E-01
(PID.TID 0000.0001) %MON forcing_fu_min               =  -2.7674482002417E-01
(PID.TID 0000.0001) %MON forcing_fu_mean              =  -6.6071708361519E-03
(PID.TID 0000.0001) %MON forcing_fu_sd                =   6.6479507797018E-02
(PID.TID 0000.0001) %MON forcing_fu_del2              =   2.0283374775688E-04
(PID.TID 0000.0001) %MON forcing_fv_max               =   2.5607026525915E-01
(PID.TID 0000.0001) %MON forcing_fv_min               =  -3.1974616055058E-01
(PID.TID 0000.0001) %MON forcing_fv_mean              =  -1.3204626201289E-02
(PID.TID 0000.0001) %MON forcing_fv_sd                =   7.6035559339825E-02
(PID.TID 0000.0001) %MON forcing_fv_del2              =   2.3251705072657E-04
(PID.TID 0000.0001) %MON trAdv_CFL_u_max              =   7.1943129476833E-02
(PID.TID 0000.0001) %MON trAdv_CFL_v_max              =   7.8374148116822E-02
(PID.TID 0000.0001) %MON trAdv_CFL_w_max              =   7.2264313195957E-02
(PID.TID 0000.0001) %MON advcfl_uvel_max              =   7.2183316919855E-02
(PID.TID 0000.0001) %MON advcfl_vvel_max              =   7.3660877801873E-02
(PID.TID 0000.0001) %MON advcfl_wvel_max              =   6.5421713640072E-02
(PID.TID 0000.0001) %MON advcfl_W_hf_max              =   7.2264313195957E-02
(PID.TID 0000.0001) %MON pe_b_mean                    =   4.7416086384393E-04
(PID.TID 0000.0001) %MON ke_max                       =   3.4884890192099E-02
(PID.TID 0000.0001) %MON ke_mean                      =   1.3933874054031E-04
(PID.TID 0000.0001) %MON ke_vol                       =   1.3398024453628E+18
(PID.TID 0000.0001) %MON vort_r_min                   =  -1.3352059002433E-06
(PID.TID 0000.0001) %MON vort_r_max                   =   1.1570420808629E-06
(PID.TID 0000.0001) %MON vort_a_mean                  =  -2.0493733748264E-05
(PID.TID 0000.0001) %MON vort_a_sd                    =   7.5053950483914E-05
(PID.TID 0000.0001) %MON vort_p_mean                  =  -2.4715771863368E-05
(PID.TID 0000.0001) %MON vort_p_sd                    =   1.2777053898917E-04
(PID.TID 0000.0001) %MON surfExpan_theta_mean         =   5.9827685037063E-08
(PID.TID 0000.0001) %MON surfExpan_salt_mean          =   1.5809298683355E-08
(PID.TID 0000.0001) // =======================================================
(PID.TID 0000.0001) // End MONITOR dynamic field statistics
(PID.TID 0000.0001) // =======================================================
(PID.TID 0000.0001) %CHECKPOINT     72060 0000072060
 DRIVER_GET_EXPORT_STATE_3D:MASK : Associated & shape =          32          32          15
  Finished plug run method 
 AGCM Date: 2000/04/15  Time: 12:00:00
 
 Writing:    483 Slices (  1 Nodes,  1 PartitionRoot) to File:  TEST.geosgcm_prog.20000415_1200z.nc4
 Writing:    147 Slices (  1 Nodes,  1 PartitionRoot) to File:  TEST.geosgcm_surf.20000415_1030z.nc4
 Writing:     40 Slices (  1 Nodes,  1 PartitionRoot) to File:  TEST.mit_ocn.20000415_1200z.nc4
 
  Starting plug run method 
 EXTERNAL_FIELDS_LOAD,     72060 : iP,iLd,i0,i1=    2    3    2    3 ; Wght=  0.5000000000  0.5000000000
 cg2d: Sum(rhs),rhsMax =  -2.19557705349871E-12  4.23849740350905E+00
(PID.TID 0000.0001)      cg2d_init_res =   2.94060032750713E-02
(PID.TID 0000.0001)      cg2d_iters(min,last) =      -1      85
(PID.TID 0000.0001)      cg2d_last_res =   8.45400969755324E-10
(PID.TID 0000.0001) // =======================================================
(PID.TID 0000.0001) // Begin MONITOR dynamic field statistics
(PID.TID 0000.0001) // =======================================================
(PID.TID 0000.0001) %MON time_tsnumber                =                 72061
(PID.TID 0000.0001) %MON time_secondsf                =   6.2260704000000E+09
(PID.TID 0000.0001) %MON dynstat_eta_max              =   8.7530893494524E-01
(PID.TID 0000.0001) %MON dynstat_eta_min              =  -1.5998085577532E+00
(PID.TID 0000.0001) %MON dynstat_eta_mean             =   1.4345122979050E-14
(PID.TID 0000.0001) %MON dynstat_eta_sd               =   5.9673619944087E-01
(PID.TID 0000.0001) %MON dynstat_eta_del2             =   8.1284975050161E-04
(PID.TID 0000.0001) %MON dynstat_uvel_max             =   1.8256714039422E-01
(PID.TID 0000.0001) %MON dynstat_uvel_min             =  -2.5232828043434E-01
(PID.TID 0000.0001) %MON dynstat_uvel_mean            =  -4.5779472824312E-04
(PID.TID 0000.0001) %MON dynstat_uvel_sd              =   1.1906802835780E-02
(PID.TID 0000.0001) %MON dynstat_uvel_del2            =   5.1715971619761E-05
(PID.TID 0000.0001) %MON dynstat_vvel_max             =   1.6932023726751E-01
(PID.TID 0000.0001) %MON dynstat_vvel_min             =  -2.2309759273693E-01
(PID.TID 0000.0001) %MON dynstat_vvel_mean            =  -3.7511301349876E-04
(PID.TID 0000.0001) %MON dynstat_vvel_sd              =   1.2630872813146E-02
(PID.TID 0000.0001) %MON dynstat_vvel_del2            =   5.0470865943769E-05
(PID.TID 0000.0001) %MON dynstat_wvel_max             =   1.0704324180159E-04
(PID.TID 0000.0001) %MON dynstat_wvel_min             =  -2.0054121694267E-04
(PID.TID 0000.0001) %MON dynstat_wvel_mean            =  -3.3204090156890E-10
(PID.TID 0000.0001) %MON dynstat_wvel_sd              =   3.5939592707002E-06
(PID.TID 0000.0001) %MON dynstat_wvel_del2            =   2.6560773186429E-08
(PID.TID 0000.0001) %MON dynstat_theta_max            =   3.1304751496453E+01
(PID.TID 0000.0001) %MON dynstat_theta_min            =  -4.1053232098547E+00
(PID.TID 0000.0001) %MON dynstat_theta_mean           =   3.9127030652765E+00
(PID.TID 0000.0001) %MON dynstat_theta_sd             =   4.5833974855173E+00
(PID.TID 0000.0001) %MON dynstat_theta_del2           =   2.8151021151952E-03
(PID.TID 0000.0001) %MON dynstat_salt_max             =   4.1425575017410E+01
(PID.TID 0000.0001) %MON dynstat_salt_min             =   1.8417757794855E+01
(PID.TID 0000.0001) %MON dynstat_salt_mean            =   3.4772118629669E+01
(PID.TID 0000.0001) %MON dynstat_salt_sd              =   5.3124602021815E-01
(PID.TID 0000.0001) %MON dynstat_salt_del2            =   8.4689386804756E-04
(PID.TID 0000.0001) %MON dynstat_sst_max              =   3.1304751496453E+01
(PID.TID 0000.0001) %MON dynstat_sst_min              =  -1.9732887294500E+00
(PID.TID 0000.0001) %MON dynstat_sst_mean             =   1.8399793443988E+01
(PID.TID 0000.0001) %MON dynstat_sst_sd               =   9.8880234076986E+00
(PID.TID 0000.0001) %MON dynstat_sst_del2             =   1.7665263565239E-02
(PID.TID 0000.0001) %MON dynstat_sss_max              =   4.1425575017410E+01
(PID.TID 0000.0001) %MON dynstat_sss_min              =   1.8417757794855E+01
(PID.TID 0000.0001) %MON dynstat_sss_mean             =   3.4620303766719E+01
(PID.TID 0000.0001) %MON dynstat_sss_sd               =   1.4567814105865E+00
(PID.TID 0000.0001) %MON dynstat_sss_del2             =   8.5463740250545E-03
(PID.TID 0000.0001) %MON forcing_qnet_max             =   3.3020054084842E+02
(PID.TID 0000.0001) %MON forcing_qnet_min             =  -1.7711660718462E+02
(PID.TID 0000.0001) %MON forcing_qnet_mean            =  -1.0649411792024E+01
(PID.TID 0000.0001) %MON forcing_qnet_sd              =   6.9708706778299E+01
(PID.TID 0000.0001) %MON forcing_qnet_del2            =   4.2907452548786E-01
(PID.TID 0000.0001) %MON forcing_qsw_max              =   0.0000000000000E+00
(PID.TID 0000.0001) %MON forcing_qsw_min              =   0.0000000000000E+00
(PID.TID 0000.0001) %MON forcing_qsw_mean             =   0.0000000000000E+00
(PID.TID 0000.0001) %MON forcing_qsw_sd               =   0.0000000000000E+00
(PID.TID 0000.0001) %MON forcing_qsw_del2             =   0.0000000000000E+00
(PID.TID 0000.0001) %MON forcing_empmr_max            =   7.6494447208479E-05
(PID.TID 0000.0001) %MON forcing_empmr_min            =  -1.5362614137596E-04
(PID.TID 0000.0001) %MON forcing_empmr_mean           =   4.1932798010144E-22
(PID.TID 0000.0001) %MON forcing_empmr_sd             =   2.4051723601802E-05
(PID.TID 0000.0001) %MON forcing_empmr_del2           =   1.2276157049243E-07
(PID.TID 0000.0001) %MON forcing_fu_max               =   2.5892089284660E-01
(PID.TID 0000.0001) %MON forcing_fu_min               =  -2.8108274869822E-01
(PID.TID 0000.0001) %MON forcing_fu_mean              =  -6.7320003701631E-03
(PID.TID 0000.0001) %MON forcing_fu_sd                =   6.6646470007948E-02
(PID.TID 0000.0001) %MON forcing_fu_del2              =   2.0254649115928E-04
(PID.TID 0000.0001) %MON forcing_fv_max               =   2.5402711047209E-01
(PID.TID 0000.0001) %MON forcing_fv_min               =  -3.2088449390690E-01
(PID.TID 0000.0001) %MON forcing_fv_mean              =  -1.3169979151189E-02
(PID.TID 0000.0001) %MON forcing_fv_sd                =   7.6173623679302E-02
(PID.TID 0000.0001) %MON forcing_fv_del2              =   2.3234388240228E-04
(PID.TID 0000.0001) %MON trAdv_CFL_u_max              =   7.1893409286893E-02
(PID.TID 0000.0001) %MON trAdv_CFL_v_max              =   7.8526743075136E-02
(PID.TID 0000.0001) %MON trAdv_CFL_w_max              =   7.2222682581923E-02
(PID.TID 0000.0001) %MON advcfl_uvel_max              =   7.2133430967067E-02
(PID.TID 0000.0001) %MON advcfl_vvel_max              =   7.3804306005137E-02
(PID.TID 0000.0001) %MON advcfl_wvel_max              =   6.5384004316404E-02
(PID.TID 0000.0001) %MON advcfl_W_hf_max              =   7.2222682581923E-02
(PID.TID 0000.0001) %MON pe_b_mean                    =   4.7438313497132E-04
(PID.TID 0000.0001) %MON ke_max                       =   3.4852385299658E-02
(PID.TID 0000.0001) %MON ke_mean                      =   1.3930752282961E-04
(PID.TID 0000.0001) %MON ke_vol                       =   1.3398024453628E+18
(PID.TID 0000.0001) %MON vort_r_min                   =  -1.3349506961188E-06
(PID.TID 0000.0001) %MON vort_r_max                   =   1.1595856843941E-06
(PID.TID 0000.0001) %MON vort_a_mean                  =  -2.0493733748264E-05
(PID.TID 0000.0001) %MON vort_a_sd                    =   7.5053950785140E-05
(PID.TID 0000.0001) %MON vort_p_mean                  =  -2.4715771806890E-05
(PID.TID 0000.0001) %MON vort_p_sd                    =   1.2777054228758E-04
(PID.TID 0000.0001) %MON surfExpan_theta_mean         =   5.9857151846721E-08
(PID.TID 0000.0001) %MON surfExpan_salt_mean          =   1.5782161420432E-08
(PID.TID 0000.0001) // =======================================================
(PID.TID 0000.0001) // End MONITOR dynamic field statistics
(PID.TID 0000.0001) // =======================================================
 DRIVER_GET_EXPORT_STATE_3D:MASK : Associated & shape =          32          32          15
  Finished plug run method 
 AGCM Date: 2000/04/15  Time: 12:15:00
  Starting plug run method 
 EXTERNAL_FIELDS_LOAD,     72061 : iP,iLd,i0,i1=    2    3    2    3 ; Wght=  0.4666666667  0.5333333333
 cg2d: Sum(rhs),rhsMax =  -2.28794760914752E-12  4.23725211294848E+00
(PID.TID 0000.0001)      cg2d_init_res =   2.93430295947000E-02
(PID.TID 0000.0001)      cg2d_iters(min,last) =      -1      85
(PID.TID 0000.0001)      cg2d_last_res =   9.33734809290112E-10
(PID.TID 0000.0001) // =======================================================
(PID.TID 0000.0001) // Begin MONITOR dynamic field statistics
(PID.TID 0000.0001) // =======================================================
(PID.TID 0000.0001) %MON time_tsnumber                =                 72062
(PID.TID 0000.0001) %MON time_secondsf                =   6.2261568000000E+09
(PID.TID 0000.0001) %MON dynstat_eta_max              =   8.7557304332820E-01
(PID.TID 0000.0001) %MON dynstat_eta_min              =  -1.5999639002356E+00
(PID.TID 0000.0001) %MON dynstat_eta_mean             =   1.4290160822043E-14
(PID.TID 0000.0001) %MON dynstat_eta_sd               =   5.9688989871921E-01
(PID.TID 0000.0001) %MON dynstat_eta_del2             =   8.1311159097762E-04
(PID.TID 0000.0001) %MON dynstat_uvel_max             =   1.8337975067338E-01
(PID.TID 0000.0001) %MON dynstat_uvel_min             =  -2.5205377847760E-01
(PID.TID 0000.0001) %MON dynstat_uvel_mean            =  -4.5692876913174E-04
(PID.TID 0000.0001) %MON dynstat_uvel_sd              =   1.1898938011500E-02
(PID.TID 0000.0001) %MON dynstat_uvel_del2            =   5.1717894472592E-05
(PID.TID 0000.0001) %MON dynstat_vvel_max             =   1.6964950049757E-01
(PID.TID 0000.0001) %MON dynstat_vvel_min             =  -2.2305732872796E-01
(PID.TID 0000.0001) %MON dynstat_vvel_mean            =  -3.7461751406933E-04
(PID.TID 0000.0001) %MON dynstat_vvel_sd              =   1.2635777182220E-02
(PID.TID 0000.0001) %MON dynstat_vvel_del2            =   5.0483796755538E-05
(PID.TID 0000.0001) %MON dynstat_wvel_max             =   1.0736657613330E-04
(PID.TID 0000.0001) %MON dynstat_wvel_min             =  -2.0039555809973E-04
(PID.TID 0000.0001) %MON dynstat_wvel_mean            =  -3.5061180259343E-10
(PID.TID 0000.0001) %MON dynstat_wvel_sd              =   3.5882220944858E-06
(PID.TID 0000.0001) %MON dynstat_wvel_del2            =   2.6568448418831E-08
(PID.TID 0000.0001) %MON dynstat_theta_max            =   3.1318397389792E+01
(PID.TID 0000.0001) %MON dynstat_theta_min            =  -4.1145887287133E+00
(PID.TID 0000.0001) %MON dynstat_theta_mean           =   3.9127376049240E+00
(PID.TID 0000.0001) %MON dynstat_theta_sd             =   4.5836689469823E+00
(PID.TID 0000.0001) %MON dynstat_theta_del2           =   2.8163890152045E-03
(PID.TID 0000.0001) %MON dynstat_salt_max             =   4.1426412437695E+01
(PID.TID 0000.0001) %MON dynstat_salt_min             =   1.8417908172212E+01
(PID.TID 0000.0001) %MON dynstat_salt_mean            =   3.4772119714232E+01
(PID.TID 0000.0001) %MON dynstat_salt_sd              =   5.3124163999969E-01
(PID.TID 0000.0001) %MON dynstat_salt_del2            =   8.4723217736983E-04
(PID.TID 0000.0001) %MON dynstat_sst_max              =   3.1318397389792E+01
(PID.TID 0000.0001) %MON dynstat_sst_min              =  -1.9719305909202E+00
(PID.TID 0000.0001) %MON dynstat_sst_mean             =   1.8401764453248E+01
(PID.TID 0000.0001) %MON dynstat_sst_sd               =   9.8945574702586E+00
(PID.TID 0000.0001) %MON dynstat_sst_del2             =   1.7644037465044E-02
(PID.TID 0000.0001) %MON dynstat_sss_max              =   4.1426412437695E+01
(PID.TID 0000.0001) %MON dynstat_sss_min              =   1.8417908172212E+01
(PID.TID 0000.0001) %MON dynstat_sss_mean             =   3.4620296242728E+01
(PID.TID 0000.0001) %MON dynstat_sss_sd               =   1.4566408315120E+00
(PID.TID 0000.0001) %MON dynstat_sss_del2             =   8.5470108262113E-03
(PID.TID 0000.0001) %MON forcing_qnet_max             =   3.2997473834505E+02
(PID.TID 0000.0001) %MON forcing_qnet_min             =  -1.7762470177470E+02
(PID.TID 0000.0001) %MON forcing_qnet_mean            =  -1.0446093646029E+01
(PID.TID 0000.0001) %MON forcing_qnet_sd              =   6.8794382648063E+01
(PID.TID 0000.0001) %MON forcing_qnet_del2            =   4.3010653163780E-01
(PID.TID 0000.0001) %MON forcing_qsw_max              =   0.0000000000000E+00
(PID.TID 0000.0001) %MON forcing_qsw_min              =   0.0000000000000E+00
(PID.TID 0000.0001) %MON forcing_qsw_mean             =   0.0000000000000E+00
(PID.TID 0000.0001) %MON forcing_qsw_sd               =   0.0000000000000E+00
(PID.TID 0000.0001) %MON forcing_qsw_del2             =   0.0000000000000E+00
(PID.TID 0000.0001) %MON forcing_empmr_max            =   7.6494447208479E-05
(PID.TID 0000.0001) %MON forcing_empmr_min            =  -1.5362614137596E-04
(PID.TID 0000.0001) %MON forcing_empmr_mean           =   4.1932798010144E-22
(PID.TID 0000.0001) %MON forcing_empmr_sd             =   2.4051723601802E-05
(PID.TID 0000.0001) %MON forcing_empmr_del2           =   1.2276157049243E-07
(PID.TID 0000.0001) %MON forcing_fu_max               =   2.5883497648697E-01
(PID.TID 0000.0001) %MON forcing_fu_min               =  -2.8542067737226E-01
(PID.TID 0000.0001) %MON forcing_fu_mean              =  -6.8568299041743E-03
(PID.TID 0000.0001) %MON forcing_fu_sd                =   6.6828361002828E-02
(PID.TID 0000.0001) %MON forcing_fu_del2              =   2.0253895839237E-04
(PID.TID 0000.0001) %MON forcing_fv_max               =   2.5198395568503E-01
(PID.TID 0000.0001) %MON forcing_fv_min               =  -3.2202282726322E-01
(PID.TID 0000.0001) %MON forcing_fv_mean              =  -1.3135332101088E-02
(PID.TID 0000.0001) %MON forcing_fv_sd                =   7.6332013564049E-02
(PID.TID 0000.0001) %MON forcing_fv_del2              =   2.3247847706926E-04
(PID.TID 0000.0001) %MON trAdv_CFL_u_max              =   7.1842906623755E-02
(PID.TID 0000.0001) %MON trAdv_CFL_v_max              =   7.8679438919012E-02
(PID.TID 0000.0001) %MON trAdv_CFL_w_max              =   7.2170250965374E-02
(PID.TID 0000.0001) %MON advcfl_uvel_max              =   7.2082759923132E-02
(PID.TID 0000.0001) %MON advcfl_vvel_max              =   7.3947827208390E-02
(PID.TID 0000.0001) %MON advcfl_wvel_max              =   6.5336514037045E-02
(PID.TID 0000.0001) %MON advcfl_W_hf_max              =   7.2170250965374E-02
(PID.TID 0000.0001) %MON pe_b_mean                    =   4.7462753688781E-04
(PID.TID 0000.0001) %MON ke_max                       =   3.4819628651212E-02
(PID.TID 0000.0001) %MON ke_mean                      =   1.3927846338022E-04
(PID.TID 0000.0001) %MON ke_vol                       =   1.3398024453628E+18
(PID.TID 0000.0001) %MON vort_r_min                   =  -1.3346394509661E-06
(PID.TID 0000.0001) %MON vort_r_max                   =   1.1625587883037E-06
(PID.TID 0000.0001) %MON vort_a_mean                  =  -2.0493733748264E-05
(PID.TID 0000.0001) %MON vort_a_sd                    =   7.5053951087570E-05
(PID.TID 0000.0001) %MON vort_p_mean                  =  -2.4715771744811E-05
(PID.TID 0000.0001) %MON vort_p_sd                    =   1.2777054650529E-04
(PID.TID 0000.0001) %MON surfExpan_theta_mean         =   5.9844497352010E-08
(PID.TID 0000.0001) %MON surfExpan_salt_mean          =   1.5736789309360E-08
(PID.TID 0000.0001) // =======================================================
(PID.TID 0000.0001) // End MONITOR dynamic field statistics
(PID.TID 0000.0001) // =======================================================
 DRIVER_GET_EXPORT_STATE_3D:MASK : Associated & shape =          32          32          15
  Finished plug run method 
 AGCM Date: 2000/04/15  Time: 12:30:00
  Starting plug run method 
 EXTERNAL_FIELDS_LOAD,     72062 : iP,iLd,i0,i1=    2    3    2    3 ; Wght=  0.4333333333  0.5666666667
 cg2d: Sum(rhs),rhsMax =  -2.26663132707472E-12  4.23561545575896E+00
(PID.TID 0000.0001)      cg2d_init_res =   2.92742512466895E-02
(PID.TID 0000.0001)      cg2d_iters(min,last) =      -1      86
(PID.TID 0000.0001)      cg2d_last_res =   8.57802957789082E-10
(PID.TID 0000.0001) // =======================================================
(PID.TID 0000.0001) // Begin MONITOR dynamic field statistics
(PID.TID 0000.0001) // =======================================================
(PID.TID 0000.0001) %MON time_tsnumber                =                 72063
(PID.TID 0000.0001) %MON time_secondsf                =   6.2262432000000E+09
(PID.TID 0000.0001) %MON dynstat_eta_max              =   8.7586494268381E-01
(PID.TID 0000.0001) %MON dynstat_eta_min              =  -1.6001120971300E+00
(PID.TID 0000.0001) %MON dynstat_eta_mean             =   1.4427566214562E-14
(PID.TID 0000.0001) %MON dynstat_eta_sd               =   5.9705652174113E-01
(PID.TID 0000.0001) %MON dynstat_eta_del2             =   8.1336718878927E-04
(PID.TID 0000.0001) %MON dynstat_uvel_max             =   1.8418607465773E-01
(PID.TID 0000.0001) %MON dynstat_uvel_min             =  -2.5187383627855E-01
(PID.TID 0000.0001) %MON dynstat_uvel_mean            =  -4.5606262434364E-04
(PID.TID 0000.0001) %MON dynstat_uvel_sd              =   1.1891405358474E-02
(PID.TID 0000.0001) %MON dynstat_uvel_del2            =   5.1719804316380E-05
(PID.TID 0000.0001) %MON dynstat_vvel_max             =   1.6997628513685E-01
(PID.TID 0000.0001) %MON dynstat_vvel_min             =  -2.2301113051401E-01
(PID.TID 0000.0001) %MON dynstat_vvel_mean            =  -3.7409531652888E-04
(PID.TID 0000.0001) %MON dynstat_vvel_sd              =   1.2640596254373E-02
(PID.TID 0000.0001) %MON dynstat_vvel_del2            =   5.0496348322858E-05
(PID.TID 0000.0001) %MON dynstat_wvel_max             =   1.0766797074151E-04
(PID.TID 0000.0001) %MON dynstat_wvel_min             =  -2.0022210962703E-04
(PID.TID 0000.0001) %MON dynstat_wvel_mean            =  -3.6352372166187E-10
(PID.TID 0000.0001) %MON dynstat_wvel_sd              =   3.5825063270936E-06
(PID.TID 0000.0001) %MON dynstat_wvel_del2            =   2.6576442063323E-08
(PID.TID 0000.0001) %MON dynstat_theta_max            =   3.1331406841435E+01
(PID.TID 0000.0001) %MON dynstat_theta_min            =  -4.1231571449363E+00
(PID.TID 0000.0001) %MON dynstat_theta_mean           =   3.9127706280844E+00
(PID.TID 0000.0001) %MON dynstat_theta_sd             =   4.5839383533854E+00
(PID.TID 0000.0001) %MON dynstat_theta_del2           =   2.8176224765505E-03
(PID.TID 0000.0001) %MON dynstat_salt_max             =   4.1427257226635E+01
(PID.TID 0000.0001) %MON dynstat_salt_min             =   1.8418042162279E+01
(PID.TID 0000.0001) %MON dynstat_salt_mean            =   3.4772120800124E+01
(PID.TID 0000.0001) %MON dynstat_salt_sd              =   5.3123727300419E-01
(PID.TID 0000.0001) %MON dynstat_salt_del2            =   8.4752983998318E-04
(PID.TID 0000.0001) %MON dynstat_sst_max              =   3.1331406841435E+01
(PID.TID 0000.0001) %MON dynstat_sst_min              =  -1.9705471301251E+00
(PID.TID 0000.0001) %MON dynstat_sst_mean             =   1.8403545770423E+01
(PID.TID 0000.0001) %MON dynstat_sst_sd               =   9.9011929357886E+00
(PID.TID 0000.0001) %MON dynstat_sst_del2             =   1.7624258783101E-02
(PID.TID 0000.0001) %MON dynstat_sss_max              =   4.1427257226635E+01
(PID.TID 0000.0001) %MON dynstat_sss_min              =   1.8418042162279E+01
(PID.TID 0000.0001) %MON dynstat_sss_mean             =   3.4620291115415E+01
(PID.TID 0000.0001) %MON dynstat_sss_sd               =   1.4565008735556E+00
(PID.TID 0000.0001) %MON dynstat_sss_del2             =   8.5472921464775E-03
(PID.TID 0000.0001) %MON forcing_qnet_max             =   3.2974893584169E+02
(PID.TID 0000.0001) %MON forcing_qnet_min             =  -1.7813279636478E+02
(PID.TID 0000.0001) %MON forcing_qnet_mean            =  -1.0242775500034E+01
(PID.TID 0000.0001) %MON forcing_qnet_sd              =   6.7915458558614E+01
(PID.TID 0000.0001) %MON forcing_qnet_del2            =   4.3124482926732E-01
(PID.TID 0000.0001) %MON forcing_qsw_max              =   0.0000000000000E+00
(PID.TID 0000.0001) %MON forcing_qsw_min              =   0.0000000000000E+00
(PID.TID 0000.0001) %MON forcing_qsw_mean             =   0.0000000000000E+00
(PID.TID 0000.0001) %MON forcing_qsw_sd               =   0.0000000000000E+00
(PID.TID 0000.0001) %MON forcing_qsw_del2             =   0.0000000000000E+00
(PID.TID 0000.0001) %MON forcing_empmr_max            =   7.6494447208479E-05
(PID.TID 0000.0001) %MON forcing_empmr_min            =  -1.5362614137596E-04
(PID.TID 0000.0001) %MON forcing_empmr_mean           =   4.1932798010144E-22
(PID.TID 0000.0001) %MON forcing_empmr_sd             =   2.4051723601802E-05
(PID.TID 0000.0001) %MON forcing_empmr_del2           =   1.2276157049243E-07
(PID.TID 0000.0001) %MON forcing_fu_max               =   2.5874906012734E-01
(PID.TID 0000.0001) %MON forcing_fu_min               =  -2.8975860604630E-01
(PID.TID 0000.0001) %MON forcing_fu_mean              =  -6.9816594381856E-03
(PID.TID 0000.0001) %MON forcing_fu_sd                =   6.7025059241642E-02
(PID.TID 0000.0001) %MON forcing_fu_del2              =   2.0281118062447E-04
(PID.TID 0000.0001) %MON forcing_fv_max               =   2.4994080089797E-01
(PID.TID 0000.0001) %MON forcing_fv_min               =  -3.2316116061954E-01
(PID.TID 0000.0001) %MON forcing_fv_mean              =  -1.3100685050988E-02
(PID.TID 0000.0001) %MON forcing_fv_sd                =   7.6510602762223E-02
(PID.TID 0000.0001) %MON forcing_fv_del2              =   2.3292030119898E-04
(PID.TID 0000.0001) %MON trAdv_CFL_u_max              =   7.1791617466291E-02
(PID.TID 0000.0001) %MON trAdv_CFL_v_max              =   7.8830987171766E-02
(PID.TID 0000.0001) %MON trAdv_CFL_w_max              =   7.2107814151498E-02
(PID.TID 0000.0001) %MON advcfl_uvel_max              =   7.2031299752953E-02
(PID.TID 0000.0001) %MON advcfl_vvel_max              =   7.4090268028839E-02
(PID.TID 0000.0001) %MON advcfl_wvel_max              =   6.5279963289719E-02
(PID.TID 0000.0001) %MON advcfl_W_hf_max              =   7.2107814151498E-02
(PID.TID 0000.0001) %MON pe_b_mean                    =   4.7489256034646E-04
(PID.TID 0000.0001) %MON ke_max                       =   3.4786569653509E-02
(PID.TID 0000.0001) %MON ke_mean                      =   1.3925210350324E-04
(PID.TID 0000.0001) %MON ke_vol                       =   1.3398024453628E+18
(PID.TID 0000.0001) %MON vort_r_min                   =  -1.3342740755337E-06
(PID.TID 0000.0001) %MON vort_r_max                   =   1.1659453920105E-06
(PID.TID 0000.0001) %MON vort_a_mean                  =  -2.0493733748264E-05
(PID.TID 0000.0001) %MON vort_a_sd                    =   7.5053951388519E-05
(PID.TID 0000.0001) %MON vort_p_mean                  =  -2.4715771678025E-05
(PID.TID 0000.0001) %MON vort_p_sd                    =   1.2777055157643E-04
(PID.TID 0000.0001) %MON surfExpan_theta_mean         =   5.9812960034114E-08
(PID.TID 0000.0001) %MON surfExpan_salt_mean          =   1.5680906525410E-08
(PID.TID 0000.0001) // =======================================================
(PID.TID 0000.0001) // End MONITOR dynamic field statistics
(PID.TID 0000.0001) // =======================================================
 DRIVER_GET_EXPORT_STATE_3D:MASK : Associated & shape =          32          32          15
  Finished plug run method 
 AGCM Date: 2000/04/15  Time: 12:45:00
  Starting plug run method 
 EXTERNAL_FIELDS_LOAD,     72063 : iP,iLd,i0,i1=    2    3    2    3 ; Wght=  0.4000000000  0.6000000000
 cg2d: Sum(rhs),rhsMax =  -2.28794760914752E-12  4.23361218547542E+00
(PID.TID 0000.0001)      cg2d_init_res =   2.92598997811057E-02
(PID.TID 0000.0001)      cg2d_iters(min,last) =      -1      86
(PID.TID 0000.0001)      cg2d_last_res =   9.12022005027763E-10
(PID.TID 0000.0001) // =======================================================
(PID.TID 0000.0001) // Begin MONITOR dynamic field statistics
(PID.TID 0000.0001) // =======================================================
(PID.TID 0000.0001) %MON time_tsnumber                =                 72064
(PID.TID 0000.0001) %MON time_secondsf                =   6.2263296000000E+09
(PID.TID 0000.0001) %MON dynstat_eta_max              =   8.7618594625180E-01
(PID.TID 0000.0001) %MON dynstat_eta_min              =  -1.6002543835737E+00
(PID.TID 0000.0001) %MON dynstat_eta_mean             =   1.4537490528578E-14
(PID.TID 0000.0001) %MON dynstat_eta_sd               =   5.9723494435869E-01
(PID.TID 0000.0001) %MON dynstat_eta_del2             =   8.1361487963444E-04
(PID.TID 0000.0001) %MON dynstat_uvel_max             =   1.8498053145054E-01
(PID.TID 0000.0001) %MON dynstat_uvel_min             =  -2.5169112192344E-01
(PID.TID 0000.0001) %MON dynstat_uvel_mean            =  -4.5520683970786E-04
(PID.TID 0000.0001) %MON dynstat_uvel_sd              =   1.1884301485846E-02
(PID.TID 0000.0001) %MON dynstat_uvel_del2            =   5.1721850920069E-05
(PID.TID 0000.0001) %MON dynstat_vvel_max             =   1.7029801048274E-01
(PID.TID 0000.0001) %MON dynstat_vvel_min             =  -2.2295888731243E-01
(PID.TID 0000.0001) %MON dynstat_vvel_mean            =  -3.7354227611034E-04
(PID.TID 0000.0001) %MON dynstat_vvel_sd              =   1.2645283001136E-02
(PID.TID 0000.0001) %MON dynstat_vvel_del2            =   5.0508513259427E-05
(PID.TID 0000.0001) %MON dynstat_wvel_max             =   1.0794237298769E-04
(PID.TID 0000.0001) %MON dynstat_wvel_min             =  -2.0002349149882E-04
(PID.TID 0000.0001) %MON dynstat_wvel_mean            =  -3.7109200064081E-10
(PID.TID 0000.0001) %MON dynstat_wvel_sd              =   3.5768439883381E-06
(PID.TID 0000.0001) %MON dynstat_wvel_del2            =   2.6584681633519E-08
(PID.TID 0000.0001) %MON dynstat_theta_max            =   3.1343771708373E+01
(PID.TID 0000.0001) %MON dynstat_theta_min            =  -4.1310182116639E+00
(PID.TID 0000.0001) %MON dynstat_theta_mean           =   3.9128022125480E+00
(PID.TID 0000.0001) %MON dynstat_theta_sd             =   4.5842057047522E+00
(PID.TID 0000.0001) %MON dynstat_theta_del2           =   2.8186061928637E-03
(PID.TID 0000.0001) %MON dynstat_salt_max             =   4.1428109098283E+01
(PID.TID 0000.0001) %MON dynstat_salt_min             =   1.8418160211290E+01
(PID.TID 0000.0001) %MON dynstat_salt_mean            =   3.4772121887065E+01
(PID.TID 0000.0001) %MON dynstat_salt_sd              =   5.3123289979970E-01
(PID.TID 0000.0001) %MON dynstat_salt_del2            =   8.4779300999414E-04
(PID.TID 0000.0001) %MON dynstat_sst_max              =   3.1343771708373E+01
(PID.TID 0000.0001) %MON dynstat_sst_min              =  -1.9691259981898E+00
(PID.TID 0000.0001) %MON dynstat_sst_mean             =   1.8405118558169E+01
(PID.TID 0000.0001) %MON dynstat_sst_sd               =   9.9079367511702E+00
(PID.TID 0000.0001) %MON dynstat_sst_del2             =   1.7603107305430E-02
(PID.TID 0000.0001) %MON dynstat_sss_max              =   4.1428109098283E+01
(PID.TID 0000.0001) %MON dynstat_sss_min              =   1.8418160211290E+01
(PID.TID 0000.0001) %MON dynstat_sss_mean             =   3.4620286779140E+01
(PID.TID 0000.0001) %MON dynstat_sss_sd               =   1.4563520617435E+00
(PID.TID 0000.0001) %MON dynstat_sss_del2             =   8.5472019434374E-03
(PID.TID 0000.0001) %MON forcing_qnet_max             =   3.2952313333832E+02
(PID.TID 0000.0001) %MON forcing_qnet_min             =  -1.7864089095486E+02
(PID.TID 0000.0001) %MON forcing_qnet_mean            =  -1.0039457354039E+01
(PID.TID 0000.0001) %MON forcing_qnet_sd              =   6.7073326163230E+01
(PID.TID 0000.0001) %MON forcing_qnet_del2            =   4.3248857910877E-01
(PID.TID 0000.0001) %MON forcing_qsw_max              =   0.0000000000000E+00
(PID.TID 0000.0001) %MON forcing_qsw_min              =   0.0000000000000E+00
(PID.TID 0000.0001) %MON forcing_qsw_mean             =   0.0000000000000E+00
(PID.TID 0000.0001) %MON forcing_qsw_sd               =   0.0000000000000E+00
(PID.TID 0000.0001) %MON forcing_qsw_del2             =   0.0000000000000E+00
(PID.TID 0000.0001) %MON forcing_empmr_max            =   7.6494447208479E-05
(PID.TID 0000.0001) %MON forcing_empmr_min            =  -1.5362614137596E-04
(PID.TID 0000.0001) %MON forcing_empmr_mean           =   4.1932798010144E-22
(PID.TID 0000.0001) %MON forcing_empmr_sd             =   2.4051723601802E-05
(PID.TID 0000.0001) %MON forcing_empmr_del2           =   1.2276157049243E-07
(PID.TID 0000.0001) %MON forcing_fu_max               =   2.5866314376771E-01
(PID.TID 0000.0001) %MON forcing_fu_min               =  -2.9409653472035E-01
(PID.TID 0000.0001) %MON forcing_fu_mean              =  -7.1064889721968E-03
(PID.TID 0000.0001) %MON forcing_fu_sd                =   6.7236434770029E-02
(PID.TID 0000.0001) %MON forcing_fu_del2              =   2.0336203441107E-04
(PID.TID 0000.0001) %MON forcing_fv_max               =   2.4789764611091E-01
(PID.TID 0000.0001) %MON forcing_fv_min               =  -3.2429949397585E-01
(PID.TID 0000.0001) %MON forcing_fv_mean              =  -1.3066038000888E-02
(PID.TID 0000.0001) %MON forcing_fv_sd                =   7.6709250193998E-02
(PID.TID 0000.0001) %MON forcing_fv_del2              =   2.3366761204819E-04
(PID.TID 0000.0001) %MON trAdv_CFL_u_max              =   7.1739538167975E-02
(PID.TID 0000.0001) %MON trAdv_CFL_v_max              =   7.8980190972826E-02
(PID.TID 0000.0001) %MON trAdv_CFL_w_max              =   7.2036315501761E-02
(PID.TID 0000.0001) %MON advcfl_uvel_max              =   7.1979046796964E-02
(PID.TID 0000.0001) %MON advcfl_vvel_max              =   7.4230503574577E-02
(PID.TID 0000.0001) %MON advcfl_wvel_max              =   6.5215206284898E-02
(PID.TID 0000.0001) %MON advcfl_W_hf_max              =   7.2036315501761E-02
(PID.TID 0000.0001) %MON pe_b_mean                    =   4.7517643375227E-04
(PID.TID 0000.0001) %MON ke_max                       =   3.4753157005847E-02
(PID.TID 0000.0001) %MON ke_mean                      =   1.3922894122667E-04
(PID.TID 0000.0001) %MON ke_vol                       =   1.3398024453628E+18
(PID.TID 0000.0001) %MON vort_r_min                   =  -1.3338563747559E-06
(PID.TID 0000.0001) %MON vort_r_max                   =   1.1697274515109E-06
(PID.TID 0000.0001) %MON vort_a_mean                  =  -2.0493733748264E-05
(PID.TID 0000.0001) %MON vort_a_sd                    =   7.5053951685573E-05
(PID.TID 0000.0001) %MON vort_p_mean                  =  -2.4715771607737E-05
(PID.TID 0000.0001) %MON vort_p_sd                    =   1.2777055742558E-04
(PID.TID 0000.0001) %MON surfExpan_theta_mean         =   5.9768460198908E-08
(PID.TID 0000.0001) %MON surfExpan_salt_mean          =   1.5620687576298E-08
(PID.TID 0000.0001) // =======================================================
(PID.TID 0000.0001) // End MONITOR dynamic field statistics
(PID.TID 0000.0001) // =======================================================
 DRIVER_GET_EXPORT_STATE_3D:MASK : Associated & shape =          32          32          15
  Finished plug run method 
 AGCM Date: 2000/04/15  Time: 13:00:00
 
 Writing:     40 Slices (  1 Nodes,  1 PartitionRoot) to File:  TEST.mit_ocn.20000415_1300z.nc4
 
  Starting plug run method 
 EXTERNAL_FIELDS_LOAD,     72064 : iP,iLd,i0,i1=    2    3    2    3 ; Wght=  0.3666666667  0.6333333333
 cg2d: Sum(rhs),rhsMax =  -2.17426077142591E-12  4.23127088071094E+00
(PID.TID 0000.0001)      cg2d_init_res =   2.92855898460014E-02
(PID.TID 0000.0001)      cg2d_iters(min,last) =      -1      86
(PID.TID 0000.0001)      cg2d_last_res =   9.49765320398131E-10
(PID.TID 0000.0001) // =======================================================
(PID.TID 0000.0001) // Begin MONITOR dynamic field statistics
(PID.TID 0000.0001) // =======================================================
(PID.TID 0000.0001) %MON time_tsnumber                =                 72065
(PID.TID 0000.0001) %MON time_secondsf                =   6.2264160000000E+09
(PID.TID 0000.0001) %MON dynstat_eta_max              =   8.7653710324436E-01
(PID.TID 0000.0001) %MON dynstat_eta_min              =  -1.6003928630103E+00
(PID.TID 0000.0001) %MON dynstat_eta_mean             =   1.4510009450074E-14
(PID.TID 0000.0001) %MON dynstat_eta_sd               =   5.9742385772472E-01
(PID.TID 0000.0001) %MON dynstat_eta_del2             =   8.1384765957063E-04
(PID.TID 0000.0001) %MON dynstat_uvel_max             =   1.8575787485330E-01
(PID.TID 0000.0001) %MON dynstat_uvel_min             =  -2.5150562155818E-01
(PID.TID 0000.0001) %MON dynstat_uvel_mean            =  -4.5437074394508E-04
(PID.TID 0000.0001) %MON dynstat_uvel_sd              =   1.1877712255006E-02
(PID.TID 0000.0001) %MON dynstat_uvel_del2            =   5.1724223689856E-05
(PID.TID 0000.0001) %MON dynstat_vvel_max             =   1.7061223152078E-01
(PID.TID 0000.0001) %MON dynstat_vvel_min             =  -2.2296538131030E-01
(PID.TID 0000.0001) %MON dynstat_vvel_mean            =  -3.7295360628487E-04
(PID.TID 0000.0001) %MON dynstat_vvel_sd              =   1.2649796913725E-02
(PID.TID 0000.0001) %MON dynstat_vvel_del2            =   5.0520327391149E-05
(PID.TID 0000.0001) %MON dynstat_wvel_max             =   1.0818531558261E-04
(PID.TID 0000.0001) %MON dynstat_wvel_min             =  -1.9980266693456E-04
(PID.TID 0000.0001) %MON dynstat_wvel_mean            =  -3.7335199794529E-10
(PID.TID 0000.0001) %MON dynstat_wvel_sd              =   3.5712681826978E-06
(PID.TID 0000.0001) %MON dynstat_wvel_del2            =   2.6593206900583E-08
(PID.TID 0000.0001) %MON dynstat_theta_max            =   3.1355483637400E+01
(PID.TID 0000.0001) %MON dynstat_theta_min            =  -4.1381645013139E+00
(PID.TID 0000.0001) %MON dynstat_theta_mean           =   3.9128323724297E+00
(PID.TID 0000.0001) %MON dynstat_theta_sd             =   4.5844712837918E+00
(PID.TID 0000.0001) %MON dynstat_theta_del2           =   2.8198115764861E-03
(PID.TID 0000.0001) %MON dynstat_salt_max             =   4.1428967815459E+01
(PID.TID 0000.0001) %MON dynstat_salt_min             =   1.8418262681618E+01
(PID.TID 0000.0001) %MON dynstat_salt_mean            =   3.4772122974787E+01
(PID.TID 0000.0001) %MON dynstat_salt_sd              =   5.3122859274024E-01
(PID.TID 0000.0001) %MON dynstat_salt_del2            =   8.4801938815275E-04
(PID.TID 0000.0001) %MON dynstat_sst_max              =   3.1355483637400E+01
(PID.TID 0000.0001) %MON dynstat_sst_min              =  -1.9676552280884E+00
(PID.TID 0000.0001) %MON dynstat_sst_mean             =   1.8406508176856E+01
(PID.TID 0000.0001) %MON dynstat_sst_sd               =   9.9147655208113E+00
(PID.TID 0000.0001) %MON dynstat_sst_del2             =   1.7583813174798E-02
(PID.TID 0000.0001) %MON dynstat_sss_max              =   4.1428967815459E+01
(PID.TID 0000.0001) %MON dynstat_sss_min              =   1.8418262681618E+01
(PID.TID 0000.0001) %MON dynstat_sss_mean             =   3.4620286568944E+01
(PID.TID 0000.0001) %MON dynstat_sss_sd               =   1.4562044580786E+00
(PID.TID 0000.0001) %MON dynstat_sss_del2             =   8.5468426569934E-03
(PID.TID 0000.0001) %MON forcing_qnet_max             =   3.2929733083495E+02
(PID.TID 0000.0001) %MON forcing_qnet_min             =  -1.7914898554494E+02
(PID.TID 0000.0001) %MON forcing_qnet_mean            =  -9.8361392080444E+00
(PID.TID 0000.0001) %MON forcing_qnet_sd              =   6.6269388091673E+01
(PID.TID 0000.0001) %MON forcing_qnet_del2            =   4.3383687421273E-01
(PID.TID 0000.0001) %MON forcing_qsw_max              =   0.0000000000000E+00
(PID.TID 0000.0001) %MON forcing_qsw_min              =   0.0000000000000E+00
(PID.TID 0000.0001) %MON forcing_qsw_mean             =   0.0000000000000E+00
(PID.TID 0000.0001) %MON forcing_qsw_sd               =   0.0000000000000E+00
(PID.TID 0000.0001) %MON forcing_qsw_del2             =   0.0000000000000E+00
(PID.TID 0000.0001) %MON forcing_empmr_max            =   7.6494447208479E-05
(PID.TID 0000.0001) %MON forcing_empmr_min            =  -1.5362614137596E-04
(PID.TID 0000.0001) %MON forcing_empmr_mean           =   4.1932798010144E-22
(PID.TID 0000.0001) %MON forcing_empmr_sd             =   2.4051723601802E-05
(PID.TID 0000.0001) %MON forcing_empmr_del2           =   1.2276157049243E-07
(PID.TID 0000.0001) %MON forcing_fu_max               =   2.5857722740809E-01
(PID.TID 0000.0001) %MON forcing_fu_min               =  -2.9843446339439E-01
(PID.TID 0000.0001) %MON forcing_fu_mean              =  -7.2313185062080E-03
(PID.TID 0000.0001) %MON forcing_fu_sd                =   6.7462349625851E-02
(PID.TID 0000.0001) %MON forcing_fu_del2              =   2.0418926472080E-04
(PID.TID 0000.0001) %MON forcing_fv_max               =   2.4587058052972E-01
(PID.TID 0000.0001) %MON forcing_fv_min               =  -3.2543782733217E-01
(PID.TID 0000.0001) %MON forcing_fv_mean              =  -1.3031390950788E-02
(PID.TID 0000.0001) %MON forcing_fv_sd                =   7.6927800472927E-02
(PID.TID 0000.0001) %MON forcing_fv_del2              =   2.3471749174164E-04
(PID.TID 0000.0001) %MON trAdv_CFL_u_max              =   7.1686664781142E-02
(PID.TID 0000.0001) %MON trAdv_CFL_v_max              =   7.9125916376512E-02
(PID.TID 0000.0001) %MON trAdv_CFL_w_max              =   7.1956821839383E-02
(PID.TID 0000.0001) %MON advcfl_uvel_max              =   7.1925997093144E-02
(PID.TID 0000.0001) %MON advcfl_vvel_max              =   7.4367468098246E-02
(PID.TID 0000.0001) %MON advcfl_wvel_max              =   6.5143209143947E-02
(PID.TID 0000.0001) %MON advcfl_W_hf_max              =   7.1956821839383E-02
(PID.TID 0000.0001) %MON pe_b_mean                    =   4.7547709056307E-04
(PID.TID 0000.0001) %MON ke_max                       =   3.4719337974605E-02
(PID.TID 0000.0001) %MON ke_mean                      =   1.3920943018219E-04
(PID.TID 0000.0001) %MON ke_vol                       =   1.3398024453628E+18
(PID.TID 0000.0001) %MON vort_r_min                   =  -1.3333880181085E-06
(PID.TID 0000.0001) %MON vort_r_max                   =   1.1738847761915E-06
(PID.TID 0000.0001) %MON vort_a_mean                  =  -2.0493733748264E-05
(PID.TID 0000.0001) %MON vort_a_sd                    =   7.5053951976757E-05
(PID.TID 0000.0001) %MON vort_p_mean                  =  -2.4715771534914E-05
(PID.TID 0000.0001) %MON vort_p_sd                    =   1.2777056395725E-04
(PID.TID 0000.0001) %MON surfExpan_theta_mean         =   5.9724985192460E-08
(PID.TID 0000.0001) %MON surfExpan_salt_mean          =   1.5562997261607E-08
(PID.TID 0000.0001) // =======================================================
(PID.TID 0000.0001) // End MONITOR dynamic field statistics
(PID.TID 0000.0001) // =======================================================
 DRIVER_GET_EXPORT_STATE_3D:MASK : Associated & shape =          32          32          15
  Finished plug run method 
 AGCM Date: 2000/04/15  Time: 13:15:00
  Starting plug run method 
 EXTERNAL_FIELDS_LOAD,     72065 : iP,iLd,i0,i1=    2    3    2    3 ; Wght=  0.3333333333  0.6666666667
 cg2d: Sum(rhs),rhsMax =  -2.31636931857793E-12  4.22862338092626E+00
(PID.TID 0000.0001)      cg2d_init_res =   2.92968121504033E-02
(PID.TID 0000.0001)      cg2d_iters(min,last) =      -1      86
(PID.TID 0000.0001)      cg2d_last_res =   9.78410579304764E-10
(PID.TID 0000.0001) // =======================================================
(PID.TID 0000.0001) // Begin MONITOR dynamic field statistics
(PID.TID 0000.0001) // =======================================================
(PID.TID 0000.0001) %MON time_tsnumber                =                 72066
(PID.TID 0000.0001) %MON time_secondsf                =   6.2265024000000E+09
(PID.TID 0000.0001) %MON dynstat_eta_max              =   8.7692035531761E-01
(PID.TID 0000.0001) %MON dynstat_eta_min              =  -1.6005303943908E+00
(PID.TID 0000.0001) %MON dynstat_eta_mean             =   1.4015350037003E-14
(PID.TID 0000.0001) %MON dynstat_eta_sd               =   5.9762187353219E-01
(PID.TID 0000.0001) %MON dynstat_eta_del2             =   8.1407231394406E-04
(PID.TID 0000.0001) %MON dynstat_uvel_max             =   1.8651324264063E-01
(PID.TID 0000.0001) %MON dynstat_uvel_min             =  -2.5131731748987E-01
(PID.TID 0000.0001) %MON dynstat_uvel_mean            =  -4.5356175668278E-04
(PID.TID 0000.0001) %MON dynstat_uvel_sd              =   1.1871709661325E-02
(PID.TID 0000.0001) %MON dynstat_uvel_del2            =   5.1727031421343E-05
(PID.TID 0000.0001) %MON dynstat_vvel_max             =   1.7091661459338E-01
(PID.TID 0000.0001) %MON dynstat_vvel_min             =  -2.2297170342101E-01
(PID.TID 0000.0001) %MON dynstat_vvel_mean            =  -3.7232436483266E-04
(PID.TID 0000.0001) %MON dynstat_vvel_sd              =   1.2654105330651E-02
(PID.TID 0000.0001) %MON dynstat_vvel_del2            =   5.0531777238852E-05
(PID.TID 0000.0001) %MON dynstat_wvel_max             =   1.0839297774151E-04
(PID.TID 0000.0001) %MON dynstat_wvel_min             =  -1.9956285939209E-04
(PID.TID 0000.0001) %MON dynstat_wvel_mean            =  -3.7111242289601E-10
(PID.TID 0000.0001) %MON dynstat_wvel_sd              =   3.5658023270601E-06
(PID.TID 0000.0001) %MON dynstat_wvel_del2            =   2.6601823335718E-08
(PID.TID 0000.0001) %MON dynstat_theta_max            =   3.1366534091721E+01
(PID.TID 0000.0001) %MON dynstat_theta_min            =  -4.1445879249850E+00
(PID.TID 0000.0001) %MON dynstat_theta_mean           =   3.9128611487616E+00
(PID.TID 0000.0001) %MON dynstat_theta_sd             =   4.5847350882257E+00
(PID.TID 0000.0001) %MON dynstat_theta_del2           =   2.8208774207768E-03
(PID.TID 0000.0001) %MON dynstat_salt_max             =   4.1429833201093E+01
(PID.TID 0000.0001) %MON dynstat_salt_min             =   1.8418349903592E+01
(PID.TID 0000.0001) %MON dynstat_salt_mean            =   3.4772124063056E+01
(PID.TID 0000.0001) %MON dynstat_salt_sd              =   5.3122430101693E-01
(PID.TID 0000.0001) %MON dynstat_salt_del2            =   8.4820455433224E-04
(PID.TID 0000.0001) %MON dynstat_sst_max              =   3.1366534091721E+01
(PID.TID 0000.0001) %MON dynstat_sst_min              =  -1.9661234164382E+00
(PID.TID 0000.0001) %MON dynstat_sst_mean             =   1.8407693192721E+01
(PID.TID 0000.0001) %MON dynstat_sst_sd               =   9.9217189818886E+00
(PID.TID 0000.0001) %MON dynstat_sst_del2             =   1.7562522580710E-02
(PID.TID 0000.0001) %MON dynstat_sss_max              =   4.1429833201093E+01
(PID.TID 0000.0001) %MON dynstat_sss_min              =   1.8418349903592E+01
(PID.TID 0000.0001) %MON dynstat_sss_mean             =   3.4620287811511E+01
(PID.TID 0000.0001) %MON dynstat_sss_sd               =   1.4560516851397E+00
(PID.TID 0000.0001) %MON dynstat_sss_del2             =   8.5461880721508E-03
(PID.TID 0000.0001) %MON forcing_qnet_max             =   3.2907152833159E+02
(PID.TID 0000.0001) %MON forcing_qnet_min             =  -1.7965708013502E+02
(PID.TID 0000.0001) %MON forcing_qnet_mean            =  -9.6328210620495E+00
(PID.TID 0000.0001) %MON forcing_qnet_sd              =   6.5505050626375E+01
(PID.TID 0000.0001) %MON forcing_qnet_del2            =   4.3528874310191E-01
(PID.TID 0000.0001) %MON forcing_qsw_max              =   0.0000000000000E+00
(PID.TID 0000.0001) %MON forcing_qsw_min              =   0.0000000000000E+00
(PID.TID 0000.0001) %MON forcing_qsw_mean             =   0.0000000000000E+00
(PID.TID 0000.0001) %MON forcing_qsw_sd               =   0.0000000000000E+00
(PID.TID 0000.0001) %MON forcing_qsw_del2             =   0.0000000000000E+00
(PID.TID 0000.0001) %MON forcing_empmr_max            =   7.6494447208479E-05
(PID.TID 0000.0001) %MON forcing_empmr_min            =  -1.5362614137596E-04
(PID.TID 0000.0001) %MON forcing_empmr_mean           =   4.1932798010144E-22
(PID.TID 0000.0001) %MON forcing_empmr_sd             =   2.4051723601802E-05
(PID.TID 0000.0001) %MON forcing_empmr_del2           =   1.2276157049243E-07
(PID.TID 0000.0001) %MON forcing_fu_max               =   2.5849131104846E-01
(PID.TID 0000.0001) %MON forcing_fu_min               =  -3.0277239206844E-01
(PID.TID 0000.0001) %MON forcing_fu_mean              =  -7.3561480402193E-03
(PID.TID 0000.0001) %MON forcing_fu_sd                =   6.7702658261800E-02
(PID.TID 0000.0001) %MON forcing_fu_del2              =   2.0528953053803E-04
(PID.TID 0000.0001) %MON forcing_fv_max               =   2.4705217940950E-01
(PID.TID 0000.0001) %MON forcing_fv_min               =  -3.2657616068849E-01
(PID.TID 0000.0001) %MON forcing_fv_mean              =  -1.2996743900688E-02
(PID.TID 0000.0001) %MON forcing_fv_sd                =   7.7166084492280E-02
(PID.TID 0000.0001) %MON forcing_fv_del2              =   2.3606590337905E-04
(PID.TID 0000.0001) %MON trAdv_CFL_u_max              =   7.1632992264455E-02
(PID.TID 0000.0001) %MON trAdv_CFL_v_max              =   7.9267081082049E-02
(PID.TID 0000.0001) %MON trAdv_CFL_w_max              =   7.1870493620968E-02
(PID.TID 0000.0001) %MON advcfl_uvel_max              =   7.2127680691203E-02
(PID.TID 0000.0001) %MON advcfl_vvel_max              =   7.4500144391380E-02
(PID.TID 0000.0001) %MON advcfl_wvel_max              =   6.5065022835759E-02
(PID.TID 0000.0001) %MON advcfl_W_hf_max              =   7.1870493620968E-02
(PID.TID 0000.0001) %MON pe_b_mean                    =   4.7579233603615E-04
(PID.TID 0000.0001) %MON ke_max                       =   3.4685057588562E-02
(PID.TID 0000.0001) %MON ke_mean                      =   1.3919396201426E-04
(PID.TID 0000.0001) %MON ke_vol                       =   1.3398024453628E+18
(PID.TID 0000.0001) %MON vort_r_min                   =  -1.3328705104865E-06
(PID.TID 0000.0001) %MON vort_r_max                   =   1.1783949909369E-06
(PID.TID 0000.0001) %MON vort_a_mean                  =  -2.0493733748264E-05
(PID.TID 0000.0001) %MON vort_a_sd                    =   7.5053952260533E-05
(PID.TID 0000.0001) %MON vort_p_mean                  =  -2.4715771460549E-05
(PID.TID 0000.0001) %MON vort_p_sd                    =   1.2777057106921E-04
(PID.TID 0000.0001) %MON surfExpan_theta_mean         =   5.9681074427480E-08
(PID.TID 0000.0001) %MON surfExpan_salt_mean          =   1.5511879157618E-08
(PID.TID 0000.0001) // =======================================================
(PID.TID 0000.0001) // End MONITOR dynamic field statistics
(PID.TID 0000.0001) // =======================================================
 DRIVER_GET_EXPORT_STATE_3D:MASK : Associated & shape =          32          32          15
  Finished plug run method 
 AGCM Date: 2000/04/15  Time: 13:30:00
  Starting plug run method 
 EXTERNAL_FIELDS_LOAD,     72066 : iP,iLd,i0,i1=    2    3    2    3 ; Wght=  0.3000000000  0.7000000000
 cg2d: Sum(rhs),rhsMax =  -2.30926389122033E-12  4.22570422472920E+00
(PID.TID 0000.0001)      cg2d_init_res =   2.93319699201086E-02
(PID.TID 0000.0001)      cg2d_iters(min,last) =      -1      86
(PID.TID 0000.0001)      cg2d_last_res =   9.95210412625890E-10
(PID.TID 0000.0001) // =======================================================
(PID.TID 0000.0001) // Begin MONITOR dynamic field statistics
(PID.TID 0000.0001) // =======================================================
(PID.TID 0000.0001) %MON time_tsnumber                =                 72067
(PID.TID 0000.0001) %MON time_secondsf                =   6.2265888000000E+09
(PID.TID 0000.0001) %MON dynstat_eta_max              =   8.7733663651863E-01
(PID.TID 0000.0001) %MON dynstat_eta_min              =  -1.6006703653785E+00
(PID.TID 0000.0001) %MON dynstat_eta_mean             =   1.4400085136058E-14
(PID.TID 0000.0001) %MON dynstat_eta_sd               =   5.9782747384712E-01
(PID.TID 0000.0001) %MON dynstat_eta_del2             =   8.1429158065380E-04
(PID.TID 0000.0001) %MON dynstat_uvel_max             =   1.8724219917293E-01
(PID.TID 0000.0001) %MON dynstat_uvel_min             =  -2.5112618632751E-01
(PID.TID 0000.0001) %MON dynstat_uvel_mean            =  -4.5278510195957E-04
(PID.TID 0000.0001) %MON dynstat_uvel_sd              =   1.1866350501732E-02
(PID.TID 0000.0001) %MON dynstat_uvel_del2            =   5.1730451898269E-05
(PID.TID 0000.0001) %MON dynstat_vvel_max             =   1.7120894312989E-01
(PID.TID 0000.0001) %MON dynstat_vvel_min             =  -2.2297109243341E-01
(PID.TID 0000.0001) %MON dynstat_vvel_mean            =  -3.7165028480104E-04
(PID.TID 0000.0001) %MON dynstat_vvel_sd              =   1.2658183983808E-02
(PID.TID 0000.0001) %MON dynstat_vvel_del2            =   5.0542849756292E-05
(PID.TID 0000.0001) %MON dynstat_wvel_max             =   1.0856241634658E-04
(PID.TID 0000.0001) %MON dynstat_wvel_min             =  -1.9930743345005E-04
(PID.TID 0000.0001) %MON dynstat_wvel_mean            =  -3.6482991644105E-10
(PID.TID 0000.0001) %MON dynstat_wvel_sd              =   3.5604702974074E-06
(PID.TID 0000.0001) %MON dynstat_wvel_del2            =   2.6610504429468E-08
(PID.TID 0000.0001) %MON dynstat_theta_max            =   3.1376914381942E+01
(PID.TID 0000.0001) %MON dynstat_theta_min            =  -4.1502845575538E+00
(PID.TID 0000.0001) %MON dynstat_theta_mean           =   3.9128885878960E+00
(PID.TID 0000.0001) %MON dynstat_theta_sd             =   4.5849972155695E+00
(PID.TID 0000.0001) %MON dynstat_theta_del2           =   2.8219516060407E-03
(PID.TID 0000.0001) %MON dynstat_salt_max             =   4.1430705138781E+01
(PID.TID 0000.0001) %MON dynstat_salt_min             =   1.8418422205567E+01
(PID.TID 0000.0001) %MON dynstat_salt_mean            =   3.4772125151714E+01
(PID.TID 0000.0001) %MON dynstat_salt_sd              =   5.3122001058143E-01
(PID.TID 0000.0001) %MON dynstat_salt_del2            =   8.4836708265879E-04
(PID.TID 0000.0001) %MON dynstat_sst_max              =   3.1376914381942E+01
(PID.TID 0000.0001) %MON dynstat_sst_min              =  -1.9672218654561E+00
(PID.TID 0000.0001) %MON dynstat_sst_mean             =   1.8408701315456E+01
(PID.TID 0000.0001) %MON dynstat_sst_sd               =   9.9287604110159E+00
(PID.TID 0000.0001) %MON dynstat_sst_del2             =   1.7543172021898E-02
(PID.TID 0000.0001) %MON dynstat_sss_max              =   4.1430705138781E+01
(PID.TID 0000.0001) %MON dynstat_sss_min              =   1.8418422205567E+01
(PID.TID 0000.0001) %MON dynstat_sss_mean             =   3.4620293930468E+01
(PID.TID 0000.0001) %MON dynstat_sss_sd               =   1.4559032597776E+00
(PID.TID 0000.0001) %MON dynstat_sss_del2             =   8.5453521136339E-03
(PID.TID 0000.0001) %MON forcing_qnet_max             =   3.2884572582822E+02
(PID.TID 0000.0001) %MON forcing_qnet_min             =  -1.8016517472510E+02
(PID.TID 0000.0001) %MON forcing_qnet_mean            =  -9.4295029160547E+00
(PID.TID 0000.0001) %MON forcing_qnet_sd              =   6.4781715484823E+01
(PID.TID 0000.0001) %MON forcing_qnet_del2            =   4.3684315308041E-01
(PID.TID 0000.0001) %MON forcing_qsw_max              =   0.0000000000000E+00
(PID.TID 0000.0001) %MON forcing_qsw_min              =   0.0000000000000E+00
(PID.TID 0000.0001) %MON forcing_qsw_mean             =   0.0000000000000E+00
(PID.TID 0000.0001) %MON forcing_qsw_sd               =   0.0000000000000E+00
(PID.TID 0000.0001) %MON forcing_qsw_del2             =   0.0000000000000E+00
(PID.TID 0000.0001) %MON forcing_empmr_max            =   7.6494447208479E-05
(PID.TID 0000.0001) %MON forcing_empmr_min            =  -1.5362614137596E-04
(PID.TID 0000.0001) %MON forcing_empmr_mean           =   4.1932798010144E-22
(PID.TID 0000.0001) %MON forcing_empmr_sd             =   2.4051723601802E-05
(PID.TID 0000.0001) %MON forcing_empmr_del2           =   1.2276157049243E-07
(PID.TID 0000.0001) %MON forcing_fu_max               =   2.5840539468883E-01
(PID.TID 0000.0001) %MON forcing_fu_min               =  -3.0711032074248E-01
(PID.TID 0000.0001) %MON forcing_fu_mean              =  -7.4809775742305E-03
(PID.TID 0000.0001) %MON forcing_fu_sd                =   6.7957207981235E-02
(PID.TID 0000.0001) %MON forcing_fu_del2              =   2.0665847092177E-04
(PID.TID 0000.0001) %MON forcing_fv_max               =   2.4823377828927E-01
(PID.TID 0000.0001) %MON forcing_fv_min               =  -3.2771449404481E-01
(PID.TID 0000.0001) %MON forcing_fv_mean              =  -1.2962096850588E-02
(PID.TID 0000.0001) %MON forcing_fv_sd                =   7.7423920051411E-02
(PID.TID 0000.0001) %MON forcing_fv_del2              =   2.3770776669336E-04
(PID.TID 0000.0001) %MON trAdv_CFL_u_max              =   7.1578513952995E-02
(PID.TID 0000.0001) %MON trAdv_CFL_v_max              =   7.9402657060939E-02
(PID.TID 0000.0001) %MON trAdv_CFL_w_max              =   7.1778542058576E-02
(PID.TID 0000.0001) %MON advcfl_uvel_max              =   7.2481961988531E-02
(PID.TID 0000.0001) %MON advcfl_vvel_max              =   7.4627566282056E-02
(PID.TID 0000.0001) %MON advcfl_wvel_max              =   6.4981744339942E-02
(PID.TID 0000.0001) %MON advcfl_W_hf_max              =   7.1778542058576E-02
(PID.TID 0000.0001) %MON pe_b_mean                    =   4.7611976675961E-04
(PID.TID 0000.0001) %MON ke_max                       =   3.4650258164582E-02
(PID.TID 0000.0001) %MON ke_mean                      =   1.3918285941879E-04
(PID.TID 0000.0001) %MON ke_vol                       =   1.3398024453628E+18
(PID.TID 0000.0001) %MON vort_r_min                   =  -1.3323051615898E-06
(PID.TID 0000.0001) %MON vort_r_max                   =   1.1832339902177E-06
(PID.TID 0000.0001) %MON vort_a_mean                  =  -2.0493733748264E-05
(PID.TID 0000.0001) %MON vort_a_sd                    =   7.5053952535785E-05
(PID.TID 0000.0001) %MON vort_p_mean                  =  -2.4715771385653E-05
(PID.TID 0000.0001) %MON vort_p_sd                    =   1.2777057865898E-04
(PID.TID 0000.0001) %MON surfExpan_theta_mean         =   5.9642358047545E-08
(PID.TID 0000.0001) %MON surfExpan_salt_mean          =   1.5470970539415E-08
(PID.TID 0000.0001) // =======================================================
(PID.TID 0000.0001) // End MONITOR dynamic field statistics
(PID.TID 0000.0001) // =======================================================
 DRIVER_GET_EXPORT_STATE_3D:MASK : Associated & shape =          32          32          15
  Finished plug run method 
 AGCM Date: 2000/04/15  Time: 13:45:00
  Starting plug run method 
 EXTERNAL_FIELDS_LOAD,     72067 : iP,iLd,i0,i1=    2    3    2    3 ; Wght=  0.2666666667  0.7333333333
 cg2d: Sum(rhs),rhsMax =  -2.21689333557151E-12  4.22255008878328E+00
(PID.TID 0000.0001)      cg2d_init_res =   2.93964900562652E-02
(PID.TID 0000.0001)      cg2d_iters(min,last) =      -1      87
(PID.TID 0000.0001)      cg2d_last_res =   8.64875148243635E-10
(PID.TID 0000.0001) // =======================================================
(PID.TID 0000.0001) // Begin MONITOR dynamic field statistics
(PID.TID 0000.0001) // =======================================================
(PID.TID 0000.0001) %MON time_tsnumber                =                 72068
(PID.TID 0000.0001) %MON time_secondsf                =   6.2266752000000E+09
(PID.TID 0000.0001) %MON dynstat_eta_max              =   8.7778713505047E-01
(PID.TID 0000.0001) %MON dynstat_eta_min              =  -1.6008164217927E+00
(PID.TID 0000.0001) %MON dynstat_eta_mean             =   1.4345122979050E-14
(PID.TID 0000.0001) %MON dynstat_eta_sd               =   5.9803904173026E-01
(PID.TID 0000.0001) %MON dynstat_eta_del2             =   8.1450885726236E-04
(PID.TID 0000.0001) %MON dynstat_uvel_max             =   1.8794077110413E-01
(PID.TID 0000.0001) %MON dynstat_uvel_min             =  -2.5093219834890E-01
(PID.TID 0000.0001) %MON dynstat_uvel_mean            =  -4.5204384803024E-04
(PID.TID 0000.0001) %MON dynstat_uvel_sd              =   1.1861676080865E-02
(PID.TID 0000.0001) %MON dynstat_uvel_del2            =   5.1734524476776E-05
(PID.TID 0000.0001) %MON dynstat_vvel_max             =   1.7148711048557E-01
(PID.TID 0000.0001) %MON dynstat_vvel_min             =  -2.2296364603066E-01
(PID.TID 0000.0001) %MON dynstat_vvel_mean            =  -3.7092809120132E-04
(PID.TID 0000.0001) %MON dynstat_vvel_sd              =   1.2662016354515E-02
(PID.TID 0000.0001) %MON dynstat_vvel_del2            =   5.0553587185570E-05
(PID.TID 0000.0001) %MON dynstat_wvel_max             =   1.0869058039207E-04
(PID.TID 0000.0001) %MON dynstat_wvel_min             =  -1.9903971203325E-04
(PID.TID 0000.0001) %MON dynstat_wvel_mean            =  -3.5577377657340E-10
(PID.TID 0000.0001) %MON dynstat_wvel_sd              =   3.5553103369807E-06
(PID.TID 0000.0001) %MON dynstat_wvel_del2            =   2.6619295426979E-08
(PID.TID 0000.0001) %MON dynstat_theta_max            =   3.1386615700143E+01
(PID.TID 0000.0001) %MON dynstat_theta_min            =  -4.1552485436686E+00
(PID.TID 0000.0001) %MON dynstat_theta_mean           =   3.9129147699996E+00
(PID.TID 0000.0001) %MON dynstat_theta_sd             =   4.5852577150837E+00
(PID.TID 0000.0001) %MON dynstat_theta_del2           =   2.8227949426757E-03
(PID.TID 0000.0001) %MON dynstat_salt_max             =   4.1431583565376E+01
(PID.TID 0000.0001) %MON dynstat_salt_min             =   1.8418479932461E+01
(PID.TID 0000.0001) %MON dynstat_salt_mean            =   3.4772126240565E+01
(PID.TID 0000.0001) %MON dynstat_salt_sd              =   5.3121571676486E-01
(PID.TID 0000.0001) %MON dynstat_salt_del2            =   8.4846330994339E-04
(PID.TID 0000.0001) %MON dynstat_sst_max              =   3.1386615700143E+01
(PID.TID 0000.0001) %MON dynstat_sst_min              =  -1.9698191442997E+00
(PID.TID 0000.0001) %MON dynstat_sst_mean             =   1.8409531596803E+01
(PID.TID 0000.0001) %MON dynstat_sst_sd               =   9.9359102883416E+00
(PID.TID 0000.0001) %MON dynstat_sst_del2             =   1.7521036911158E-02
(PID.TID 0000.0001) %MON dynstat_sss_max              =   4.1431583565376E+01
(PID.TID 0000.0001) %MON dynstat_sss_min              =   1.8418479932461E+01
(PID.TID 0000.0001) %MON dynstat_sss_mean             =   3.4620301618228E+01
(PID.TID 0000.0001) %MON dynstat_sss_sd               =   1.4557509349396E+00
(PID.TID 0000.0001) %MON dynstat_sss_del2             =   8.5442125043039E-03
(PID.TID 0000.0001) %MON forcing_qnet_max             =   3.2861992332486E+02
(PID.TID 0000.0001) %MON forcing_qnet_min             =  -1.8067326931518E+02
(PID.TID 0000.0001) %MON forcing_qnet_mean            =  -9.2261847700598E+00
(PID.TID 0000.0001) %MON forcing_qnet_sd              =   6.4100770735012E+01
(PID.TID 0000.0001) %MON forcing_qnet_del2            =   4.3849901367353E-01
(PID.TID 0000.0001) %MON forcing_qsw_max              =   0.0000000000000E+00
(PID.TID 0000.0001) %MON forcing_qsw_min              =   0.0000000000000E+00
(PID.TID 0000.0001) %MON forcing_qsw_mean             =   0.0000000000000E+00
(PID.TID 0000.0001) %MON forcing_qsw_sd               =   0.0000000000000E+00
(PID.TID 0000.0001) %MON forcing_qsw_del2             =   0.0000000000000E+00
(PID.TID 0000.0001) %MON forcing_empmr_max            =   7.6494447208479E-05
(PID.TID 0000.0001) %MON forcing_empmr_min            =  -1.5362614137596E-04
(PID.TID 0000.0001) %MON forcing_empmr_mean           =   0.0000000000000E+00
(PID.TID 0000.0001) %MON forcing_empmr_sd             =   2.4051723601802E-05
(PID.TID 0000.0001) %MON forcing_empmr_del2           =   1.2276157049243E-07
(PID.TID 0000.0001) %MON forcing_fu_max               =   2.5831947832920E-01
(PID.TID 0000.0001) %MON forcing_fu_min               =  -3.1144824941652E-01
(PID.TID 0000.0001) %MON forcing_fu_mean              =  -7.6058071082418E-03
(PID.TID 0000.0001) %MON forcing_fu_sd                =   6.8225839384453E-02
(PID.TID 0000.0001) %MON forcing_fu_del2              =   2.0829078854529E-04
(PID.TID 0000.0001) %MON forcing_fv_max               =   2.4941537716905E-01
(PID.TID 0000.0001) %MON forcing_fv_min               =  -3.2885282740112E-01
(PID.TID 0000.0001) %MON forcing_fv_mean              =  -1.2927449800487E-02
(PID.TID 0000.0001) %MON forcing_fv_sd                =   7.7701112516972E-02
(PID.TID 0000.0001) %MON forcing_fv_del2              =   2.3963705004450E-04
(PID.TID 0000.0001) %MON trAdv_CFL_u_max              =   7.1523221377611E-02
(PID.TID 0000.0001) %MON trAdv_CFL_v_max              =   7.9531667254026E-02
(PID.TID 0000.0001) %MON trAdv_CFL_w_max              =   7.1682163319485E-02
(PID.TID 0000.0001) %MON advcfl_uvel_max              =   7.2829695330572E-02
(PID.TID 0000.0001) %MON advcfl_vvel_max              =   7.4748815513517E-02
(PID.TID 0000.0001) %MON advcfl_wvel_max              =   6.4894457055370E-02
(PID.TID 0000.0001) %MON advcfl_W_hf_max              =   7.1682163319485E-02
(PID.TID 0000.0001) %MON pe_b_mean                    =   4.7645681876801E-04
(PID.TID 0000.0001) %MON ke_max                       =   3.4614879248982E-02
(PID.TID 0000.0001) %MON ke_mean                      =   1.3917636649036E-04
(PID.TID 0000.0001) %MON ke_vol                       =   1.3398024453628E+18
(PID.TID 0000.0001) %MON vort_r_min                   =  -1.3316930541745E-06
(PID.TID 0000.0001) %MON vort_r_max                   =   1.1883754943177E-06
(PID.TID 0000.0001) %MON vort_a_mean                  =  -2.0493733748264E-05
(PID.TID 0000.0001) %MON vort_a_sd                    =   7.5053952801888E-05
(PID.TID 0000.0001) %MON vort_p_mean                  =  -2.4715771311135E-05
(PID.TID 0000.0001) %MON vort_p_sd                    =   1.2777058663294E-04
(PID.TID 0000.0001) %MON surfExpan_theta_mean         =   5.9607977492289E-08
(PID.TID 0000.0001) %MON surfExpan_salt_mean          =   1.5442873428393E-08
(PID.TID 0000.0001) // =======================================================
(PID.TID 0000.0001) // End MONITOR dynamic field statistics
(PID.TID 0000.0001) // =======================================================
 DRIVER_GET_EXPORT_STATE_3D:MASK : Associated & shape =          32          32          15
  Finished plug run method 
 AGCM Date: 2000/04/15  Time: 14:00:00
 
 Writing:     40 Slices (  1 Nodes,  1 PartitionRoot) to File:  TEST.mit_ocn.20000415_1400z.nc4
 
  Starting plug run method 
 EXTERNAL_FIELDS_LOAD,     72068 : iP,iLd,i0,i1=    2    3    2    3 ; Wght=  0.2333333333  0.7666666667
 cg2d: Sum(rhs),rhsMax =  -2.30926389122033E-12  4.21919922292975E+00
(PID.TID 0000.0001)      cg2d_init_res =   2.94547940192741E-02
(PID.TID 0000.0001)      cg2d_iters(min,last) =      -1      87
(PID.TID 0000.0001)      cg2d_last_res =   8.65716485296740E-10
(PID.TID 0000.0001) // =======================================================
(PID.TID 0000.0001) // Begin MONITOR dynamic field statistics
(PID.TID 0000.0001) // =======================================================
(PID.TID 0000.0001) %MON time_tsnumber                =                 72069
(PID.TID 0000.0001) %MON time_secondsf                =   6.2267616000000E+09
(PID.TID 0000.0001) %MON dynstat_eta_max              =   8.7827086394585E-01
(PID.TID 0000.0001) %MON dynstat_eta_min              =  -1.6009721761470E+00
(PID.TID 0000.0001) %MON dynstat_eta_mean             =   1.4015350037003E-14
(PID.TID 0000.0001) %MON dynstat_eta_sd               =   5.9825484006890E-01
(PID.TID 0000.0001) %MON dynstat_eta_del2             =   8.1471000116488E-04
(PID.TID 0000.0001) %MON dynstat_uvel_max             =   1.8860547596458E-01
(PID.TID 0000.0001) %MON dynstat_uvel_min             =  -2.5073531761730E-01
(PID.TID 0000.0001) %MON dynstat_uvel_mean            =  -4.5133780255586E-04
(PID.TID 0000.0001) %MON dynstat_uvel_sd              =   1.1857709759638E-02
(PID.TID 0000.0001) %MON dynstat_uvel_del2            =   5.1739413741117E-05
(PID.TID 0000.0001) %MON dynstat_vvel_max             =   1.7174911431535E-01
(PID.TID 0000.0001) %MON dynstat_vvel_min             =  -2.2294948044784E-01
(PID.TID 0000.0001) %MON dynstat_vvel_mean            =  -3.7015593091495E-04
(PID.TID 0000.0001) %MON dynstat_vvel_sd              =   1.2665595282990E-02
(PID.TID 0000.0001) %MON dynstat_vvel_del2            =   5.0563971319866E-05
(PID.TID 0000.0001) %MON dynstat_wvel_max             =   1.0877576430092E-04
(PID.TID 0000.0001) %MON dynstat_wvel_min             =  -1.9876308047163E-04
(PID.TID 0000.0001) %MON dynstat_wvel_mean            =  -3.4427008678080E-10
(PID.TID 0000.0001) %MON dynstat_wvel_sd              =   3.5503367100413E-06
(PID.TID 0000.0001) %MON dynstat_wvel_del2            =   2.6628201260724E-08
(PID.TID 0000.0001) %MON dynstat_theta_max            =   3.1395629157268E+01
(PID.TID 0000.0001) %MON dynstat_theta_min            =  -4.1594792896704E+00
(PID.TID 0000.0001) %MON dynstat_theta_mean           =   3.9129397177963E+00
(PID.TID 0000.0001) %MON dynstat_theta_sd             =   4.5855166484858E+00
(PID.TID 0000.0001) %MON dynstat_theta_del2           =   2.8233490397688E-03
(PID.TID 0000.0001) %MON dynstat_salt_max             =   4.1432468455882E+01
(PID.TID 0000.0001) %MON dynstat_salt_min             =   1.8418523455424E+01
(PID.TID 0000.0001) %MON dynstat_salt_mean            =   3.4772127329611E+01
(PID.TID 0000.0001) %MON dynstat_salt_sd              =   5.3121140789407E-01
(PID.TID 0000.0001) %MON dynstat_salt_del2            =   8.4850854772157E-04
(PID.TID 0000.0001) %MON dynstat_sst_max              =   3.1395629157268E+01
(PID.TID 0000.0001) %MON dynstat_sst_min              =  -1.9724213354722E+00
(PID.TID 0000.0001) %MON dynstat_sst_mean             =   1.8410185427123E+01
(PID.TID 0000.0001) %MON dynstat_sst_sd               =   9.9431807837510E+00
(PID.TID 0000.0001) %MON dynstat_sst_del2             =   1.7496908576038E-02
(PID.TID 0000.0001) %MON dynstat_sss_max              =   4.1432468455882E+01
(PID.TID 0000.0001) %MON dynstat_sss_min              =   1.8418523455424E+01
(PID.TID 0000.0001) %MON dynstat_sss_mean             =   3.4620313068846E+01
(PID.TID 0000.0001) %MON dynstat_sss_sd               =   1.4556088111354E+00
(PID.TID 0000.0001) %MON dynstat_sss_del2             =   8.5427717212348E-03
(PID.TID 0000.0001) %MON forcing_qnet_max             =   3.2839412082149E+02
(PID.TID 0000.0001) %MON forcing_qnet_min             =  -1.8118136390526E+02
(PID.TID 0000.0001) %MON forcing_qnet_mean            =  -9.0228666240650E+00
(PID.TID 0000.0001) %MON forcing_qnet_sd              =   6.3463580899302E+01
(PID.TID 0000.0001) %MON forcing_qnet_del2            =   4.4025518017339E-01
(PID.TID 0000.0001) %MON forcing_qsw_max              =   0.0000000000000E+00
(PID.TID 0000.0001) %MON forcing_qsw_min              =   0.0000000000000E+00
(PID.TID 0000.0001) %MON forcing_qsw_mean             =   0.0000000000000E+00
(PID.TID 0000.0001) %MON forcing_qsw_sd               =   0.0000000000000E+00
(PID.TID 0000.0001) %MON forcing_qsw_del2             =   0.0000000000000E+00
(PID.TID 0000.0001) %MON forcing_empmr_max            =   7.6494447208479E-05
(PID.TID 0000.0001) %MON forcing_empmr_min            =  -1.5362614137596E-04
(PID.TID 0000.0001) %MON forcing_empmr_mean           =   0.0000000000000E+00
(PID.TID 0000.0001) %MON forcing_empmr_sd             =   2.4051723601802E-05
(PID.TID 0000.0001) %MON forcing_empmr_del2           =   1.2276157049243E-07
(PID.TID 0000.0001) %MON forcing_fu_max               =   2.5823356196957E-01
(PID.TID 0000.0001) %MON forcing_fu_min               =  -3.1578617809057E-01
(PID.TID 0000.0001) %MON forcing_fu_mean              =  -7.7306366422530E-03
(PID.TID 0000.0001) %MON forcing_fu_sd                =   6.8508386822628E-02
(PID.TID 0000.0001) %MON forcing_fu_del2              =   2.1018034712076E-04
(PID.TID 0000.0001) %MON forcing_fv_max               =   2.5059697604883E-01
(PID.TID 0000.0001) %MON forcing_fv_min               =  -3.2999116075744E-01
(PID.TID 0000.0001) %MON forcing_fv_mean              =  -1.2892802750387E-02
(PID.TID 0000.0001) %MON forcing_fv_sd                =   7.7997455513710E-02
(PID.TID 0000.0001) %MON forcing_fv_del2              =   2.4184687502883E-04
(PID.TID 0000.0001) %MON trAdv_CFL_u_max              =   7.1467104297902E-02
(PID.TID 0000.0001) %MON trAdv_CFL_v_max              =   7.9653182938369E-02
(PID.TID 0000.0001) %MON trAdv_CFL_w_max              =   7.1582575983812E-02
(PID.TID 0000.0001) %MON advcfl_uvel_max              =   7.3167951558023E-02
(PID.TID 0000.0001) %MON advcfl_vvel_max              =   7.4863019291750E-02
(PID.TID 0000.0001) %MON advcfl_wvel_max              =   6.4804264727353E-02
(PID.TID 0000.0001) %MON advcfl_W_hf_max              =   7.1582575983812E-02
(PID.TID 0000.0001) %MON pe_b_mean                    =   4.7680073323995E-04
(PID.TID 0000.0001) %MON ke_max                       =   3.4578857868217E-02
(PID.TID 0000.0001) %MON ke_mean                      =   1.3917464141621E-04
(PID.TID 0000.0001) %MON ke_vol                       =   1.3398024453628E+18
(PID.TID 0000.0001) %MON vort_r_min                   =  -1.3310350126103E-06
(PID.TID 0000.0001) %MON vort_r_max                   =   1.1937921962503E-06
(PID.TID 0000.0001) %MON vort_a_mean                  =  -2.0493733748264E-05
(PID.TID 0000.0001) %MON vort_a_sd                    =   7.5053953058402E-05
(PID.TID 0000.0001) %MON vort_p_mean                  =  -2.4715771237498E-05
(PID.TID 0000.0001) %MON vort_p_sd                    =   1.2777059489616E-04
(PID.TID 0000.0001) %MON surfExpan_theta_mean         =   5.9574781751569E-08
(PID.TID 0000.0001) %MON surfExpan_salt_mean          =   1.5426922517657E-08
(PID.TID 0000.0001) // =======================================================
(PID.TID 0000.0001) // End MONITOR dynamic field statistics
(PID.TID 0000.0001) // =======================================================
 DRIVER_GET_EXPORT_STATE_3D:MASK : Associated & shape =          32          32          15
  Finished plug run method 
 AGCM Date: 2000/04/15  Time: 14:15:00
  Starting plug run method 
 EXTERNAL_FIELDS_LOAD,     72069 : iP,iLd,i0,i1=    2    3    2    3 ; Wght=  0.2000000000  0.8000000000
 cg2d: Sum(rhs),rhsMax =  -2.24531504500192E-12  4.21569087837304E+00
(PID.TID 0000.0001)      cg2d_init_res =   2.95311873297774E-02
(PID.TID 0000.0001)      cg2d_iters(min,last) =      -1      86
(PID.TID 0000.0001)      cg2d_last_res =   9.89848385818287E-10
(PID.TID 0000.0001) // =======================================================
(PID.TID 0000.0001) // Begin MONITOR dynamic field statistics
(PID.TID 0000.0001) // =======================================================
(PID.TID 0000.0001) %MON time_tsnumber                =                 72070
(PID.TID 0000.0001) %MON time_secondsf                =   6.2268480000000E+09
(PID.TID 0000.0001) %MON dynstat_eta_max              =   8.7878684280070E-01
(PID.TID 0000.0001) %MON dynstat_eta_min              =  -1.6011409132813E+00
(PID.TID 0000.0001) %MON dynstat_eta_mean             =   1.4207717586531E-14
(PID.TID 0000.0001) %MON dynstat_eta_sd               =   5.9847301532656E-01
(PID.TID 0000.0001) %MON dynstat_eta_del2             =   8.1490261863985E-04
(PID.TID 0000.0001) %MON dynstat_uvel_max             =   1.8923334334284E-01
(PID.TID 0000.0001) %MON dynstat_uvel_min             =  -2.5053550333190E-01
(PID.TID 0000.0001) %MON dynstat_uvel_mean            =  -4.5066556502024E-04
(PID.TID 0000.0001) %MON dynstat_uvel_sd              =   1.1854459247069E-02
(PID.TID 0000.0001) %MON dynstat_uvel_del2            =   5.1745149910447E-05
(PID.TID 0000.0001) %MON dynstat_vvel_max             =   1.7199304871721E-01
(PID.TID 0000.0001) %MON dynstat_vvel_min             =  -2.2292873101769E-01
(PID.TID 0000.0001) %MON dynstat_vvel_mean            =  -3.6933380378329E-04
(PID.TID 0000.0001) %MON dynstat_vvel_sd              =   1.2668920658187E-02
(PID.TID 0000.0001) %MON dynstat_vvel_del2            =   5.0574027500794E-05
(PID.TID 0000.0001) %MON dynstat_wvel_max             =   1.0881694364064E-04
(PID.TID 0000.0001) %MON dynstat_wvel_min             =  -1.9848071363313E-04
(PID.TID 0000.0001) %MON dynstat_wvel_mean            =  -3.3113504812209E-10
(PID.TID 0000.0001) %MON dynstat_wvel_sd              =   3.5455729847169E-06
(PID.TID 0000.0001) %MON dynstat_wvel_del2            =   2.6637140360907E-08
(PID.TID 0000.0001) %MON dynstat_theta_max            =   3.1403945822522E+01
(PID.TID 0000.0001) %MON dynstat_theta_min            =  -4.1629731423830E+00
(PID.TID 0000.0001) %MON dynstat_theta_mean           =   3.9129634623054E+00
(PID.TID 0000.0001) %MON dynstat_theta_sd             =   4.5857741389182E+00
(PID.TID 0000.0001) %MON dynstat_theta_del2           =   2.8236927998362E-03
(PID.TID 0000.0001) %MON dynstat_salt_max             =   4.1433359797021E+01
(PID.TID 0000.0001) %MON dynstat_salt_min             =   1.8418553177807E+01
(PID.TID 0000.0001) %MON dynstat_salt_mean            =   3.4772128418808E+01
(PID.TID 0000.0001) %MON dynstat_salt_sd              =   5.3120707944603E-01
(PID.TID 0000.0001) %MON dynstat_salt_del2            =   8.4852300388116E-04
(PID.TID 0000.0001) %MON dynstat_sst_max              =   3.1403945822522E+01
(PID.TID 0000.0001) %MON dynstat_sst_min              =  -1.9750281488556E+00
(PID.TID 0000.0001) %MON dynstat_sst_mean             =   1.8410670550179E+01
(PID.TID 0000.0001) %MON dynstat_sst_sd               =   9.9505486659746E+00
(PID.TID 0000.0001) %MON dynstat_sst_del2             =   1.7471049958344E-02
(PID.TID 0000.0001) %MON dynstat_sss_max              =   4.1433359797021E+01
(PID.TID 0000.0001) %MON dynstat_sss_min              =   1.8418553177807E+01
(PID.TID 0000.0001) %MON dynstat_sss_mean             =   3.4620327951207E+01
(PID.TID 0000.0001) %MON dynstat_sss_sd               =   1.4554691267203E+00
(PID.TID 0000.0001) %MON dynstat_sss_del2             =   8.5412379873527E-03
(PID.TID 0000.0001) %MON forcing_qnet_max             =   3.2816831831812E+02
(PID.TID 0000.0001) %MON forcing_qnet_min             =  -1.8168945849534E+02
(PID.TID 0000.0001) %MON forcing_qnet_mean            =  -8.8195484780701E+00
(PID.TID 0000.0001) %MON forcing_qnet_sd              =   6.2871476333670E+01
(PID.TID 0000.0001) %MON forcing_qnet_del2            =   4.4211045726579E-01
(PID.TID 0000.0001) %MON forcing_qsw_max              =   0.0000000000000E+00
(PID.TID 0000.0001) %MON forcing_qsw_min              =   0.0000000000000E+00
(PID.TID 0000.0001) %MON forcing_qsw_mean             =   0.0000000000000E+00
(PID.TID 0000.0001) %MON forcing_qsw_sd               =   0.0000000000000E+00
(PID.TID 0000.0001) %MON forcing_qsw_del2             =   0.0000000000000E+00
(PID.TID 0000.0001) %MON forcing_empmr_max            =   7.6494447208479E-05
(PID.TID 0000.0001) %MON forcing_empmr_min            =  -1.5362614137596E-04
(PID.TID 0000.0001) %MON forcing_empmr_mean           =   4.1932798010144E-22
(PID.TID 0000.0001) %MON forcing_empmr_sd             =   2.4051723601802E-05
(PID.TID 0000.0001) %MON forcing_empmr_del2           =   1.2276157049243E-07
(PID.TID 0000.0001) %MON forcing_fu_max               =   2.5814764560994E-01
(PID.TID 0000.0001) %MON forcing_fu_min               =  -3.2012410676461E-01
(PID.TID 0000.0001) %MON forcing_fu_mean              =  -7.8554661762643E-03
(PID.TID 0000.0001) %MON forcing_fu_sd                =   6.8804678856759E-02
(PID.TID 0000.0001) %MON forcing_fu_del2              =   2.1232027875990E-04
(PID.TID 0000.0001) %MON forcing_fv_max               =   2.5185703345859E-01
(PID.TID 0000.0001) %MON forcing_fv_min               =  -3.3112949411376E-01
(PID.TID 0000.0001) %MON forcing_fv_mean              =  -1.2858155700287E-02
(PID.TID 0000.0001) %MON forcing_fv_sd                =   7.8312731639507E-02
(PID.TID 0000.0001) %MON forcing_fv_del2              =   2.4432962973796E-04
(PID.TID 0000.0001) %MON trAdv_CFL_u_max              =   7.1410151086972E-02
(PID.TID 0000.0001) %MON trAdv_CFL_v_max              =   7.9766320082552E-02
(PID.TID 0000.0001) %MON trAdv_CFL_w_max              =   7.1480923055487E-02
(PID.TID 0000.0001) %MON advcfl_uvel_max              =   7.3494002147964E-02
(PID.TID 0000.0001) %MON advcfl_vvel_max              =   7.4969346860921E-02
(PID.TID 0000.0001) %MON advcfl_wvel_max              =   6.4712202482650E-02
(PID.TID 0000.0001) %MON advcfl_W_hf_max              =   7.1480923055487E-02
(PID.TID 0000.0001) %MON pe_b_mean                    =   4.7714856190526E-04
(PID.TID 0000.0001) %MON ke_max                       =   3.4542129257781E-02
(PID.TID 0000.0001) %MON ke_mean                      =   1.3917775602525E-04
(PID.TID 0000.0001) %MON ke_vol                       =   1.3398024453628E+18
(PID.TID 0000.0001) %MON vort_r_min                   =  -1.3303315741460E-06
(PID.TID 0000.0001) %MON vort_r_max                   =   1.1994545436039E-06
(PID.TID 0000.0001) %MON vort_a_mean                  =  -2.0493733748264E-05
(PID.TID 0000.0001) %MON vort_a_sd                    =   7.5053953305286E-05
(PID.TID 0000.0001) %MON vort_p_mean                  =  -2.4715771165316E-05
(PID.TID 0000.0001) %MON vort_p_sd                    =   1.2777060335843E-04
(PID.TID 0000.0001) %MON surfExpan_theta_mean         =   5.9536275100615E-08
(PID.TID 0000.0001) %MON surfExpan_salt_mean          =   1.5422210539559E-08
(PID.TID 0000.0001) // =======================================================
(PID.TID 0000.0001) // End MONITOR dynamic field statistics
(PID.TID 0000.0001) // =======================================================
 DRIVER_GET_EXPORT_STATE_3D:MASK : Associated & shape =          32          32          15
  Finished plug run method 
 AGCM Date: 2000/04/15  Time: 14:30:00
  Starting plug run method 
 EXTERNAL_FIELDS_LOAD,     72070 : iP,iLd,i0,i1=    2    3    2    3 ; Wght=  0.1666666667  0.8333333333
 cg2d: Sum(rhs),rhsMax =  -2.26663132707472E-12  4.21206473562251E+00
(PID.TID 0000.0001)      cg2d_init_res =   2.96038346112465E-02
(PID.TID 0000.0001)      cg2d_iters(min,last) =      -1      86
(PID.TID 0000.0001)      cg2d_last_res =   9.62893228077589E-10
(PID.TID 0000.0001) // =======================================================
(PID.TID 0000.0001) // Begin MONITOR dynamic field statistics
(PID.TID 0000.0001) // =======================================================
(PID.TID 0000.0001) %MON time_tsnumber                =                 72071
(PID.TID 0000.0001) %MON time_secondsf                =   6.2269344000000E+09
(PID.TID 0000.0001) %MON dynstat_eta_max              =   8.7933224670395E-01
(PID.TID 0000.0001) %MON dynstat_eta_min              =  -1.6013253834739E+00
(PID.TID 0000.0001) %MON dynstat_eta_mean             =   1.4235198665035E-14
(PID.TID 0000.0001) %MON dynstat_eta_sd               =   5.9869161033603E-01
(PID.TID 0000.0001) %MON dynstat_eta_del2             =   8.1509207406699E-04
(PID.TID 0000.0001) %MON dynstat_uvel_max             =   1.8982192846133E-01
(PID.TID 0000.0001) %MON dynstat_uvel_min             =  -2.5033271156372E-01
(PID.TID 0000.0001) %MON dynstat_uvel_mean            =  -4.5002443851023E-04
(PID.TID 0000.0001) %MON dynstat_uvel_sd              =   1.1851915288887E-02
(PID.TID 0000.0001) %MON dynstat_uvel_del2            =   5.1751797402435E-05
(PID.TID 0000.0001) %MON dynstat_vvel_max             =   1.7221711059274E-01
(PID.TID 0000.0001) %MON dynstat_vvel_min             =  -2.2290155229945E-01
(PID.TID 0000.0001) %MON dynstat_vvel_mean            =  -3.6846348525991E-04
(PID.TID 0000.0001) %MON dynstat_vvel_sd              =   1.2672000915965E-02
(PID.TID 0000.0001) %MON dynstat_vvel_del2            =   5.0583757182538E-05
(PID.TID 0000.0001) %MON dynstat_wvel_max             =   1.0881387120124E-04
(PID.TID 0000.0001) %MON dynstat_wvel_min             =  -1.9819554685459E-04
(PID.TID 0000.0001) %MON dynstat_wvel_mean            =  -3.1686773956065E-10
(PID.TID 0000.0001) %MON dynstat_wvel_sd              =   3.5410424227840E-06
(PID.TID 0000.0001) %MON dynstat_wvel_del2            =   2.6646152889297E-08
(PID.TID 0000.0001) %MON dynstat_theta_max            =   3.1411556764843E+01
(PID.TID 0000.0001) %MON dynstat_theta_min            =  -4.1657326159738E+00
(PID.TID 0000.0001) %MON dynstat_theta_mean           =   3.9129860420116E+00
(PID.TID 0000.0001) %MON dynstat_theta_sd             =   4.5860302715934E+00
(PID.TID 0000.0001) %MON dynstat_theta_del2           =   2.8237502907930E-03
(PID.TID 0000.0001) %MON dynstat_salt_max             =   4.1434257565983E+01
(PID.TID 0000.0001) %MON dynstat_salt_min             =   1.8418569530168E+01
(PID.TID 0000.0001) %MON dynstat_salt_mean            =   3.4772129508128E+01
(PID.TID 0000.0001) %MON dynstat_salt_sd              =   5.3120273076130E-01
(PID.TID 0000.0001) %MON dynstat_salt_del2            =   8.4849623555914E-04
(PID.TID 0000.0001) %MON dynstat_sst_max              =   3.1411556764843E+01
(PID.TID 0000.0001) %MON dynstat_sst_min              =  -1.9776394940352E+00
(PID.TID 0000.0001) %MON dynstat_sst_mean             =   1.8410954590594E+01
(PID.TID 0000.0001) %MON dynstat_sst_sd               =   9.9580461275102E+00
(PID.TID 0000.0001) %MON dynstat_sst_del2             =   1.7442960382725E-02
(PID.TID 0000.0001) %MON dynstat_sss_max              =   4.1434257565983E+01
(PID.TID 0000.0001) %MON dynstat_sss_min              =   1.8418569530168E+01
(PID.TID 0000.0001) %MON dynstat_sss_mean             =   3.4620337746035E+01
(PID.TID 0000.0001) %MON dynstat_sss_sd               =   1.4553310844980E+00
(PID.TID 0000.0001) %MON dynstat_sss_del2             =   8.5395825682439E-03
(PID.TID 0000.0001) %MON forcing_qnet_max             =   3.2794251581476E+02
(PID.TID 0000.0001) %MON forcing_qnet_min             =  -1.8219755308542E+02
(PID.TID 0000.0001) %MON forcing_qnet_mean            =  -8.6162303320753E+00
(PID.TID 0000.0001) %MON forcing_qnet_sd              =   6.2325742003299E+01
(PID.TID 0000.0001) %MON forcing_qnet_del2            =   4.4406360271414E-01
(PID.TID 0000.0001) %MON forcing_qsw_max              =   0.0000000000000E+00
(PID.TID 0000.0001) %MON forcing_qsw_min              =   0.0000000000000E+00
(PID.TID 0000.0001) %MON forcing_qsw_mean             =   0.0000000000000E+00
(PID.TID 0000.0001) %MON forcing_qsw_sd               =   0.0000000000000E+00
(PID.TID 0000.0001) %MON forcing_qsw_del2             =   0.0000000000000E+00
(PID.TID 0000.0001) %MON forcing_empmr_max            =   7.6494447208479E-05
(PID.TID 0000.0001) %MON forcing_empmr_min            =  -1.5362614137596E-04
(PID.TID 0000.0001) %MON forcing_empmr_mean           =   4.1932798010144E-22
(PID.TID 0000.0001) %MON forcing_empmr_sd             =   2.4051723601802E-05
(PID.TID 0000.0001) %MON forcing_empmr_del2           =   1.2276157049243E-07
(PID.TID 0000.0001) %MON forcing_fu_max               =   2.5806172925032E-01
(PID.TID 0000.0001) %MON forcing_fu_min               =  -3.2446203543866E-01
(PID.TID 0000.0001) %MON forcing_fu_mean              =  -7.9802957102755E-03
(PID.TID 0000.0001) %MON forcing_fu_sd                =   6.9114538719015E-02
(PID.TID 0000.0001) %MON forcing_fu_del2              =   2.1470309723769E-04
(PID.TID 0000.0001) %MON forcing_fv_max               =   2.5312225243091E-01
(PID.TID 0000.0001) %MON forcing_fv_min               =  -3.3226782747008E-01
(PID.TID 0000.0001) %MON forcing_fv_mean              =  -1.2823508650187E-02
(PID.TID 0000.0001) %MON forcing_fv_sd                =   7.8646713199346E-02
(PID.TID 0000.0001) %MON forcing_fv_del2              =   2.4707708670387E-04
(PID.TID 0000.0001) %MON trAdv_CFL_u_max              =   7.1352349225918E-02
(PID.TID 0000.0001) %MON trAdv_CFL_v_max              =   7.9870242291025E-02
(PID.TID 0000.0001) %MON trAdv_CFL_w_max              =   7.1378261187474E-02
(PID.TID 0000.0001) %MON advcfl_uvel_max              =   7.3805346262453E-02
(PID.TID 0000.0001) %MON advcfl_vvel_max              =   7.5067012275834E-02
(PID.TID 0000.0001) %MON advcfl_wvel_max              =   6.4619227351838E-02
(PID.TID 0000.0001) %MON advcfl_W_hf_max              =   7.1378261187474E-02
(PID.TID 0000.0001) %MON pe_b_mean                    =   4.7749718695663E-04
(PID.TID 0000.0001) %MON ke_max                       =   3.4504627674774E-02
(PID.TID 0000.0001) %MON ke_mean                      =   1.3918569948656E-04
(PID.TID 0000.0001) %MON ke_vol                       =   1.3398024453628E+18
(PID.TID 0000.0001) %MON vort_r_min                   =  -1.3295829655431E-06
(PID.TID 0000.0001) %MON vort_r_max                   =   1.2053327737600E-06
(PID.TID 0000.0001) %MON vort_a_mean                  =  -2.0493733748264E-05
(PID.TID 0000.0001) %MON vort_a_sd                    =   7.5053953542710E-05
(PID.TID 0000.0001) %MON vort_p_mean                  =  -2.4715771094958E-05
(PID.TID 0000.0001) %MON vort_p_sd                    =   1.2777061194028E-04
(PID.TID 0000.0001) %MON surfExpan_theta_mean         =   5.9493163458969E-08
(PID.TID 0000.0001) %MON surfExpan_salt_mean          =   1.5427747605858E-08
(PID.TID 0000.0001) // =======================================================
(PID.TID 0000.0001) // End MONITOR dynamic field statistics
(PID.TID 0000.0001) // =======================================================
 DRIVER_GET_EXPORT_STATE_3D:MASK : Associated & shape =          32          32          15
  Finished plug run method 
 AGCM Date: 2000/04/15  Time: 14:45:00
  Starting plug run method 
 EXTERNAL_FIELDS_LOAD,     72071 : iP,iLd,i0,i1=    2    3    2    3 ; Wght=  0.1333333333  0.8666666667
 cg2d: Sum(rhs),rhsMax =  -2.29505303650512E-12  4.20836033673115E+00
(PID.TID 0000.0001)      cg2d_init_res =   2.96849025483187E-02
(PID.TID 0000.0001)      cg2d_iters(min,last) =      -1      86
(PID.TID 0000.0001)      cg2d_last_res =   9.19948798470152E-10
(PID.TID 0000.0001) // =======================================================
(PID.TID 0000.0001) // Begin MONITOR dynamic field statistics
(PID.TID 0000.0001) // =======================================================
(PID.TID 0000.0001) %MON time_tsnumber                =                 72072
(PID.TID 0000.0001) %MON time_secondsf                =   6.2270208000000E+09
(PID.TID 0000.0001) %MON dynstat_eta_max              =   8.7990378724712E-01
(PID.TID 0000.0001) %MON dynstat_eta_min              =  -1.6015276478749E+00
(PID.TID 0000.0001) %MON dynstat_eta_mean             =   1.4207717586531E-14
(PID.TID 0000.0001) %MON dynstat_eta_sd               =   5.9890864510564E-01
(PID.TID 0000.0001) %MON dynstat_eta_del2             =   8.1527612507245E-04
(PID.TID 0000.0001) %MON dynstat_uvel_max             =   1.9036931822156E-01
(PID.TID 0000.0001) %MON dynstat_uvel_min             =  -2.5012689752150E-01
(PID.TID 0000.0001) %MON dynstat_uvel_mean            =  -4.4941052502279E-04
(PID.TID 0000.0001) %MON dynstat_uvel_sd              =   1.1850054900198E-02
(PID.TID 0000.0001) %MON dynstat_uvel_del2            =   5.1759370124110E-05
(PID.TID 0000.0001) %MON dynstat_vvel_max             =   1.7241957179784E-01
(PID.TID 0000.0001) %MON dynstat_vvel_min             =  -2.2286811746882E-01
(PID.TID 0000.0001) %MON dynstat_vvel_mean            =  -3.6754871746635E-04
(PID.TID 0000.0001) %MON dynstat_vvel_sd              =   1.2674849753006E-02
(PID.TID 0000.0001) %MON dynstat_vvel_del2            =   5.0593170362688E-05
(PID.TID 0000.0001) %MON dynstat_wvel_max             =   1.0876706963415E-04
(PID.TID 0000.0001) %MON dynstat_wvel_min             =  -1.9791025622688E-04
(PID.TID 0000.0001) %MON dynstat_wvel_mean            =  -3.0216693033500E-10
(PID.TID 0000.0001) %MON dynstat_wvel_sd              =   3.5367774335487E-06
(PID.TID 0000.0001) %MON dynstat_wvel_del2            =   2.6655531284507E-08
(PID.TID 0000.0001) %MON dynstat_theta_max            =   3.1418453095685E+01
(PID.TID 0000.0001) %MON dynstat_theta_min            =  -4.1677563809830E+00
(PID.TID 0000.0001) %MON dynstat_theta_mean           =   3.9130075025030E+00
(PID.TID 0000.0001) %MON dynstat_theta_sd             =   4.5862851223688E+00
(PID.TID 0000.0001) %MON dynstat_theta_del2           =   2.8237403034201E-03
(PID.TID 0000.0001) %MON dynstat_salt_max             =   4.1435161698461E+01
(PID.TID 0000.0001) %MON dynstat_salt_min             =   1.8418572982896E+01
(PID.TID 0000.0001) %MON dynstat_salt_mean            =   3.4772130597722E+01
(PID.TID 0000.0001) %MON dynstat_salt_sd              =   5.3119835227291E-01
(PID.TID 0000.0001) %MON dynstat_salt_del2            =   8.4844121041903E-04
(PID.TID 0000.0001) %MON dynstat_sst_max              =   3.1418453095685E+01
(PID.TID 0000.0001) %MON dynstat_sst_min              =  -1.9802554854563E+00
(PID.TID 0000.0001) %MON dynstat_sst_mean             =   1.8411096439141E+01
(PID.TID 0000.0001) %MON dynstat_sst_sd               =   9.9656337050007E+00
(PID.TID 0000.0001) %MON dynstat_sst_del2             =   1.7414840141792E-02
(PID.TID 0000.0001) %MON dynstat_sss_max              =   4.1435161698461E+01
(PID.TID 0000.0001) %MON dynstat_sss_min              =   1.8418572982896E+01
(PID.TID 0000.0001) %MON dynstat_sss_mean             =   3.4620353554653E+01
(PID.TID 0000.0001) %MON dynstat_sss_sd               =   1.4552032698344E+00
(PID.TID 0000.0001) %MON dynstat_sss_del2             =   8.5379523007878E-03
(PID.TID 0000.0001) %MON forcing_qnet_max             =   3.2771671331139E+02
(PID.TID 0000.0001) %MON forcing_qnet_min             =  -1.8270564767550E+02
(PID.TID 0000.0001) %MON forcing_qnet_mean            =  -8.4129121860804E+00
(PID.TID 0000.0001) %MON forcing_qnet_sd              =   6.1827605810202E+01
(PID.TID 0000.0001) %MON forcing_qnet_del2            =   4.4611333107696E-01
(PID.TID 0000.0001) %MON forcing_qsw_max              =   0.0000000000000E+00
(PID.TID 0000.0001) %MON forcing_qsw_min              =   0.0000000000000E+00
(PID.TID 0000.0001) %MON forcing_qsw_mean             =   0.0000000000000E+00
(PID.TID 0000.0001) %MON forcing_qsw_sd               =   0.0000000000000E+00
(PID.TID 0000.0001) %MON forcing_qsw_del2             =   0.0000000000000E+00
(PID.TID 0000.0001) %MON forcing_empmr_max            =   7.6494447208479E-05
(PID.TID 0000.0001) %MON forcing_empmr_min            =  -1.5362614137596E-04
(PID.TID 0000.0001) %MON forcing_empmr_mean           =   4.1932798010144E-22
(PID.TID 0000.0001) %MON forcing_empmr_sd             =   2.4051723601802E-05
(PID.TID 0000.0001) %MON forcing_empmr_del2           =   1.2276157049243E-07
(PID.TID 0000.0001) %MON forcing_fu_max               =   2.5797581289069E-01
(PID.TID 0000.0001) %MON forcing_fu_min               =  -3.2879996411270E-01
(PID.TID 0000.0001) %MON forcing_fu_mean              =  -8.1051252442867E-03
(PID.TID 0000.0001) %MON forcing_fu_sd                =   6.9437784773997E-02
(PID.TID 0000.0001) %MON forcing_fu_del2              =   2.1732081328792E-04
(PID.TID 0000.0001) %MON forcing_fv_max               =   2.5438747140323E-01
(PID.TID 0000.0001) %MON forcing_fv_min               =  -3.3340616082639E-01
(PID.TID 0000.0001) %MON forcing_fv_mean              =  -1.2788861600087E-02
(PID.TID 0000.0001) %MON forcing_fv_sd                =   7.8999162952964E-02
(PID.TID 0000.0001) %MON forcing_fv_del2              =   2.5008052179199E-04
(PID.TID 0000.0001) %MON trAdv_CFL_u_max              =   7.1293685949608E-02
(PID.TID 0000.0001) %MON trAdv_CFL_v_max              =   7.9964147907064E-02
(PID.TID 0000.0001) %MON trAdv_CFL_w_max              =   7.1275553667401E-02
(PID.TID 0000.0001) %MON advcfl_uvel_max              =   7.4099734060031E-02
(PID.TID 0000.0001) %MON advcfl_vvel_max              =   7.5155262262820E-02
(PID.TID 0000.0001) %MON advcfl_wvel_max              =   6.4526211841520E-02
(PID.TID 0000.0001) %MON advcfl_W_hf_max              =   7.1275553667401E-02
(PID.TID 0000.0001) %MON pe_b_mean                    =   4.7784344962184E-04
(PID.TID 0000.0001) %MON ke_max                       =   3.4466287437723E-02
(PID.TID 0000.0001) %MON ke_mean                      =   1.3919837529069E-04
(PID.TID 0000.0001) %MON ke_vol                       =   1.3398024453628E+18
(PID.TID 0000.0001) %MON vort_r_min                   =  -1.3287890863397E-06
(PID.TID 0000.0001) %MON vort_r_max                   =   1.2113946655180E-06
(PID.TID 0000.0001) %MON vort_a_mean                  =  -2.0493733748264E-05
(PID.TID 0000.0001) %MON vort_a_sd                    =   7.5053953770938E-05
(PID.TID 0000.0001) %MON vort_p_mean                  =  -2.4715771026833E-05
(PID.TID 0000.0001) %MON vort_p_sd                    =   1.2777062056351E-04
(PID.TID 0000.0001) %MON surfExpan_theta_mean         =   5.9439326204583E-08
(PID.TID 0000.0001) %MON surfExpan_salt_mean          =   1.5442149956040E-08
(PID.TID 0000.0001) // =======================================================
(PID.TID 0000.0001) // End MONITOR dynamic field statistics
(PID.TID 0000.0001) // =======================================================
 DRIVER_GET_EXPORT_STATE_3D:MASK : Associated & shape =          32          32          15
  Finished plug run method 
 AGCM Date: 2000/04/15  Time: 15:00:00
 
 Writing:    147 Slices (  1 Nodes,  1 PartitionRoot) to File:  TEST.geosgcm_surf.20000415_1330z.nc4
 Writing:     40 Slices (  1 Nodes,  1 PartitionRoot) to File:  TEST.mit_ocn.20000415_1500z.nc4
 
  Starting plug run method 
 EXTERNAL_FIELDS_LOAD,     72072 : iP,iLd,i0,i1=    2    3    2    3 ; Wght=  0.1000000000  0.9000000000
 cg2d: Sum(rhs),rhsMax =  -2.29505303650512E-12  4.20596705022154E+00
(PID.TID 0000.0001)      cg2d_init_res =   2.97425529859576E-02
(PID.TID 0000.0001)      cg2d_iters(min,last) =      -1      85
(PID.TID 0000.0001)      cg2d_last_res =   9.95095594388401E-10
(PID.TID 0000.0001) // =======================================================
(PID.TID 0000.0001) // Begin MONITOR dynamic field statistics
(PID.TID 0000.0001) // =======================================================
(PID.TID 0000.0001) %MON time_tsnumber                =                 72073
(PID.TID 0000.0001) %MON time_secondsf                =   6.2271072000000E+09
(PID.TID 0000.0001) %MON dynstat_eta_max              =   8.8049715737559E-01
(PID.TID 0000.0001) %MON dynstat_eta_min              =  -1.6017489962526E+00
(PID.TID 0000.0001) %MON dynstat_eta_mean             =   1.4400085136058E-14
(PID.TID 0000.0001) %MON dynstat_eta_sd               =   5.9912219634709E-01
(PID.TID 0000.0001) %MON dynstat_eta_del2             =   8.1545769751134E-04
(PID.TID 0000.0001) %MON dynstat_uvel_max             =   1.9087412978102E-01
(PID.TID 0000.0001) %MON dynstat_uvel_min             =  -2.4991801769139E-01
(PID.TID 0000.0001) %MON dynstat_uvel_mean            =  -4.4881999547623E-04
(PID.TID 0000.0001) %MON dynstat_uvel_sd              =   1.1848840579976E-02
(PID.TID 0000.0001) %MON dynstat_uvel_del2            =   5.1767887499659E-05
(PID.TID 0000.0001) %MON dynstat_vvel_max             =   1.7259880766789E-01
(PID.TID 0000.0001) %MON dynstat_vvel_min             =  -2.2282861749590E-01
(PID.TID 0000.0001) %MON dynstat_vvel_mean            =  -3.6659506749393E-04
(PID.TID 0000.0001) %MON dynstat_vvel_sd              =   1.2677487571135E-02
(PID.TID 0000.0001) %MON dynstat_vvel_del2            =   5.0602272309369E-05
(PID.TID 0000.0001) %MON dynstat_wvel_max             =   1.0867776664139E-04
(PID.TID 0000.0001) %MON dynstat_wvel_min             =  -1.9762720935851E-04
(PID.TID 0000.0001) %MON dynstat_wvel_mean            =  -2.8738699037134E-10
(PID.TID 0000.0001) %MON dynstat_wvel_sd              =   3.5328017302317E-06
(PID.TID 0000.0001) %MON dynstat_wvel_del2            =   2.6665254154471E-08
(PID.TID 0000.0001) %MON dynstat_theta_max            =   3.1424626012559E+01
(PID.TID 0000.0001) %MON dynstat_theta_min            =  -4.1690495255035E+00
(PID.TID 0000.0001) %MON dynstat_theta_mean           =   3.9130279733506E+00
(PID.TID 0000.0001) %MON dynstat_theta_sd             =   4.5865386780721E+00
(PID.TID 0000.0001) %MON dynstat_theta_del2           =   2.8235466574185E-03
(PID.TID 0000.0001) %MON dynstat_salt_max             =   4.1436072078062E+01
(PID.TID 0000.0001) %MON dynstat_salt_min             =   1.8418564035181E+01
(PID.TID 0000.0001) %MON dynstat_salt_mean            =   3.4772131687523E+01
(PID.TID 0000.0001) %MON dynstat_salt_sd              =   5.3119396140292E-01
(PID.TID 0000.0001) %MON dynstat_salt_del2            =   8.4836679763626E-04
(PID.TID 0000.0001) %MON dynstat_sst_max              =   3.1424626012559E+01
(PID.TID 0000.0001) %MON dynstat_sst_min              =  -1.9828764379326E+00
(PID.TID 0000.0001) %MON dynstat_sst_mean             =   1.8411066509003E+01
(PID.TID 0000.0001) %MON dynstat_sst_sd               =   9.9733199029654E+00
(PID.TID 0000.0001) %MON dynstat_sst_del2             =   1.7386052111215E-02
(PID.TID 0000.0001) %MON dynstat_sss_max              =   4.1436072078062E+01
(PID.TID 0000.0001) %MON dynstat_sss_min              =   1.8418564035181E+01
(PID.TID 0000.0001) %MON dynstat_sss_mean             =   3.4620364981331E+01
(PID.TID 0000.0001) %MON dynstat_sss_sd               =   1.4550762658735E+00
(PID.TID 0000.0001) %MON dynstat_sss_del2             =   8.5365389159583E-03
(PID.TID 0000.0001) %MON forcing_qnet_max             =   3.2749091080802E+02
(PID.TID 0000.0001) %MON forcing_qnet_min             =  -1.8321374226558E+02
(PID.TID 0000.0001) %MON forcing_qnet_mean            =  -8.2095940400856E+00
(PID.TID 0000.0001) %MON forcing_qnet_sd              =   6.1378226662679E+01
(PID.TID 0000.0001) %MON forcing_qnet_del2            =   4.4825831743663E-01
(PID.TID 0000.0001) %MON forcing_qsw_max              =   0.0000000000000E+00
(PID.TID 0000.0001) %MON forcing_qsw_min              =   0.0000000000000E+00
(PID.TID 0000.0001) %MON forcing_qsw_mean             =   0.0000000000000E+00
(PID.TID 0000.0001) %MON forcing_qsw_sd               =   0.0000000000000E+00
(PID.TID 0000.0001) %MON forcing_qsw_del2             =   0.0000000000000E+00
(PID.TID 0000.0001) %MON forcing_empmr_max            =   7.6494447208479E-05
(PID.TID 0000.0001) %MON forcing_empmr_min            =  -1.5362614137596E-04
(PID.TID 0000.0001) %MON forcing_empmr_mean           =   4.1932798010144E-22
(PID.TID 0000.0001) %MON forcing_empmr_sd             =   2.4051723601802E-05
(PID.TID 0000.0001) %MON forcing_empmr_del2           =   1.2276157049243E-07
(PID.TID 0000.0001) %MON forcing_fu_max               =   2.5788989653106E-01
(PID.TID 0000.0001) %MON forcing_fu_min               =  -3.3313789278674E-01
(PID.TID 0000.0001) %MON forcing_fu_mean              =  -8.2299547782980E-03
(PID.TID 0000.0001) %MON forcing_fu_sd                =   6.9774230977598E-02
(PID.TID 0000.0001) %MON forcing_fu_del2              =   2.2016504842205E-04
(PID.TID 0000.0001) %MON forcing_fv_max               =   2.5565269037555E-01
(PID.TID 0000.0001) %MON forcing_fv_min               =  -3.3454449418271E-01
(PID.TID 0000.0001) %MON forcing_fv_mean              =  -1.2754214549987E-02
(PID.TID 0000.0001) %MON forcing_fv_sd                =   7.9369834871116E-02
(PID.TID 0000.0001) %MON forcing_fv_del2              =   2.5333083070352E-04
(PID.TID 0000.0001) %MON trAdv_CFL_u_max              =   7.1234148856413E-02
(PID.TID 0000.0001) %MON trAdv_CFL_v_max              =   8.0047283240019E-02
(PID.TID 0000.0001) %MON trAdv_CFL_w_max              =   7.1173652736087E-02
(PID.TID 0000.0001) %MON advcfl_uvel_max              =   7.4375185974364E-02
(PID.TID 0000.0001) %MON advcfl_vvel_max              =   7.5233388653460E-02
(PID.TID 0000.0001) %MON advcfl_wvel_max              =   6.4433927881416E-02
(PID.TID 0000.0001) %MON advcfl_W_hf_max              =   7.1173652736087E-02
(PID.TID 0000.0001) %MON pe_b_mean                    =   4.7818427707693E-04
(PID.TID 0000.0001) %MON ke_max                       =   3.4427043940605E-02
(PID.TID 0000.0001) %MON ke_mean                      =   1.3921561019415E-04
(PID.TID 0000.0001) %MON ke_vol                       =   1.3398024453628E+18
(PID.TID 0000.0001) %MON vort_r_min                   =  -1.3279494996231E-06
(PID.TID 0000.0001) %MON vort_r_max                   =   1.2176088374512E-06
(PID.TID 0000.0001) %MON vort_a_mean                  =  -2.0493733748264E-05
(PID.TID 0000.0001) %MON vort_a_sd                    =   7.5053953990309E-05
(PID.TID 0000.0001) %MON vort_p_mean                  =  -2.4715770961120E-05
(PID.TID 0000.0001) %MON vort_p_sd                    =   1.2777062916156E-04
(PID.TID 0000.0001) %MON surfExpan_theta_mean         =   5.9377566914206E-08
(PID.TID 0000.0001) %MON surfExpan_salt_mean          =   1.5464002921181E-08
(PID.TID 0000.0001) // =======================================================
(PID.TID 0000.0001) // End MONITOR dynamic field statistics
(PID.TID 0000.0001) // =======================================================
 DRIVER_GET_EXPORT_STATE_3D:MASK : Associated & shape =          32          32          15
  Finished plug run method 
 AGCM Date: 2000/04/15  Time: 15:15:00
  Starting plug run method 
 EXTERNAL_FIELDS_LOAD,     72073 : iP,iLd,i0,i1=    2    3    2    3 ; Wght=  0.0666666667  0.9333333333
 cg2d: Sum(rhs),rhsMax =  -2.29505303650512E-12  4.20692354246547E+00
(PID.TID 0000.0001)      cg2d_init_res =   2.97835405128729E-02
(PID.TID 0000.0001)      cg2d_iters(min,last) =      -1      85
(PID.TID 0000.0001)      cg2d_last_res =   9.23881590136895E-10
(PID.TID 0000.0001) // =======================================================
(PID.TID 0000.0001) // Begin MONITOR dynamic field statistics
(PID.TID 0000.0001) // =======================================================
(PID.TID 0000.0001) %MON time_tsnumber                =                 72074
(PID.TID 0000.0001) %MON time_secondsf                =   6.2271936000000E+09
(PID.TID 0000.0001) %MON dynstat_eta_max              =   8.8110772104759E-01
(PID.TID 0000.0001) %MON dynstat_eta_min              =  -1.6019899581316E+00
(PID.TID 0000.0001) %MON dynstat_eta_mean             =   1.4262679743539E-14
(PID.TID 0000.0001) %MON dynstat_eta_sd               =   5.9933046340783E-01
(PID.TID 0000.0001) %MON dynstat_eta_del2             =   8.1563482558309E-04
(PID.TID 0000.0001) %MON dynstat_uvel_max             =   1.9133550203179E-01
(PID.TID 0000.0001) %MON dynstat_uvel_min             =  -2.4970603111792E-01
(PID.TID 0000.0001) %MON dynstat_uvel_mean            =  -4.4824851703646E-04
(PID.TID 0000.0001) %MON dynstat_uvel_sd              =   1.1848223864470E-02
(PID.TID 0000.0001) %MON dynstat_uvel_del2            =   5.1777290110921E-05
(PID.TID 0000.0001) %MON dynstat_vvel_max             =   1.7275327483844E-01
(PID.TID 0000.0001) %MON dynstat_vvel_min             =  -2.2278325999770E-01
(PID.TID 0000.0001) %MON dynstat_vvel_mean            =  -3.6560968014850E-04
(PID.TID 0000.0001) %MON dynstat_vvel_sd              =   1.2679938058947E-02
(PID.TID 0000.0001) %MON dynstat_vvel_del2            =   5.0611124291597E-05
(PID.TID 0000.0001) %MON dynstat_wvel_max             =   1.0854788528274E-04
(PID.TID 0000.0001) %MON dynstat_wvel_min             =  -1.9734845701223E-04
(PID.TID 0000.0001) %MON dynstat_wvel_mean            =  -2.7272809663846E-10
(PID.TID 0000.0001) %MON dynstat_wvel_sd              =   3.5291424026319E-06
(PID.TID 0000.0001) %MON dynstat_wvel_del2            =   2.6675397134714E-08
(PID.TID 0000.0001) %MON dynstat_theta_max            =   3.1430066842920E+01
(PID.TID 0000.0001) %MON dynstat_theta_min            =  -4.1696129948617E+00
(PID.TID 0000.0001) %MON dynstat_theta_mean           =   3.9130475309927E+00
(PID.TID 0000.0001) %MON dynstat_theta_sd             =   4.5867909358404E+00
(PID.TID 0000.0001) %MON dynstat_theta_del2           =   2.8232281464359E-03
(PID.TID 0000.0001) %MON dynstat_salt_max             =   4.1436988532112E+01
(PID.TID 0000.0001) %MON dynstat_salt_min             =   1.8418543223654E+01
(PID.TID 0000.0001) %MON dynstat_salt_mean            =   3.4772132777629E+01
(PID.TID 0000.0001) %MON dynstat_salt_sd              =   5.3118953127875E-01
(PID.TID 0000.0001) %MON dynstat_salt_del2            =   8.4829958920608E-04
(PID.TID 0000.0001) %MON dynstat_sst_max              =   3.1430066842920E+01
(PID.TID 0000.0001) %MON dynstat_sst_min              =  -1.9855028522410E+00
(PID.TID 0000.0001) %MON dynstat_sst_mean             =   1.8410904242479E+01
(PID.TID 0000.0001) %MON dynstat_sst_sd               =   9.9810789480292E+00
(PID.TID 0000.0001) %MON dynstat_sst_del2             =   1.7359975039280E-02
(PID.TID 0000.0001) %MON dynstat_sss_max              =   4.1436988532112E+01
(PID.TID 0000.0001) %MON dynstat_sss_min              =   1.8418543223654E+01
(PID.TID 0000.0001) %MON dynstat_sss_mean             =   3.4620381003595E+01
(PID.TID 0000.0001) %MON dynstat_sss_sd               =   1.4549589916473E+00
(PID.TID 0000.0001) %MON dynstat_sss_del2             =   8.5355983269101E-03
(PID.TID 0000.0001) %MON forcing_qnet_max             =   3.2726510830466E+02
(PID.TID 0000.0001) %MON forcing_qnet_min             =  -1.8372183685567E+02
(PID.TID 0000.0001) %MON forcing_qnet_mean            =  -8.0062758940907E+00
(PID.TID 0000.0001) %MON forcing_qnet_sd              =   6.0978682507596E+01
(PID.TID 0000.0001) %MON forcing_qnet_del2            =   4.5049720111793E-01
(PID.TID 0000.0001) %MON forcing_qsw_max              =   0.0000000000000E+00
(PID.TID 0000.0001) %MON forcing_qsw_min              =   0.0000000000000E+00
(PID.TID 0000.0001) %MON forcing_qsw_mean             =   0.0000000000000E+00
(PID.TID 0000.0001) %MON forcing_qsw_sd               =   0.0000000000000E+00
(PID.TID 0000.0001) %MON forcing_qsw_del2             =   0.0000000000000E+00
(PID.TID 0000.0001) %MON forcing_empmr_max            =   7.6494447208479E-05
(PID.TID 0000.0001) %MON forcing_empmr_min            =  -1.5362614137596E-04
(PID.TID 0000.0001) %MON forcing_empmr_mean           =   4.1932798010144E-22
(PID.TID 0000.0001) %MON forcing_empmr_sd             =   2.4051723601802E-05
(PID.TID 0000.0001) %MON forcing_empmr_del2           =   1.2276157049243E-07
(PID.TID 0000.0001) %MON forcing_fu_max               =   2.5780398017143E-01
(PID.TID 0000.0001) %MON forcing_fu_min               =  -3.3747582146079E-01
(PID.TID 0000.0001) %MON forcing_fu_mean              =  -8.3547843123092E-03
(PID.TID 0000.0001) %MON forcing_fu_sd                =   7.0123687331227E-02
(PID.TID 0000.0001) %MON forcing_fu_del2              =   2.2322714427045E-04
(PID.TID 0000.0001) %MON forcing_fv_max               =   2.5691790934787E-01
(PID.TID 0000.0001) %MON forcing_fv_min               =  -3.3568282753903E-01
(PID.TID 0000.0001) %MON forcing_fv_mean              =  -1.2719567499886E-02
(PID.TID 0000.0001) %MON forcing_fv_sd                =   7.9758474895509E-02
(PID.TID 0000.0001) %MON forcing_fv_del2              =   2.5681864026900E-04
(PID.TID 0000.0001) %MON trAdv_CFL_u_max              =   7.1173726273353E-02
(PID.TID 0000.0001) %MON trAdv_CFL_v_max              =   8.0118932296007E-02
(PID.TID 0000.0001) %MON trAdv_CFL_w_max              =   7.1073296678407E-02
(PID.TID 0000.0001) %MON advcfl_uvel_max              =   7.4630007845772E-02
(PID.TID 0000.0001) %MON advcfl_vvel_max              =   7.5300718716936E-02
(PID.TID 0000.0001) %MON advcfl_wvel_max              =   6.4343044097573E-02
(PID.TID 0000.0001) %MON advcfl_W_hf_max              =   7.1073296678407E-02
(PID.TID 0000.0001) %MON pe_b_mean                    =   4.7851678802126E-04
(PID.TID 0000.0001) %MON ke_max                       =   3.4386834427306E-02
(PID.TID 0000.0001) %MON ke_mean                      =   1.3923715231950E-04
(PID.TID 0000.0001) %MON ke_vol                       =   1.3398024453628E+18
(PID.TID 0000.0001) %MON vort_r_min                   =  -1.3270634307486E-06
(PID.TID 0000.0001) %MON vort_r_max                   =   1.2239412610710E-06
(PID.TID 0000.0001) %MON vort_a_mean                  =  -2.0493733748264E-05
(PID.TID 0000.0001) %MON vort_a_sd                    =   7.5053954201276E-05
(PID.TID 0000.0001) %MON vort_p_mean                  =  -2.4715770898010E-05
(PID.TID 0000.0001) %MON vort_p_sd                    =   1.2777063767444E-04
(PID.TID 0000.0001) %MON surfExpan_theta_mean         =   5.9311094106540E-08
(PID.TID 0000.0001) %MON surfExpan_salt_mean          =   1.5493064729978E-08
(PID.TID 0000.0001) // =======================================================
(PID.TID 0000.0001) // End MONITOR dynamic field statistics
(PID.TID 0000.0001) // =======================================================
 DRIVER_GET_EXPORT_STATE_3D:MASK : Associated & shape =          32          32          15
  Finished plug run method 
 AGCM Date: 2000/04/15  Time: 15:30:00
  Starting plug run method 
 EXTERNAL_FIELDS_LOAD,     72074 : iP,iLd,i0,i1=    2    3    2    3 ; Wght=  0.0333333333  0.9666666667
 cg2d: Sum(rhs),rhsMax =  -2.38742359215394E-12  4.20769748415605E+00
(PID.TID 0000.0001)      cg2d_init_res =   2.98172489912688E-02
(PID.TID 0000.0001)      cg2d_iters(min,last) =      -1      85
(PID.TID 0000.0001)      cg2d_last_res =   8.71623509160568E-10
(PID.TID 0000.0001) // =======================================================
(PID.TID 0000.0001) // Begin MONITOR dynamic field statistics
(PID.TID 0000.0001) // =======================================================
(PID.TID 0000.0001) %MON time_tsnumber                =                 72075
(PID.TID 0000.0001) %MON time_secondsf                =   6.2272800000000E+09
(PID.TID 0000.0001) %MON dynstat_eta_max              =   8.8173045775681E-01
(PID.TID 0000.0001) %MON dynstat_eta_min              =  -1.6022503714335E+00
(PID.TID 0000.0001) %MON dynstat_eta_mean             =   1.4372604057554E-14
(PID.TID 0000.0001) %MON dynstat_eta_sd               =   5.9953182144493E-01
(PID.TID 0000.0001) %MON dynstat_eta_del2             =   8.1581063426753E-04
(PID.TID 0000.0001) %MON dynstat_uvel_max             =   1.9175308059289E-01
(PID.TID 0000.0001) %MON dynstat_uvel_min             =  -2.4949090123417E-01
(PID.TID 0000.0001) %MON dynstat_uvel_mean            =  -4.4769251188882E-04
(PID.TID 0000.0001) %MON dynstat_uvel_sd              =   1.1848146651440E-02
(PID.TID 0000.0001) %MON dynstat_uvel_del2            =   5.1787558207434E-05
(PID.TID 0000.0001) %MON dynstat_vvel_max             =   1.7288154937866E-01
(PID.TID 0000.0001) %MON dynstat_vvel_min             =  -2.2273226772740E-01
(PID.TID 0000.0001) %MON dynstat_vvel_mean            =  -3.6460101192397E-04
(PID.TID 0000.0001) %MON dynstat_vvel_sd              =   1.2682228397309E-02
(PID.TID 0000.0001) %MON dynstat_vvel_del2            =   5.0619740861991E-05
(PID.TID 0000.0001) %MON dynstat_wvel_max             =   1.0837999876863E-04
(PID.TID 0000.0001) %MON dynstat_wvel_min             =  -1.9707573261038E-04
(PID.TID 0000.0001) %MON dynstat_wvel_mean            =  -2.5845100613619E-10
(PID.TID 0000.0001) %MON dynstat_wvel_sd              =   3.5258250834635E-06
(PID.TID 0000.0001) %MON dynstat_wvel_del2            =   2.6686002645054E-08
(PID.TID 0000.0001) %MON dynstat_theta_max            =   3.1434767088100E+01
(PID.TID 0000.0001) %MON dynstat_theta_min            =  -4.1694541164011E+00
(PID.TID 0000.0001) %MON dynstat_theta_mean           =   3.9130661661602E+00
(PID.TID 0000.0001) %MON dynstat_theta_sd             =   4.5870420587291E+00
(PID.TID 0000.0001) %MON dynstat_theta_del2           =   2.8227837963940E-03
(PID.TID 0000.0001) %MON dynstat_salt_max             =   4.1437910830401E+01
(PID.TID 0000.0001) %MON dynstat_salt_min             =   1.8418511125877E+01
(PID.TID 0000.0001) %MON dynstat_salt_mean            =   3.4772133867979E+01
(PID.TID 0000.0001) %MON dynstat_salt_sd              =   5.3118508191895E-01
(PID.TID 0000.0001) %MON dynstat_salt_del2            =   8.4827056598787E-04
(PID.TID 0000.0001) %MON dynstat_sst_max              =   3.1434767088100E+01
(PID.TID 0000.0001) %MON dynstat_sst_min              =  -1.9881353913683E+00
(PID.TID 0000.0001) %MON dynstat_sst_mean             =   1.8410599250946E+01
(PID.TID 0000.0001) %MON dynstat_sst_sd               =   9.9889230834757E+00
(PID.TID 0000.0001) %MON dynstat_sst_del2             =   1.7338672557745E-02
(PID.TID 0000.0001) %MON dynstat_sss_max              =   4.1437910830401E+01
(PID.TID 0000.0001) %MON dynstat_sss_min              =   1.8418511125877E+01
(PID.TID 0000.0001) %MON dynstat_sss_mean             =   3.4620395219762E+01
(PID.TID 0000.0001) %MON dynstat_sss_sd               =   1.4548444686341E+00
(PID.TID 0000.0001) %MON dynstat_sss_del2             =   8.5356283091435E-03
(PID.TID 0000.0001) %MON forcing_qnet_max             =   3.2703930580129E+02
(PID.TID 0000.0001) %MON forcing_qnet_min             =  -1.8422993144575E+02
(PID.TID 0000.0001) %MON forcing_qnet_mean            =  -7.8029577480959E+00
(PID.TID 0000.0001) %MON forcing_qnet_sd              =   6.0629958572826E+01
(PID.TID 0000.0001) %MON forcing_qnet_del2            =   4.5282858937625E-01
(PID.TID 0000.0001) %MON forcing_qsw_max              =   0.0000000000000E+00
(PID.TID 0000.0001) %MON forcing_qsw_min              =   0.0000000000000E+00
(PID.TID 0000.0001) %MON forcing_qsw_mean             =   0.0000000000000E+00
(PID.TID 0000.0001) %MON forcing_qsw_sd               =   0.0000000000000E+00
(PID.TID 0000.0001) %MON forcing_qsw_del2             =   0.0000000000000E+00
(PID.TID 0000.0001) %MON forcing_empmr_max            =   7.6494447208479E-05
(PID.TID 0000.0001) %MON forcing_empmr_min            =  -1.5362614137596E-04
(PID.TID 0000.0001) %MON forcing_empmr_mean           =   4.1932798010144E-22
(PID.TID 0000.0001) %MON forcing_empmr_sd             =   2.4051723601802E-05
(PID.TID 0000.0001) %MON forcing_empmr_del2           =   1.2276157049243E-07
(PID.TID 0000.0001) %MON forcing_fu_max               =   2.5771806381180E-01
(PID.TID 0000.0001) %MON forcing_fu_min               =  -3.4181375013483E-01
(PID.TID 0000.0001) %MON forcing_fu_mean              =  -8.4796138463205E-03
(PID.TID 0000.0001) %MON forcing_fu_sd                =   7.0485960329399E-02
(PID.TID 0000.0001) %MON forcing_fu_del2              =   2.2649826503858E-04
(PID.TID 0000.0001) %MON forcing_fv_max               =   2.5818312832019E-01
(PID.TID 0000.0001) %MON forcing_fv_min               =  -3.3682116089535E-01
(PID.TID 0000.0001) %MON forcing_fv_mean              =  -1.2684920449786E-02
(PID.TID 0000.0001) %MON forcing_fv_sd                =   8.0164821697783E-02
(PID.TID 0000.0001) %MON forcing_fv_del2              =   2.6053441230249E-04
(PID.TID 0000.0001) %MON trAdv_CFL_u_max              =   7.1112407777951E-02
(PID.TID 0000.0001) %MON trAdv_CFL_v_max              =   8.0178434459794E-02
(PID.TID 0000.0001) %MON trAdv_CFL_w_max              =   7.0975109601598E-02
(PID.TID 0000.0001) %MON advcfl_uvel_max              =   7.4862801890831E-02
(PID.TID 0000.0001) %MON advcfl_vvel_max              =   7.5356631781861E-02
(PID.TID 0000.0001) %MON advcfl_wvel_max              =   6.4254125651083E-02
(PID.TID 0000.0001) %MON advcfl_W_hf_max              =   7.0975109601598E-02
(PID.TID 0000.0001) %MON pe_b_mean                    =   4.7883837817230E-04
(PID.TID 0000.0001) %MON ke_max                       =   3.4345598910583E-02
(PID.TID 0000.0001) %MON ke_mean                      =   1.3926268817041E-04
(PID.TID 0000.0001) %MON ke_vol                       =   1.3398024453628E+18
(PID.TID 0000.0001) %MON vort_r_min                   =  -1.3261297730632E-06
(PID.TID 0000.0001) %MON vort_r_max                   =   1.2303600302683E-06
(PID.TID 0000.0001) %MON vort_a_mean                  =  -2.0493733748264E-05
(PID.TID 0000.0001) %MON vort_a_sd                    =   7.5053954404196E-05
(PID.TID 0000.0001) %MON vort_p_mean                  =  -2.4715770837779E-05
(PID.TID 0000.0001) %MON vort_p_sd                    =   1.2777064604607E-04
(PID.TID 0000.0001) %MON surfExpan_theta_mean         =   5.9243489223276E-08
(PID.TID 0000.0001) %MON surfExpan_salt_mean          =   1.5528406251607E-08
(PID.TID 0000.0001) // =======================================================
(PID.TID 0000.0001) // End MONITOR dynamic field statistics
(PID.TID 0000.0001) // =======================================================
 DRIVER_GET_EXPORT_STATE_3D:MASK : Associated & shape =          32          32          15
  Finished plug run method 
 AGCM Date: 2000/04/15  Time: 15:45:00
  Starting plug run method 
 EXTERNAL_FIELDS_LOAD,     72075 : iP,iLd,i0,i1=    2    3    3    4 ; Wght=  1.0000000000  0.0000000000
 EXTERNAL_FIELDS_LOAD, it=     72075 : Reading new data, i0,i1=    3    4 (prev=    2    3 )
(PID.TID 0000.0001)  MDS_READ_FIELD: opening global file: trenberth_taux.bin
(PID.TID 0000.0001)  MDS_READ_FIELD: opening global file: trenberth_taux.bin
(PID.TID 0000.0001)  MDS_READ_FIELD: opening global file: trenberth_tauy.bin
(PID.TID 0000.0001)  MDS_READ_FIELD: opening global file: trenberth_tauy.bin
(PID.TID 0000.0001)  MDS_READ_FIELD: opening global file: shiQnet_cs32.bin
(PID.TID 0000.0001)  MDS_READ_FIELD: opening global file: shiQnet_cs32.bin
(PID.TID 0000.0001)  MDS_READ_FIELD: opening global file: shiEmPR_cs32.bin
(PID.TID 0000.0001)  MDS_READ_FIELD: opening global file: shiEmPR_cs32.bin
(PID.TID 0000.0001)  MDS_READ_FIELD: opening global file: lev_surfT_cs_12m.bin
(PID.TID 0000.0001)  MDS_READ_FIELD: opening global file: lev_surfT_cs_12m.bin
(PID.TID 0000.0001)  MDS_READ_FIELD: opening global file: lev_surfS_cs_12m.bin
(PID.TID 0000.0001)  MDS_READ_FIELD: opening global file: lev_surfS_cs_12m.bin
 cg2d: Sum(rhs),rhsMax =  -2.21689333557151E-12  4.20828878582472E+00
(PID.TID 0000.0001)      cg2d_init_res =   2.98688258011258E-02
(PID.TID 0000.0001)      cg2d_iters(min,last) =      -1      85
(PID.TID 0000.0001)      cg2d_last_res =   8.58406266688864E-10
(PID.TID 0000.0001) // =======================================================
(PID.TID 0000.0001) // Begin MONITOR dynamic field statistics
(PID.TID 0000.0001) // =======================================================
(PID.TID 0000.0001) %MON time_tsnumber                =                 72076
(PID.TID 0000.0001) %MON time_secondsf                =   6.2273664000000E+09
(PID.TID 0000.0001) %MON dynstat_eta_max              =   8.8236054731548E-01
(PID.TID 0000.0001) %MON dynstat_eta_min              =  -1.6025294985540E+00
(PID.TID 0000.0001) %MON dynstat_eta_mean             =   1.4180236508027E-14
(PID.TID 0000.0001) %MON dynstat_eta_sd               =   5.9972489389733E-01
(PID.TID 0000.0001) %MON dynstat_eta_del2             =   8.1598379043401E-04
(PID.TID 0000.0001) %MON dynstat_uvel_max             =   1.9212699697928E-01
(PID.TID 0000.0001) %MON dynstat_uvel_min             =  -2.4927259718495E-01
(PID.TID 0000.0001) %MON dynstat_uvel_mean            =  -4.4714922491424E-04
(PID.TID 0000.0001) %MON dynstat_uvel_sd              =   1.1848544908369E-02
(PID.TID 0000.0001) %MON dynstat_uvel_del2            =   5.1798629473382E-05
(PID.TID 0000.0001) %MON dynstat_vvel_max             =   1.7298230957187E-01
(PID.TID 0000.0001) %MON dynstat_vvel_min             =  -2.2267587619341E-01
(PID.TID 0000.0001) %MON dynstat_vvel_mean            =  -3.6357868181955E-04
(PID.TID 0000.0001) %MON dynstat_vvel_sd              =   1.2684386267197E-02
(PID.TID 0000.0001) %MON dynstat_vvel_del2            =   5.0628179601759E-05
(PID.TID 0000.0001) %MON dynstat_wvel_max             =   1.0817720335059E-04
(PID.TID 0000.0001) %MON dynstat_wvel_min             =  -1.9681038122197E-04
(PID.TID 0000.0001) %MON dynstat_wvel_mean            =  -2.4470493014766E-10
(PID.TID 0000.0001) %MON dynstat_wvel_sd              =   3.5228709005614E-06
(PID.TID 0000.0001) %MON dynstat_wvel_del2            =   2.6697453873350E-08
(PID.TID 0000.0001) %MON dynstat_theta_max            =   3.1438718467003E+01
(PID.TID 0000.0001) %MON dynstat_theta_min            =  -4.1685760205033E+00
(PID.TID 0000.0001) %MON dynstat_theta_mean           =   3.9130840104322E+00
(PID.TID 0000.0001) %MON dynstat_theta_sd             =   4.5872922345112E+00
(PID.TID 0000.0001) %MON dynstat_theta_del2           =   2.8223178277890E-03
(PID.TID 0000.0001) %MON dynstat_salt_max             =   4.1438838681393E+01
(PID.TID 0000.0001) %MON dynstat_salt_min             =   1.8418468372926E+01
(PID.TID 0000.0001) %MON dynstat_salt_mean            =   3.4772134958615E+01
(PID.TID 0000.0001) %MON dynstat_salt_sd              =   5.3118071176418E-01
(PID.TID 0000.0001) %MON dynstat_salt_del2            =   8.4824023156258E-04
(PID.TID 0000.0001) %MON dynstat_sst_max              =   3.1438718467003E+01
(PID.TID 0000.0001) %MON dynstat_sst_min              =  -1.9907748492623E+00
(PID.TID 0000.0001) %MON dynstat_sst_mean             =   1.8410176920179E+01
(PID.TID 0000.0001) %MON dynstat_sst_sd               =   9.9968380029474E+00
(PID.TID 0000.0001) %MON dynstat_sst_del2             =   1.7315120664998E-02
(PID.TID 0000.0001) %MON dynstat_sss_max              =   4.1438838681393E+01
(PID.TID 0000.0001) %MON dynstat_sss_min              =   1.8418468372926E+01
(PID.TID 0000.0001) %MON dynstat_sss_mean             =   3.4620415885679E+01
(PID.TID 0000.0001) %MON dynstat_sss_sd               =   1.4547433971726E+00
(PID.TID 0000.0001) %MON dynstat_sss_del2             =   8.5355871260271E-03
(PID.TID 0000.0001) %MON forcing_qnet_max             =   3.2681350329793E+02
(PID.TID 0000.0001) %MON forcing_qnet_min             =  -1.8473802603583E+02
(PID.TID 0000.0001) %MON forcing_qnet_mean            =  -7.5996396021010E+00
(PID.TID 0000.0001) %MON forcing_qnet_sd              =   6.0332936086325E+01
(PID.TID 0000.0001) %MON forcing_qnet_del2            =   4.5525106103698E-01
(PID.TID 0000.0001) %MON forcing_qsw_max              =   0.0000000000000E+00
(PID.TID 0000.0001) %MON forcing_qsw_min              =   0.0000000000000E+00
(PID.TID 0000.0001) %MON forcing_qsw_mean             =   0.0000000000000E+00
(PID.TID 0000.0001) %MON forcing_qsw_sd               =   0.0000000000000E+00
(PID.TID 0000.0001) %MON forcing_qsw_del2             =   0.0000000000000E+00
(PID.TID 0000.0001) %MON forcing_empmr_max            =   7.6494447208479E-05
(PID.TID 0000.0001) %MON forcing_empmr_min            =  -1.5362614137596E-04
(PID.TID 0000.0001) %MON forcing_empmr_mean           =   4.1932798010144E-22
(PID.TID 0000.0001) %MON forcing_empmr_sd             =   2.4051723601802E-05
(PID.TID 0000.0001) %MON forcing_empmr_del2           =   1.2276157049243E-07
(PID.TID 0000.0001) %MON forcing_fu_max               =   2.5763214745217E-01
(PID.TID 0000.0001) %MON forcing_fu_min               =  -3.4615167880888E-01
(PID.TID 0000.0001) %MON forcing_fu_mean              =  -8.6044433803317E-03
(PID.TID 0000.0001) %MON forcing_fu_sd                =   7.0860853398791E-02
(PID.TID 0000.0001) %MON forcing_fu_del2              =   2.2996949129337E-04
(PID.TID 0000.0001) %MON forcing_fv_max               =   2.5944834729251E-01
(PID.TID 0000.0001) %MON forcing_fv_min               =  -3.3795949425166E-01
(PID.TID 0000.0001) %MON forcing_fv_mean              =  -1.2650273399686E-02
(PID.TID 0000.0001) %MON forcing_fv_sd                =   8.0588607433106E-02
(PID.TID 0000.0001) %MON forcing_fv_del2              =   2.6446853838876E-04
(PID.TID 0000.0001) %MON trAdv_CFL_u_max              =   7.1050184575219E-02
(PID.TID 0000.0001) %MON trAdv_CFL_v_max              =   8.0225176533369E-02
(PID.TID 0000.0001) %MON trAdv_CFL_w_max              =   7.0879575744016E-02
(PID.TID 0000.0001) %MON advcfl_uvel_max              =   7.5072473558605E-02
(PID.TID 0000.0001) %MON advcfl_vvel_max              =   7.5400551730549E-02
(PID.TID 0000.0001) %MON advcfl_wvel_max              =   6.4167611085200E-02
(PID.TID 0000.0001) %MON advcfl_W_hf_max              =   7.0879575744016E-02
(PID.TID 0000.0001) %MON pe_b_mean                    =   4.7914683681616E-04
(PID.TID 0000.0001) %MON ke_max                       =   3.4303280842176E-02
(PID.TID 0000.0001) %MON ke_mean                      =   1.3929184749415E-04
(PID.TID 0000.0001) %MON ke_vol                       =   1.3398024453628E+18
(PID.TID 0000.0001) %MON vort_r_min                   =  -1.3251470993306E-06
(PID.TID 0000.0001) %MON vort_r_max                   =   1.2368300779038E-06
(PID.TID 0000.0001) %MON vort_a_mean                  =  -2.0493733748264E-05
(PID.TID 0000.0001) %MON vort_a_sd                    =   7.5053954599407E-05
(PID.TID 0000.0001) %MON vort_p_mean                  =  -2.4715770780591E-05
(PID.TID 0000.0001) %MON vort_p_sd                    =   1.2777065423670E-04
(PID.TID 0000.0001) %MON surfExpan_theta_mean         =   5.9180943263763E-08
(PID.TID 0000.0001) %MON surfExpan_salt_mean          =   1.5570082593398E-08
(PID.TID 0000.0001) // =======================================================
(PID.TID 0000.0001) // End MONITOR dynamic field statistics
(PID.TID 0000.0001) // =======================================================
 DRIVER_GET_EXPORT_STATE_3D:MASK : Associated & shape =          32          32          15
  Finished plug run method 
 AGCM Date: 2000/04/15  Time: 16:00:00
 
 Writing:     40 Slices (  1 Nodes,  1 PartitionRoot) to File:  TEST.mit_ocn.20000415_1600z.nc4
 
  Starting plug run method 
 EXTERNAL_FIELDS_LOAD,     72076 : iP,iLd,i0,i1=    3    4    3    4 ; Wght=  0.9666666667  0.0333333333
 cg2d: Sum(rhs),rhsMax =  -2.30215846386272E-12  4.20863361903168E+00
(PID.TID 0000.0001)      cg2d_init_res =   2.99102468290743E-02
(PID.TID 0000.0001)      cg2d_iters(min,last) =      -1      85
(PID.TID 0000.0001)      cg2d_last_res =   9.00347564863708E-10
(PID.TID 0000.0001) // =======================================================
(PID.TID 0000.0001) // Begin MONITOR dynamic field statistics
(PID.TID 0000.0001) // =======================================================
(PID.TID 0000.0001) %MON time_tsnumber                =                 72077
(PID.TID 0000.0001) %MON time_secondsf                =   6.2274528000000E+09
(PID.TID 0000.0001) %MON dynstat_eta_max              =   8.8299038676985E-01
(PID.TID 0000.0001) %MON dynstat_eta_min              =  -1.6027743535725E+00
(PID.TID 0000.0001) %MON dynstat_eta_mean             =   1.4262679743539E-14
(PID.TID 0000.0001) %MON dynstat_eta_sd               =   5.9990303936468E-01
(PID.TID 0000.0001) %MON dynstat_eta_del2             =   8.1612681931918E-04
(PID.TID 0000.0001) %MON dynstat_uvel_max             =   1.9249115342704E-01
(PID.TID 0000.0001) %MON dynstat_uvel_min             =  -2.4905033100369E-01
(PID.TID 0000.0001) %MON dynstat_uvel_mean            =  -4.4655330442347E-04
(PID.TID 0000.0001) %MON dynstat_uvel_sd              =   1.1849377870328E-02
(PID.TID 0000.0001) %MON dynstat_uvel_del2            =   5.1808301170910E-05
(PID.TID 0000.0001) %MON dynstat_vvel_max             =   1.7305431788901E-01
(PID.TID 0000.0001) %MON dynstat_vvel_min             =  -2.2261276474838E-01
(PID.TID 0000.0001) %MON dynstat_vvel_mean            =  -3.6256299630946E-04
(PID.TID 0000.0001) %MON dynstat_vvel_sd              =   1.2685267232953E-02
(PID.TID 0000.0001) %MON dynstat_vvel_del2            =   5.0634199224623E-05
(PID.TID 0000.0001) %MON dynstat_wvel_max             =   1.0794370229519E-04
(PID.TID 0000.0001) %MON dynstat_wvel_min             =  -1.9656391020756E-04
(PID.TID 0000.0001) %MON dynstat_wvel_mean            =  -2.2912813759060E-10
(PID.TID 0000.0001) %MON dynstat_wvel_sd              =   3.5203580201413E-06
(PID.TID 0000.0001) %MON dynstat_wvel_del2            =   2.6709174212486E-08
(PID.TID 0000.0001) %MON dynstat_theta_max            =   3.1441461452043E+01
(PID.TID 0000.0001) %MON dynstat_theta_min            =  -4.1670199595752E+00
(PID.TID 0000.0001) %MON dynstat_theta_mean           =   3.9130996169302E+00
(PID.TID 0000.0001) %MON dynstat_theta_sd             =   4.5875318322430E+00
(PID.TID 0000.0001) %MON dynstat_theta_del2           =   2.8217945867938E-03
(PID.TID 0000.0001) %MON dynstat_salt_max             =   4.1439660160179E+01
(PID.TID 0000.0001) %MON dynstat_salt_min             =   1.8418440786210E+01
(PID.TID 0000.0001) %MON dynstat_salt_mean            =   3.4772136062972E+01
(PID.TID 0000.0001) %MON dynstat_salt_sd              =   5.3117631085380E-01
(PID.TID 0000.0001) %MON dynstat_salt_del2            =   8.4819206637763E-04
(PID.TID 0000.0001) %MON dynstat_sst_max              =   3.1441461452043E+01
(PID.TID 0000.0001) %MON dynstat_sst_min              =  -1.9905774870181E+00
(PID.TID 0000.0001) %MON dynstat_sst_mean             =   1.8409479654943E+01
(PID.TID 0000.0001) %MON dynstat_sst_sd               =   1.0004688011797E+01
(PID.TID 0000.0001) %MON dynstat_sst_del2             =   1.7286985081263E-02
(PID.TID 0000.0001) %MON dynstat_sss_max              =   4.1439660160179E+01
(PID.TID 0000.0001) %MON dynstat_sss_min              =   1.8418440786210E+01
(PID.TID 0000.0001) %MON dynstat_sss_mean             =   3.4620432185659E+01
(PID.TID 0000.0001) %MON dynstat_sss_sd               =   1.4546393205622E+00
(PID.TID 0000.0001) %MON dynstat_sss_del2             =   8.5352076704441E-03
(PID.TID 0000.0001) %MON forcing_qnet_max             =   3.2192078789803E+02
(PID.TID 0000.0001) %MON forcing_qnet_min             =  -1.8419329843260E+02
(PID.TID 0000.0001) %MON forcing_qnet_mean            =  -7.2139527035485E+00
(PID.TID 0000.0001) %MON forcing_qnet_sd              =   5.9498593057739E+01
(PID.TID 0000.0001) %MON forcing_qnet_del2            =   4.5222265913543E-01
(PID.TID 0000.0001) %MON forcing_qsw_max              =   0.0000000000000E+00
(PID.TID 0000.0001) %MON forcing_qsw_min              =   0.0000000000000E+00
(PID.TID 0000.0001) %MON forcing_qsw_mean             =   0.0000000000000E+00
(PID.TID 0000.0001) %MON forcing_qsw_sd               =   0.0000000000000E+00
(PID.TID 0000.0001) %MON forcing_qsw_del2             =   0.0000000000000E+00
(PID.TID 0000.0001) %MON forcing_empmr_max            =   7.6494447208479E-05
(PID.TID 0000.0001) %MON forcing_empmr_min            =  -1.5362614137596E-04
(PID.TID 0000.0001) %MON forcing_empmr_mean           =   0.0000000000000E+00
(PID.TID 0000.0001) %MON forcing_empmr_sd             =   2.4051723601802E-05
(PID.TID 0000.0001) %MON forcing_empmr_del2           =   1.2276157049243E-07
(PID.TID 0000.0001) %MON forcing_fu_max               =   2.5826097122533E-01
(PID.TID 0000.0001) %MON forcing_fu_min               =  -3.4372797448693E-01
(PID.TID 0000.0001) %MON forcing_fu_mean              =  -8.6044556818907E-03
(PID.TID 0000.0001) %MON forcing_fu_sd                =   7.0795731066648E-02
(PID.TID 0000.0001) %MON forcing_fu_del2              =   2.2651500499861E-04
(PID.TID 0000.0001) %MON forcing_fv_max               =   2.5104870783483E-01
(PID.TID 0000.0001) %MON forcing_fv_min               =  -3.3699272536324E-01
(PID.TID 0000.0001) %MON forcing_fv_mean              =  -1.2662937762613E-02
(PID.TID 0000.0001) %MON forcing_fv_sd                =   8.0025827069548E-02
(PID.TID 0000.0001) %MON forcing_fv_del2              =   2.5983322468194E-04
(PID.TID 0000.0001) %MON trAdv_CFL_u_max              =   7.0986832070278E-02
(PID.TID 0000.0001) %MON trAdv_CFL_v_max              =   8.0258584374372E-02
(PID.TID 0000.0001) %MON trAdv_CFL_w_max              =   7.0790839590247E-02
(PID.TID 0000.0001) %MON advcfl_uvel_max              =   7.5263597281067E-02
(PID.TID 0000.0001) %MON advcfl_vvel_max              =   7.5431939141523E-02
(PID.TID 0000.0001) %MON advcfl_wvel_max              =   6.4087252233711E-02
(PID.TID 0000.0001) %MON advcfl_W_hf_max              =   7.0790839590246E-02
(PID.TID 0000.0001) %MON pe_b_mean                    =   4.7943153573601E-04
(PID.TID 0000.0001) %MON ke_max                       =   3.4260714830419E-02
(PID.TID 0000.0001) %MON ke_mean                      =   1.3931069494512E-04
(PID.TID 0000.0001) %MON ke_vol                       =   1.3398024453628E+18
(PID.TID 0000.0001) %MON vort_r_min                   =  -1.3242712008639E-06
(PID.TID 0000.0001) %MON vort_r_max                   =   1.2438105757348E-06
(PID.TID 0000.0001) %MON vort_a_mean                  =  -2.0493733748264E-05
(PID.TID 0000.0001) %MON vort_a_sd                    =   7.5053954775596E-05
(PID.TID 0000.0001) %MON vort_p_mean                  =  -2.4715770726617E-05
(PID.TID 0000.0001) %MON vort_p_sd                    =   1.2777066222828E-04
(PID.TID 0000.0001) %MON surfExpan_theta_mean         =   5.8552814023176E-08
(PID.TID 0000.0001) %MON surfExpan_salt_mean          =   1.5533307996277E-08
(PID.TID 0000.0001) // =======================================================
(PID.TID 0000.0001) // End MONITOR dynamic field statistics
(PID.TID 0000.0001) // =======================================================
 DRIVER_GET_EXPORT_STATE_3D:MASK : Associated & shape =          32          32          15
  Finished plug run method 
 AGCM Date: 2000/04/15  Time: 16:15:00
  Starting plug run method 
 EXTERNAL_FIELDS_LOAD,     72077 : iP,iLd,i0,i1=    3    4    3    4 ; Wght=  0.9333333333  0.0666666667
 cg2d: Sum(rhs),rhsMax =  -2.28084218178992E-12  4.20882508248203E+00
(PID.TID 0000.0001)      cg2d_init_res =   2.97790406171022E-02
(PID.TID 0000.0001)      cg2d_iters(min,last) =      -1      85
(PID.TID 0000.0001)      cg2d_last_res =   9.24994459379777E-10
(PID.TID 0000.0001) // =======================================================
(PID.TID 0000.0001) // Begin MONITOR dynamic field statistics
(PID.TID 0000.0001) // =======================================================
(PID.TID 0000.0001) %MON time_tsnumber                =                 72078
(PID.TID 0000.0001) %MON time_secondsf                =   6.2275392000000E+09
(PID.TID 0000.0001) %MON dynstat_eta_max              =   8.8361782283527E-01
(PID.TID 0000.0001) %MON dynstat_eta_min              =  -1.6029723603275E+00
(PID.TID 0000.0001) %MON dynstat_eta_mean             =   1.4482528371570E-14
(PID.TID 0000.0001) %MON dynstat_eta_sd               =   6.0006410238175E-01
(PID.TID 0000.0001) %MON dynstat_eta_del2             =   8.1625647714659E-04
(PID.TID 0000.0001) %MON dynstat_uvel_max             =   1.9283206952929E-01
(PID.TID 0000.0001) %MON dynstat_uvel_min             =  -2.4882422894529E-01
(PID.TID 0000.0001) %MON dynstat_uvel_mean            =  -4.4594399682487E-04
(PID.TID 0000.0001) %MON dynstat_uvel_sd              =   1.1850458653607E-02
(PID.TID 0000.0001) %MON dynstat_uvel_del2            =   5.1817063298536E-05
(PID.TID 0000.0001) %MON dynstat_vvel_max             =   1.7309640840287E-01
(PID.TID 0000.0001) %MON dynstat_vvel_min             =  -2.2254373428072E-01
(PID.TID 0000.0001) %MON dynstat_vvel_mean            =  -3.6152704272636E-04
(PID.TID 0000.0001) %MON dynstat_vvel_sd              =   1.2685310350097E-02
(PID.TID 0000.0001) %MON dynstat_vvel_del2            =   5.0638325602737E-05
(PID.TID 0000.0001) %MON dynstat_wvel_max             =   1.0768618889190E-04
(PID.TID 0000.0001) %MON dynstat_wvel_min             =  -1.9633261834500E-04
(PID.TID 0000.0001) %MON dynstat_wvel_mean            =  -1.9955254849508E-10
(PID.TID 0000.0001) %MON dynstat_wvel_sd              =   3.5182015258570E-06
(PID.TID 0000.0001) %MON dynstat_wvel_del2            =   2.6720912120396E-08
(PID.TID 0000.0001) %MON dynstat_theta_max            =   3.1442977179192E+01
(PID.TID 0000.0001) %MON dynstat_theta_min            =  -4.1647833757708E+00
(PID.TID 0000.0001) %MON dynstat_theta_mean           =   3.9131128748804E+00
(PID.TID 0000.0001) %MON dynstat_theta_sd             =   4.5877613381383E+00
(PID.TID 0000.0001) %MON dynstat_theta_del2           =   2.8213435378917E-03
(PID.TID 0000.0001) %MON dynstat_salt_max             =   4.1440376620850E+01
(PID.TID 0000.0001) %MON dynstat_salt_min             =   1.8418428558556E+01
(PID.TID 0000.0001) %MON dynstat_salt_mean            =   3.4772137178386E+01
(PID.TID 0000.0001) %MON dynstat_salt_sd              =   5.3117189069407E-01
(PID.TID 0000.0001) %MON dynstat_salt_del2            =   8.4818311706167E-04
(PID.TID 0000.0001) %MON dynstat_sst_max              =   3.1442977179192E+01
(PID.TID 0000.0001) %MON dynstat_sst_min              =  -1.9903701678335E+00
(PID.TID 0000.0001) %MON dynstat_sst_mean             =   1.8408525435840E+01
(PID.TID 0000.0001) %MON dynstat_sst_sd               =   1.0012491603767E+01
(PID.TID 0000.0001) %MON dynstat_sst_del2             =   1.7261008927476E-02
(PID.TID 0000.0001) %MON dynstat_sss_max              =   4.1440376620850E+01
(PID.TID 0000.0001) %MON dynstat_sss_min              =   1.8418428558556E+01
(PID.TID 0000.0001) %MON dynstat_sss_mean             =   3.4620452151871E+01
(PID.TID 0000.0001) %MON dynstat_sss_sd               =   1.4545429294346E+00
(PID.TID 0000.0001) %MON dynstat_sss_del2             =   8.5356261320438E-03
(PID.TID 0000.0001) %MON forcing_qnet_max             =   3.1702807249813E+02
(PID.TID 0000.0001) %MON forcing_qnet_min             =  -1.8364857082938E+02
(PID.TID 0000.0001) %MON forcing_qnet_mean            =  -6.8282658049960E+00
(PID.TID 0000.0001) %MON forcing_qnet_sd              =   5.8715778443579E+01
(PID.TID 0000.0001) %MON forcing_qnet_del2            =   4.4930018725582E-01
(PID.TID 0000.0001) %MON forcing_qsw_max              =   0.0000000000000E+00
(PID.TID 0000.0001) %MON forcing_qsw_min              =   0.0000000000000E+00
(PID.TID 0000.0001) %MON forcing_qsw_mean             =   0.0000000000000E+00
(PID.TID 0000.0001) %MON forcing_qsw_sd               =   0.0000000000000E+00
(PID.TID 0000.0001) %MON forcing_qsw_del2             =   0.0000000000000E+00
(PID.TID 0000.0001) %MON forcing_empmr_max            =   7.6494447208479E-05
(PID.TID 0000.0001) %MON forcing_empmr_min            =  -1.5362614137596E-04
(PID.TID 0000.0001) %MON forcing_empmr_mean           =   8.3865596020288E-22
(PID.TID 0000.0001) %MON forcing_empmr_sd             =   2.4051723601802E-05
(PID.TID 0000.0001) %MON forcing_empmr_del2           =   1.2276157049243E-07
(PID.TID 0000.0001) %MON forcing_fu_max               =   2.5888979499848E-01
(PID.TID 0000.0001) %MON forcing_fu_min               =  -3.4130427016498E-01
(PID.TID 0000.0001) %MON forcing_fu_mean              =  -8.6044679834497E-03
(PID.TID 0000.0001) %MON forcing_fu_sd                =   7.0749015214197E-02
(PID.TID 0000.0001) %MON forcing_fu_del2              =   2.2326651143587E-04
(PID.TID 0000.0001) %MON forcing_fv_max               =   2.4264906837714E-01
(PID.TID 0000.0001) %MON forcing_fv_min               =  -3.3602595647482E-01
(PID.TID 0000.0001) %MON forcing_fv_mean              =  -1.2675602125540E-02
(PID.TID 0000.0001) %MON forcing_fv_sd                =   7.9484751291291E-02
(PID.TID 0000.0001) %MON forcing_fv_del2              =   2.5540216888558E-04
(PID.TID 0000.0001) %MON trAdv_CFL_u_max              =   7.0922386233173E-02
(PID.TID 0000.0001) %MON trAdv_CFL_v_max              =   8.0278116411728E-02
(PID.TID 0000.0001) %MON trAdv_CFL_w_max              =   7.0707565501542E-02
(PID.TID 0000.0001) %MON advcfl_uvel_max              =   7.5435148267493E-02
(PID.TID 0000.0001) %MON advcfl_vvel_max              =   7.5450285803536E-02
(PID.TID 0000.0001) %MON advcfl_wvel_max              =   6.4011842358522E-02
(PID.TID 0000.0001) %MON advcfl_W_hf_max              =   7.0707565501542E-02
(PID.TID 0000.0001) %MON pe_b_mean                    =   4.7968900752881E-04
(PID.TID 0000.0001) %MON ke_max                       =   3.4217479078815E-02
(PID.TID 0000.0001) %MON ke_mean                      =   1.3932236857341E-04
(PID.TID 0000.0001) %MON ke_vol                       =   1.3398024453628E+18
(PID.TID 0000.0001) %MON vort_r_min                   =  -1.3234505462091E-06
(PID.TID 0000.0001) %MON vort_r_max                   =   1.2510504082121E-06
(PID.TID 0000.0001) %MON vort_a_mean                  =  -2.0493733748264E-05
(PID.TID 0000.0001) %MON vort_a_sd                    =   7.5053954945032E-05
(PID.TID 0000.0001) %MON vort_p_mean                  =  -2.4715770679418E-05
(PID.TID 0000.0001) %MON vort_p_sd                    =   1.2777066946721E-04
(PID.TID 0000.0001) %MON surfExpan_theta_mean         =   5.7928028037086E-08
(PID.TID 0000.0001) %MON surfExpan_salt_mean          =   1.5491536909594E-08
(PID.TID 0000.0001) // =======================================================
(PID.TID 0000.0001) // End MONITOR dynamic field statistics
(PID.TID 0000.0001) // =======================================================
 DRIVER_GET_EXPORT_STATE_3D:MASK : Associated & shape =          32          32          15
  Finished plug run method 
 AGCM Date: 2000/04/15  Time: 16:30:00
  Starting plug run method 
 EXTERNAL_FIELDS_LOAD,     72078 : iP,iLd,i0,i1=    3    4    3    4 ; Wght=  0.9000000000  0.1000000000
 cg2d: Sum(rhs),rhsMax =  -2.23110419028671E-12  4.20887134152155E+00
(PID.TID 0000.0001)      cg2d_init_res =   2.94439982690390E-02
(PID.TID 0000.0001)      cg2d_iters(min,last) =      -1      85
(PID.TID 0000.0001)      cg2d_last_res =   9.29853929137742E-10
(PID.TID 0000.0001) // =======================================================
(PID.TID 0000.0001) // Begin MONITOR dynamic field statistics
(PID.TID 0000.0001) // =======================================================
(PID.TID 0000.0001) %MON time_tsnumber                =                 72079
(PID.TID 0000.0001) %MON time_secondsf                =   6.2276256000000E+09
(PID.TID 0000.0001) %MON dynstat_eta_max              =   8.8423754102518E-01
(PID.TID 0000.0001) %MON dynstat_eta_min              =  -1.6031557102255E+00
(PID.TID 0000.0001) %MON dynstat_eta_mean             =   1.4015350037003E-14
(PID.TID 0000.0001) %MON dynstat_eta_sd               =   6.0020769162956E-01
(PID.TID 0000.0001) %MON dynstat_eta_del2             =   8.1636608238555E-04
(PID.TID 0000.0001) %MON dynstat_uvel_max             =   1.9314968514323E-01
(PID.TID 0000.0001) %MON dynstat_uvel_min             =  -2.4859418413409E-01
(PID.TID 0000.0001) %MON dynstat_uvel_mean            =  -4.4533115826131E-04
(PID.TID 0000.0001) %MON dynstat_uvel_sd              =   1.1851689196836E-02
(PID.TID 0000.0001) %MON dynstat_uvel_del2            =   5.1824700739672E-05
(PID.TID 0000.0001) %MON dynstat_vvel_max             =   1.7310771793289E-01
(PID.TID 0000.0001) %MON dynstat_vvel_min             =  -2.2246901817602E-01
(PID.TID 0000.0001) %MON dynstat_vvel_mean            =  -3.6046969824228E-04
(PID.TID 0000.0001) %MON dynstat_vvel_sd              =   1.2684586434588E-02
(PID.TID 0000.0001) %MON dynstat_vvel_del2            =   5.0640499663311E-05
(PID.TID 0000.0001) %MON dynstat_wvel_max             =   1.0741030845043E-04
(PID.TID 0000.0001) %MON dynstat_wvel_min             =  -1.9611816934499E-04
(PID.TID 0000.0001) %MON dynstat_wvel_mean            =  -1.5958286042487E-10
(PID.TID 0000.0001) %MON dynstat_wvel_sd              =   3.5163994165525E-06
(PID.TID 0000.0001) %MON dynstat_wvel_del2            =   2.6732706900225E-08
(PID.TID 0000.0001) %MON dynstat_theta_max            =   3.1443254032158E+01
(PID.TID 0000.0001) %MON dynstat_theta_min            =  -4.1618813878628E+00
(PID.TID 0000.0001) %MON dynstat_theta_mean           =   3.9131238413273E+00
(PID.TID 0000.0001) %MON dynstat_theta_sd             =   4.5879809313649E+00
(PID.TID 0000.0001) %MON dynstat_theta_del2           =   2.8207079550353E-03
(PID.TID 0000.0001) %MON dynstat_salt_max             =   4.1440989239539E+01
(PID.TID 0000.0001) %MON dynstat_salt_min             =   1.8418431793766E+01
(PID.TID 0000.0001) %MON dynstat_salt_mean            =   3.4772138304571E+01
(PID.TID 0000.0001) %MON dynstat_salt_sd              =   5.3116745222079E-01
(PID.TID 0000.0001) %MON dynstat_salt_del2            =   8.4812989406412E-04
(PID.TID 0000.0001) %MON dynstat_sst_max              =   3.1443254032158E+01
(PID.TID 0000.0001) %MON dynstat_sst_min              =  -1.9901634912455E+00
(PID.TID 0000.0001) %MON dynstat_sst_mean             =   1.8407299607962E+01
(PID.TID 0000.0001) %MON dynstat_sst_sd               =   1.0020263773605E+01
(PID.TID 0000.0001) %MON dynstat_sst_del2             =   1.7226202288019E-02
(PID.TID 0000.0001) %MON dynstat_sss_max              =   4.1440989239539E+01
(PID.TID 0000.0001) %MON dynstat_sss_min              =   1.8418431793766E+01
(PID.TID 0000.0001) %MON dynstat_sss_mean             =   3.4620468945622E+01
(PID.TID 0000.0001) %MON dynstat_sss_sd               =   1.4544464710929E+00
(PID.TID 0000.0001) %MON dynstat_sss_del2             =   8.5352998066547E-03
(PID.TID 0000.0001) %MON forcing_qnet_max             =   3.1213535709823E+02
(PID.TID 0000.0001) %MON forcing_qnet_min             =  -1.8310384322615E+02
(PID.TID 0000.0001) %MON forcing_qnet_mean            =  -6.4425789064435E+00
(PID.TID 0000.0001) %MON forcing_qnet_sd              =   5.7986579170974E+01
(PID.TID 0000.0001) %MON forcing_qnet_del2            =   4.4648572549755E-01
(PID.TID 0000.0001) %MON forcing_qsw_max              =   0.0000000000000E+00
(PID.TID 0000.0001) %MON forcing_qsw_min              =   0.0000000000000E+00
(PID.TID 0000.0001) %MON forcing_qsw_mean             =   0.0000000000000E+00
(PID.TID 0000.0001) %MON forcing_qsw_sd               =   0.0000000000000E+00
(PID.TID 0000.0001) %MON forcing_qsw_del2             =   0.0000000000000E+00
(PID.TID 0000.0001) %MON forcing_empmr_max            =   7.6494447208479E-05
(PID.TID 0000.0001) %MON forcing_empmr_min            =  -1.5362614137596E-04
(PID.TID 0000.0001) %MON forcing_empmr_mean           =   0.0000000000000E+00
(PID.TID 0000.0001) %MON forcing_empmr_sd             =   2.4051723601802E-05
(PID.TID 0000.0001) %MON forcing_empmr_del2           =   1.2276157049243E-07
(PID.TID 0000.0001) %MON forcing_fu_max               =   2.5951861877164E-01
(PID.TID 0000.0001) %MON forcing_fu_min               =  -3.3895507593183E-01
(PID.TID 0000.0001) %MON forcing_fu_mean              =  -8.6044802850088E-03
(PID.TID 0000.0001) %MON forcing_fu_sd                =   7.0720742317637E-02
(PID.TID 0000.0001) %MON forcing_fu_del2              =   2.2023312612637E-04
(PID.TID 0000.0001) %MON forcing_fv_max               =   2.3568944674356E-01
(PID.TID 0000.0001) %MON forcing_fv_min               =  -3.3505918758639E-01
(PID.TID 0000.0001) %MON forcing_fv_mean              =  -1.2688266488467E-02
(PID.TID 0000.0001) %MON forcing_fv_sd                =   7.8965826260649E-02
(PID.TID 0000.0001) %MON forcing_fv_del2              =   2.5118618088185E-04
(PID.TID 0000.0001) %MON trAdv_CFL_u_max              =   7.0856816639159E-02
(PID.TID 0000.0001) %MON trAdv_CFL_v_max              =   8.0283373634495E-02
(PID.TID 0000.0001) %MON trAdv_CFL_w_max              =   7.0630356918134E-02
(PID.TID 0000.0001) %MON advcfl_uvel_max              =   7.5587097260850E-02
(PID.TID 0000.0001) %MON advcfl_vvel_max              =   7.5455215468339E-02
(PID.TID 0000.0001) %MON advcfl_wvel_max              =   6.3941923892103E-02
(PID.TID 0000.0001) %MON advcfl_W_hf_max              =   7.0630356918134E-02
(PID.TID 0000.0001) %MON pe_b_mean                    =   4.7991860441496E-04
(PID.TID 0000.0001) %MON ke_max                       =   3.4173508330246E-02
(PID.TID 0000.0001) %MON ke_mean                      =   1.3932663847413E-04
(PID.TID 0000.0001) %MON ke_vol                       =   1.3398024453628E+18
(PID.TID 0000.0001) %MON vort_r_min                   =  -1.3226827312830E-06
(PID.TID 0000.0001) %MON vort_r_max                   =   1.2585067869830E-06
(PID.TID 0000.0001) %MON vort_a_mean                  =  -2.0493733748264E-05
(PID.TID 0000.0001) %MON vort_a_sd                    =   7.5053955111454E-05
(PID.TID 0000.0001) %MON vort_p_mean                  =  -2.4715770639196E-05
(PID.TID 0000.0001) %MON vort_p_sd                    =   1.2777067583836E-04
(PID.TID 0000.0001) %MON surfExpan_theta_mean         =   5.7408851025249E-08
(PID.TID 0000.0001) %MON surfExpan_salt_mean          =   1.5450287775187E-08
(PID.TID 0000.0001) // =======================================================
(PID.TID 0000.0001) // End MONITOR dynamic field statistics
(PID.TID 0000.0001) // =======================================================
 DRIVER_GET_EXPORT_STATE_3D:MASK : Associated & shape =          32          32          15
  Finished plug run method 
 AGCM Date: 2000/04/15  Time: 16:45:00
  Starting plug run method 
 EXTERNAL_FIELDS_LOAD,     72079 : iP,iLd,i0,i1=    3    4    3    4 ; Wght=  0.8666666667  0.1333333333
 cg2d: Sum(rhs),rhsMax =  -2.37321273743873E-12  4.20878890081879E+00
(PID.TID 0000.0001)      cg2d_init_res =   2.92246745741351E-02
(PID.TID 0000.0001)      cg2d_iters(min,last) =      -1      85
(PID.TID 0000.0001)      cg2d_last_res =   9.36781505541376E-10
(PID.TID 0000.0001) // =======================================================
(PID.TID 0000.0001) // Begin MONITOR dynamic field statistics
(PID.TID 0000.0001) // =======================================================
(PID.TID 0000.0001) %MON time_tsnumber                =                 72080
(PID.TID 0000.0001) %MON time_secondsf                =   6.2277120000000E+09
(PID.TID 0000.0001) %MON dynstat_eta_max              =   8.8484115583113E-01
(PID.TID 0000.0001) %MON dynstat_eta_min              =  -1.6033342025406E+00
(PID.TID 0000.0001) %MON dynstat_eta_mean             =   1.4097793272515E-14
(PID.TID 0000.0001) %MON dynstat_eta_sd               =   6.0033348504292E-01
(PID.TID 0000.0001) %MON dynstat_eta_del2             =   8.1646911785294E-04
(PID.TID 0000.0001) %MON dynstat_uvel_max             =   1.9344417453000E-01
(PID.TID 0000.0001) %MON dynstat_uvel_min             =  -2.4836012399464E-01
(PID.TID 0000.0001) %MON dynstat_uvel_mean            =  -4.4472478398067E-04
(PID.TID 0000.0001) %MON dynstat_uvel_sd              =   1.1852967972641E-02
(PID.TID 0000.0001) %MON dynstat_uvel_del2            =   5.1830963524350E-05
(PID.TID 0000.0001) %MON dynstat_vvel_max             =   1.7308760413356E-01
(PID.TID 0000.0001) %MON dynstat_vvel_min             =  -2.2238884483045E-01
(PID.TID 0000.0001) %MON dynstat_vvel_mean            =  -3.5939089629224E-04
(PID.TID 0000.0001) %MON dynstat_vvel_sd              =   1.2683156518522E-02
(PID.TID 0000.0001) %MON dynstat_vvel_del2            =   5.0640753335891E-05
(PID.TID 0000.0001) %MON dynstat_wvel_max             =   1.0712223784874E-04
(PID.TID 0000.0001) %MON dynstat_wvel_min             =  -1.9592112177366E-04
(PID.TID 0000.0001) %MON dynstat_wvel_mean            =  -1.1411545610119E-10
(PID.TID 0000.0001) %MON dynstat_wvel_sd              =   3.5149262193835E-06
(PID.TID 0000.0001) %MON dynstat_wvel_del2            =   2.6744401066488E-08
(PID.TID 0000.0001) %MON dynstat_theta_max            =   3.1442281699095E+01
(PID.TID 0000.0001) %MON dynstat_theta_min            =  -4.1583214774886E+00
(PID.TID 0000.0001) %MON dynstat_theta_mean           =   3.9131325674679E+00
(PID.TID 0000.0001) %MON dynstat_theta_sd             =   4.5881908586716E+00
(PID.TID 0000.0001) %MON dynstat_theta_del2           =   2.8199638233468E-03
(PID.TID 0000.0001) %MON dynstat_salt_max             =   4.1441498304303E+01
(PID.TID 0000.0001) %MON dynstat_salt_min             =   1.8418450569541E+01
(PID.TID 0000.0001) %MON dynstat_salt_mean            =   3.4772139441142E+01
(PID.TID 0000.0001) %MON dynstat_salt_sd              =   5.3116298593041E-01
(PID.TID 0000.0001) %MON dynstat_salt_del2            =   8.4809608902130E-04
(PID.TID 0000.0001) %MON dynstat_sst_max              =   3.1442281699095E+01
(PID.TID 0000.0001) %MON dynstat_sst_min              =  -1.9899578197716E+00
(PID.TID 0000.0001) %MON dynstat_sst_mean             =   1.8405805463625E+01
(PID.TID 0000.0001) %MON dynstat_sst_sd               =   1.0028011823051E+01
(PID.TID 0000.0001) %MON dynstat_sst_del2             =   1.7189957652678E-02
(PID.TID 0000.0001) %MON dynstat_sss_max              =   4.1441498304303E+01
(PID.TID 0000.0001) %MON dynstat_sss_min              =   1.8418450569541E+01
(PID.TID 0000.0001) %MON dynstat_sss_mean             =   3.4620482093384E+01
(PID.TID 0000.0001) %MON dynstat_sss_sd               =   1.4543475133028E+00
(PID.TID 0000.0001) %MON dynstat_sss_del2             =   8.5352270696239E-03
(PID.TID 0000.0001) %MON forcing_qnet_max             =   3.0724264169833E+02
(PID.TID 0000.0001) %MON forcing_qnet_min             =  -1.8255911562293E+02
(PID.TID 0000.0001) %MON forcing_qnet_mean            =  -6.0568920078910E+00
(PID.TID 0000.0001) %MON forcing_qnet_sd              =   5.7313041735706E+01
(PID.TID 0000.0001) %MON forcing_qnet_del2            =   4.4378132886637E-01
(PID.TID 0000.0001) %MON forcing_qsw_max              =   0.0000000000000E+00
(PID.TID 0000.0001) %MON forcing_qsw_min              =   0.0000000000000E+00
(PID.TID 0000.0001) %MON forcing_qsw_mean             =   0.0000000000000E+00
(PID.TID 0000.0001) %MON forcing_qsw_sd               =   0.0000000000000E+00
(PID.TID 0000.0001) %MON forcing_qsw_del2             =   0.0000000000000E+00
(PID.TID 0000.0001) %MON forcing_empmr_max            =   7.6494447208479E-05
(PID.TID 0000.0001) %MON forcing_empmr_min            =  -1.5362614137596E-04
(PID.TID 0000.0001) %MON forcing_empmr_mean           =  -4.1932798010144E-22
(PID.TID 0000.0001) %MON forcing_empmr_sd             =   2.4051723601802E-05
(PID.TID 0000.0001) %MON forcing_empmr_del2           =   1.2276157049243E-07
(PID.TID 0000.0001) %MON forcing_fu_max               =   2.6014744254479E-01
(PID.TID 0000.0001) %MON forcing_fu_min               =  -3.3680429159616E-01
(PID.TID 0000.0001) %MON forcing_fu_mean              =  -8.6044925865678E-03
(PID.TID 0000.0001) %MON forcing_fu_sd                =   7.0710934499538E-02
(PID.TID 0000.0001) %MON forcing_fu_del2              =   2.1742385249432E-04
(PID.TID 0000.0001) %MON forcing_fv_max               =   2.2887950063899E-01
(PID.TID 0000.0001) %MON forcing_fv_min               =  -3.3409241869797E-01
(PID.TID 0000.0001) %MON forcing_fv_mean              =  -1.2700930851394E-02
(PID.TID 0000.0001) %MON forcing_fv_sd                =   7.8469491432855E-02
(PID.TID 0000.0001) %MON forcing_fv_del2              =   2.4719626500470E-04
(PID.TID 0000.0001) %MON trAdv_CFL_u_max              =   7.0790102600793E-02
(PID.TID 0000.0001) %MON trAdv_CFL_v_max              =   8.0274057700179E-02
(PID.TID 0000.0001) %MON trAdv_CFL_w_max              =   7.0559414251632E-02
(PID.TID 0000.0001) %MON advcfl_uvel_max              =   7.5719893272478E-02
(PID.TID 0000.0001) %MON advcfl_vvel_max              =   7.5446448146576E-02
(PID.TID 0000.0001) %MON advcfl_wvel_max              =   6.3877678948091E-02
(PID.TID 0000.0001) %MON advcfl_W_hf_max              =   7.0559414251632E-02
(PID.TID 0000.0001) %MON pe_b_mean                    =   4.8011979119266E-04
(PID.TID 0000.0001) %MON ke_max                       =   3.4128749615384E-02
(PID.TID 0000.0001) %MON ke_mean                      =   1.3932312344277E-04
(PID.TID 0000.0001) %MON ke_vol                       =   1.3398024453628E+18
(PID.TID 0000.0001) %MON vort_r_min                   =  -1.3219666780650E-06
(PID.TID 0000.0001) %MON vort_r_max                   =   1.2661289408175E-06
(PID.TID 0000.0001) %MON vort_a_mean                  =  -2.0493733748264E-05
(PID.TID 0000.0001) %MON vort_a_sd                    =   7.5053955275478E-05
(PID.TID 0000.0001) %MON vort_p_mean                  =  -2.4715770608126E-05
(PID.TID 0000.0001) %MON vort_p_sd                    =   1.2777068126418E-04
(PID.TID 0000.0001) %MON surfExpan_theta_mean         =   5.7018034728777E-08
(PID.TID 0000.0001) %MON surfExpan_salt_mean          =   1.5421556112130E-08
(PID.TID 0000.0001) // =======================================================
(PID.TID 0000.0001) // End MONITOR dynamic field statistics
(PID.TID 0000.0001) // =======================================================
(PID.TID 0000.0001) %CHECKPOINT     72080 0000072080
 DRIVER_GET_EXPORT_STATE_3D:MASK : Associated & shape =          32          32          15
  Finished plug run method 
 AGCM Date: 2000/04/15  Time: 17:00:00
 
 Writing:     40 Slices (  1 Nodes,  1 PartitionRoot) to File:  TEST.mit_ocn.20000415_1700z.nc4
 
  Starting plug run method 
 EXTERNAL_FIELDS_LOAD,     72080 : iP,iLd,i0,i1=    3    4    3    4 ; Wght=  0.8333333333  0.1666666667
 cg2d: Sum(rhs),rhsMax =  -2.24531504500192E-12  4.20858756372376E+00
(PID.TID 0000.0001)      cg2d_init_res =   2.90042885209450E-02
(PID.TID 0000.0001)      cg2d_iters(min,last) =      -1      85
(PID.TID 0000.0001)      cg2d_last_res =   9.47444504154070E-10
(PID.TID 0000.0001) // =======================================================
(PID.TID 0000.0001) // Begin MONITOR dynamic field statistics
(PID.TID 0000.0001) // =======================================================
(PID.TID 0000.0001) %MON time_tsnumber                =                 72081
(PID.TID 0000.0001) %MON time_secondsf                =   6.2277984000000E+09
(PID.TID 0000.0001) %MON dynstat_eta_max              =   8.8542112453099E-01
(PID.TID 0000.0001) %MON dynstat_eta_min              =  -1.6035104689389E+00
(PID.TID 0000.0001) %MON dynstat_eta_mean             =   1.4427566214562E-14
(PID.TID 0000.0001) %MON dynstat_eta_sd               =   6.0044133852728E-01
(PID.TID 0000.0001) %MON dynstat_eta_del2             =   8.1656536757140E-04
(PID.TID 0000.0001) %MON dynstat_uvel_max             =   1.9371584428229E-01
(PID.TID 0000.0001) %MON dynstat_uvel_min             =  -2.4812201627472E-01
(PID.TID 0000.0001) %MON dynstat_uvel_mean            =  -4.4413492643467E-04
(PID.TID 0000.0001) %MON dynstat_uvel_sd              =   1.1854202280203E-02
(PID.TID 0000.0001) %MON dynstat_uvel_del2            =   5.1835629370903E-05
(PID.TID 0000.0001) %MON dynstat_vvel_max             =   1.7303564444012E-01
(PID.TID 0000.0001) %MON dynstat_vvel_min             =  -2.2230343552725E-01
(PID.TID 0000.0001) %MON dynstat_vvel_mean            =  -3.5829653865806E-04
(PID.TID 0000.0001) %MON dynstat_vvel_sd              =   1.2681091442607E-02
(PID.TID 0000.0001) %MON dynstat_vvel_del2            =   5.0639182304277E-05
(PID.TID 0000.0001) %MON dynstat_wvel_max             =   1.0682848627518E-04
(PID.TID 0000.0001) %MON dynstat_wvel_min             =  -1.9574182552902E-04
(PID.TID 0000.0001) %MON dynstat_wvel_mean            =  -6.8479252814455E-11
(PID.TID 0000.0001) %MON dynstat_wvel_sd              =   3.5137506773227E-06
(PID.TID 0000.0001) %MON dynstat_wvel_del2            =   2.6755802853311E-08
(PID.TID 0000.0001) %MON dynstat_theta_max            =   3.1440051210796E+01
(PID.TID 0000.0001) %MON dynstat_theta_min            =  -4.1541133614031E+00
(PID.TID 0000.0001) %MON dynstat_theta_mean           =   3.9131391421369E+00
(PID.TID 0000.0001) %MON dynstat_theta_sd             =   4.5883913621045E+00
(PID.TID 0000.0001) %MON dynstat_theta_del2           =   2.8192086181175E-03
(PID.TID 0000.0001) %MON dynstat_salt_max             =   4.1441903342517E+01
(PID.TID 0000.0001) %MON dynstat_salt_min             =   1.8418484977333E+01
(PID.TID 0000.0001) %MON dynstat_salt_mean            =   3.4772140587777E+01
(PID.TID 0000.0001) %MON dynstat_salt_sd              =   5.3115851726682E-01
(PID.TID 0000.0001) %MON dynstat_salt_del2            =   8.4809471024815E-04
(PID.TID 0000.0001) %MON dynstat_sst_max              =   3.1440051210796E+01
(PID.TID 0000.0001) %MON dynstat_sst_min              =  -1.9897535799778E+00
(PID.TID 0000.0001) %MON dynstat_sst_mean             =   1.8404090753092E+01
(PID.TID 0000.0001) %MON dynstat_sst_sd               =   1.0035712573036E+01
(PID.TID 0000.0001) %MON dynstat_sst_del2             =   1.7153711608264E-02
(PID.TID 0000.0001) %MON dynstat_sss_max              =   4.1441903342517E+01
(PID.TID 0000.0001) %MON dynstat_sss_min              =   1.8418484977333E+01
(PID.TID 0000.0001) %MON dynstat_sss_mean             =   3.4620501439967E+01
(PID.TID 0000.0001) %MON dynstat_sss_sd               =   1.4542613104605E+00
(PID.TID 0000.0001) %MON dynstat_sss_del2             =   8.5357294480561E-03
(PID.TID 0000.0001) %MON forcing_qnet_max             =   3.0234992629844E+02
(PID.TID 0000.0001) %MON forcing_qnet_min             =  -1.8201438801970E+02
(PID.TID 0000.0001) %MON forcing_qnet_mean            =  -5.6712051093385E+00
(PID.TID 0000.0001) %MON forcing_qnet_sd              =   5.6697149887600E+01
(PID.TID 0000.0001) %MON forcing_qnet_del2            =   4.4118902139570E-01
(PID.TID 0000.0001) %MON forcing_qsw_max              =   0.0000000000000E+00
(PID.TID 0000.0001) %MON forcing_qsw_min              =   0.0000000000000E+00
(PID.TID 0000.0001) %MON forcing_qsw_mean             =   0.0000000000000E+00
(PID.TID 0000.0001) %MON forcing_qsw_sd               =   0.0000000000000E+00
(PID.TID 0000.0001) %MON forcing_qsw_del2             =   0.0000000000000E+00
(PID.TID 0000.0001) %MON forcing_empmr_max            =   7.6494447208479E-05
(PID.TID 0000.0001) %MON forcing_empmr_min            =  -1.5362614137596E-04
(PID.TID 0000.0001) %MON forcing_empmr_mean           =   8.3865596020288E-22
(PID.TID 0000.0001) %MON forcing_empmr_sd             =   2.4051723601802E-05
(PID.TID 0000.0001) %MON forcing_empmr_del2           =   1.2276157049243E-07
(PID.TID 0000.0001) %MON forcing_fu_max               =   2.6077626631795E-01
(PID.TID 0000.0001) %MON forcing_fu_min               =  -3.3465350726048E-01
(PID.TID 0000.0001) %MON forcing_fu_mean              =  -8.6045048881268E-03
(PID.TID 0000.0001) %MON forcing_fu_sd                =   7.0719599442443E-02
(PID.TID 0000.0001) %MON forcing_fu_del2              =   2.1484748194702E-04
(PID.TID 0000.0001) %MON forcing_fv_max               =   2.2206955453443E-01
(PID.TID 0000.0001) %MON forcing_fv_min               =  -3.3312564980954E-01
(PID.TID 0000.0001) %MON forcing_fv_mean              =  -1.2713595214321E-02
(PID.TID 0000.0001) %MON forcing_fv_sd                =   7.7996178072712E-02
(PID.TID 0000.0001) %MON forcing_fv_del2              =   2.4344353712976E-04
(PID.TID 0000.0001) %MON trAdv_CFL_u_max              =   7.0862854139453E-02
(PID.TID 0000.0001) %MON trAdv_CFL_v_max              =   8.0249972188941E-02
(PID.TID 0000.0001) %MON trAdv_CFL_w_max              =   7.0494862567422E-02
(PID.TID 0000.0001) %MON advcfl_uvel_max              =   7.5834195305070E-02
(PID.TID 0000.0001) %MON advcfl_vvel_max              =   7.5423799648226E-02
(PID.TID 0000.0001) %MON advcfl_wvel_max              =   6.3819221606443E-02
(PID.TID 0000.0001) %MON advcfl_W_hf_max              =   7.0494862567422E-02
(PID.TID 0000.0001) %MON pe_b_mean                    =   4.8029231944640E-04
(PID.TID 0000.0001) %MON ke_max                       =   3.4083162569046E-02
(PID.TID 0000.0001) %MON ke_mean                      =   1.3931165650919E-04
(PID.TID 0000.0001) %MON ke_vol                       =   1.3398024453628E+18
(PID.TID 0000.0001) %MON vort_r_min                   =  -1.3213001796901E-06
(PID.TID 0000.0001) %MON vort_r_max                   =   1.2738740981507E-06
(PID.TID 0000.0001) %MON vort_a_mean                  =  -2.0493733748264E-05
(PID.TID 0000.0001) %MON vort_a_sd                    =   7.5053955435914E-05
(PID.TID 0000.0001) %MON vort_p_mean                  =  -2.4715770588098E-05
(PID.TID 0000.0001) %MON vort_p_sd                    =   1.2777068568686E-04
(PID.TID 0000.0001) %MON surfExpan_theta_mean         =   5.6740460042028E-08
(PID.TID 0000.0001) %MON surfExpan_salt_mean          =   1.5415795244875E-08
(PID.TID 0000.0001) // =======================================================
(PID.TID 0000.0001) // End MONITOR dynamic field statistics
(PID.TID 0000.0001) // =======================================================
 DRIVER_GET_EXPORT_STATE_3D:MASK : Associated & shape =          32          32          15
  Finished plug run method 
 AGCM Date: 2000/04/15  Time: 17:15:00
  Starting plug run method 
 EXTERNAL_FIELDS_LOAD,     72081 : iP,iLd,i0,i1=    3    4    3    4 ; Wght=  0.8000000000  0.2000000000
 cg2d: Sum(rhs),rhsMax =  -2.30215846386272E-12  4.20828127236413E+00
(PID.TID 0000.0001)      cg2d_init_res =   2.88057038326690E-02
(PID.TID 0000.0001)      cg2d_iters(min,last) =      -1      85
(PID.TID 0000.0001)      cg2d_last_res =   9.52512786102039E-10
(PID.TID 0000.0001) // =======================================================
(PID.TID 0000.0001) // Begin MONITOR dynamic field statistics
(PID.TID 0000.0001) // =======================================================
(PID.TID 0000.0001) %MON time_tsnumber                =                 72082
(PID.TID 0000.0001) %MON time_secondsf                =   6.2278848000000E+09
(PID.TID 0000.0001) %MON dynstat_eta_max              =   8.8597202965622E-01
(PID.TID 0000.0001) %MON dynstat_eta_min              =  -1.6036863692653E+00
(PID.TID 0000.0001) %MON dynstat_eta_mean             =   1.3960387879995E-14
(PID.TID 0000.0001) %MON dynstat_eta_sd               =   6.0053144820222E-01
(PID.TID 0000.0001) %MON dynstat_eta_del2             =   8.1665125755390E-04
(PID.TID 0000.0001) %MON dynstat_uvel_max             =   1.9396515813866E-01
(PID.TID 0000.0001) %MON dynstat_uvel_min             =  -2.4787983961681E-01
(PID.TID 0000.0001) %MON dynstat_uvel_mean            =  -4.4356954606346E-04
(PID.TID 0000.0001) %MON dynstat_uvel_sd              =   1.1855310723314E-02
(PID.TID 0000.0001) %MON dynstat_uvel_del2            =   5.1838523586922E-05
(PID.TID 0000.0001) %MON dynstat_vvel_max             =   1.7295160486998E-01
(PID.TID 0000.0001) %MON dynstat_vvel_min             =  -2.2221300701854E-01
(PID.TID 0000.0001) %MON dynstat_vvel_mean            =  -3.5719782581727E-04
(PID.TID 0000.0001) %MON dynstat_vvel_sd              =   1.2678468857170E-02
(PID.TID 0000.0001) %MON dynstat_vvel_del2            =   5.0635943747588E-05
(PID.TID 0000.0001) %MON dynstat_wvel_max             =   1.0653561276193E-04
(PID.TID 0000.0001) %MON dynstat_wvel_min             =  -1.9558031263785E-04
(PID.TID 0000.0001) %MON dynstat_wvel_mean            =  -2.6535528266610E-11
(PID.TID 0000.0001) %MON dynstat_wvel_sd              =   3.5128370686927E-06
(PID.TID 0000.0001) %MON dynstat_wvel_del2            =   2.6767023913825E-08
(PID.TID 0000.0001) %MON dynstat_theta_max            =   3.1436555009295E+01
(PID.TID 0000.0001) %MON dynstat_theta_min            =  -4.1492626798065E+00
(PID.TID 0000.0001) %MON dynstat_theta_mean           =   3.9131435631902E+00
(PID.TID 0000.0001) %MON dynstat_theta_sd             =   4.5885827464616E+00
(PID.TID 0000.0001) %MON dynstat_theta_del2           =   2.8184042822886E-03
(PID.TID 0000.0001) %MON dynstat_salt_max             =   4.1442203515541E+01
(PID.TID 0000.0001) %MON dynstat_salt_min             =   1.8418535083404E+01
(PID.TID 0000.0001) %MON dynstat_salt_mean            =   3.4772141744207E+01
(PID.TID 0000.0001) %MON dynstat_salt_sd              =   5.3115402990255E-01
(PID.TID 0000.0001) %MON dynstat_salt_del2            =   8.4811924088478E-04
(PID.TID 0000.0001) %MON dynstat_sst_max              =   3.1436555009295E+01
(PID.TID 0000.0001) %MON dynstat_sst_min              =  -1.9895512820397E+00
(PID.TID 0000.0001) %MON dynstat_sst_mean             =   1.8402105153125E+01
(PID.TID 0000.0001) %MON dynstat_sst_sd               =   1.0043402216028E+01
(PID.TID 0000.0001) %MON dynstat_sst_del2             =   1.7116841911668E-02
(PID.TID 0000.0001) %MON dynstat_sss_max              =   4.1442203515541E+01
(PID.TID 0000.0001) %MON dynstat_sss_min              =   1.8418535083404E+01
(PID.TID 0000.0001) %MON dynstat_sss_mean             =   3.4620516884289E+01
(PID.TID 0000.0001) %MON dynstat_sss_sd               =   1.4541795866611E+00
(PID.TID 0000.0001) %MON dynstat_sss_del2             =   8.5365752984466E-03
(PID.TID 0000.0001) %MON forcing_qnet_max             =   2.9745721089854E+02
(PID.TID 0000.0001) %MON forcing_qnet_min             =  -1.8146966041648E+02
(PID.TID 0000.0001) %MON forcing_qnet_mean            =  -5.2855182107860E+00
(PID.TID 0000.0001) %MON forcing_qnet_sd              =   5.6140800858968E+01
(PID.TID 0000.0001) %MON forcing_qnet_del2            =   4.3871079006807E-01
(PID.TID 0000.0001) %MON forcing_qsw_max              =   0.0000000000000E+00
(PID.TID 0000.0001) %MON forcing_qsw_min              =   0.0000000000000E+00
(PID.TID 0000.0001) %MON forcing_qsw_mean             =   0.0000000000000E+00
(PID.TID 0000.0001) %MON forcing_qsw_sd               =   0.0000000000000E+00
(PID.TID 0000.0001) %MON forcing_qsw_del2             =   0.0000000000000E+00
(PID.TID 0000.0001) %MON forcing_empmr_max            =   7.6494447208479E-05
(PID.TID 0000.0001) %MON forcing_empmr_min            =  -1.5362614137596E-04
(PID.TID 0000.0001) %MON forcing_empmr_mean           =   8.3865596020288E-22
(PID.TID 0000.0001) %MON forcing_empmr_sd             =   2.4051723601802E-05
(PID.TID 0000.0001) %MON forcing_empmr_del2           =   1.2276157049243E-07
(PID.TID 0000.0001) %MON forcing_fu_max               =   2.6140509009110E-01
(PID.TID 0000.0001) %MON forcing_fu_min               =  -3.3250272292481E-01
(PID.TID 0000.0001) %MON forcing_fu_mean              =  -8.6045171896858E-03
(PID.TID 0000.0001) %MON forcing_fu_sd                =   7.0746730358813E-02
(PID.TID 0000.0001) %MON forcing_fu_del2              =   2.1251248537418E-04
(PID.TID 0000.0001) %MON forcing_fv_max               =   2.1532016349653E-01
(PID.TID 0000.0001) %MON forcing_fv_min               =  -3.3215888092112E-01
(PID.TID 0000.0001) %MON forcing_fv_mean              =  -1.2726259577248E-02
(PID.TID 0000.0001) %MON forcing_fv_sd                =   7.7546307724384E-02
(PID.TID 0000.0001) %MON forcing_fv_del2              =   2.3993912661327E-04
(PID.TID 0000.0001) %MON trAdv_CFL_u_max              =   7.0953180738696E-02
(PID.TID 0000.0001) %MON trAdv_CFL_v_max              =   8.0211008340532E-02
(PID.TID 0000.0001) %MON trAdv_CFL_w_max              =   7.0436712408896E-02
(PID.TID 0000.0001) %MON advcfl_uvel_max              =   7.5930858281098E-02
(PID.TID 0000.0001) %MON advcfl_vvel_max              =   7.5387167983569E-02
(PID.TID 0000.0001) %MON advcfl_wvel_max              =   6.3766562309095E-02
(PID.TID 0000.0001) %MON advcfl_W_hf_max              =   7.0436712408896E-02
(PID.TID 0000.0001) %MON pe_b_mean                    =   4.8043648750910E-04
(PID.TID 0000.0001) %MON ke_max                       =   3.4036710875166E-02
(PID.TID 0000.0001) %MON ke_mean                      =   1.3929227507197E-04
(PID.TID 0000.0001) %MON ke_vol                       =   1.3398024453628E+18
(PID.TID 0000.0001) %MON vort_r_min                   =  -1.3206799950884E-06
(PID.TID 0000.0001) %MON vort_r_max                   =   1.2816924612561E-06
(PID.TID 0000.0001) %MON vort_a_mean                  =  -2.0493733748264E-05
(PID.TID 0000.0001) %MON vort_a_sd                    =   7.5053955591277E-05
(PID.TID 0000.0001) %MON vort_p_mean                  =  -2.4715770579280E-05
(PID.TID 0000.0001) %MON vort_p_sd                    =   1.2777068908322E-04
(PID.TID 0000.0001) %MON surfExpan_theta_mean         =   5.6557922064547E-08
(PID.TID 0000.0001) %MON surfExpan_salt_mean          =   1.5436860404772E-08
(PID.TID 0000.0001) // =======================================================
(PID.TID 0000.0001) // End MONITOR dynamic field statistics
(PID.TID 0000.0001) // =======================================================
 DRIVER_GET_EXPORT_STATE_3D:MASK : Associated & shape =          32          32          15
  Finished plug run method 
 AGCM Date: 2000/04/15  Time: 17:30:00
  Starting plug run method 
 EXTERNAL_FIELDS_LOAD,     72082 : iP,iLd,i0,i1=    3    4    3    4 ; Wght=  0.7666666667  0.2333333333
 cg2d: Sum(rhs),rhsMax =  -2.38031816479634E-12  4.20788809342381E+00
(PID.TID 0000.0001)      cg2d_init_res =   2.85806146001632E-02
(PID.TID 0000.0001)      cg2d_iters(min,last) =      -1      85
(PID.TID 0000.0001)      cg2d_last_res =   9.35357887181018E-10
(PID.TID 0000.0001) // =======================================================
(PID.TID 0000.0001) // Begin MONITOR dynamic field statistics
(PID.TID 0000.0001) // =======================================================
(PID.TID 0000.0001) %MON time_tsnumber                =                 72083
(PID.TID 0000.0001) %MON time_secondsf                =   6.2279712000000E+09
(PID.TID 0000.0001) %MON dynstat_eta_max              =   8.8649509825193E-01
(PID.TID 0000.0001) %MON dynstat_eta_min              =  -1.6038640558788E+00
(PID.TID 0000.0001) %MON dynstat_eta_mean             =   1.4152755429523E-14
(PID.TID 0000.0001) %MON dynstat_eta_sd               =   6.0060422688096E-01
(PID.TID 0000.0001) %MON dynstat_eta_del2             =   8.1672529815136E-04
(PID.TID 0000.0001) %MON dynstat_uvel_max             =   1.9419272093289E-01
(PID.TID 0000.0001) %MON dynstat_uvel_min             =  -2.4763356015488E-01
(PID.TID 0000.0001) %MON dynstat_uvel_mean            =  -4.4303497131142E-04
(PID.TID 0000.0001) %MON dynstat_uvel_sd              =   1.1856224185386E-02
(PID.TID 0000.0001) %MON dynstat_uvel_del2            =   5.1839519226708E-05
(PID.TID 0000.0001) %MON dynstat_vvel_max             =   1.7283547813393E-01
(PID.TID 0000.0001) %MON dynstat_vvel_min             =  -2.2211777238398E-01
(PID.TID 0000.0001) %MON dynstat_vvel_mean            =  -3.5610873319330E-04
(PID.TID 0000.0001) %MON dynstat_vvel_sd              =   1.2675371576305E-02
(PID.TID 0000.0001) %MON dynstat_vvel_del2            =   5.0631194038864E-05
(PID.TID 0000.0001) %MON dynstat_wvel_max             =   1.0625006045999E-04
(PID.TID 0000.0001) %MON dynstat_wvel_min             =  -1.9543622583341E-04
(PID.TID 0000.0001) %MON dynstat_wvel_mean            =   9.6941544210783E-12
(PID.TID 0000.0001) %MON dynstat_wvel_sd              =   3.5121345324051E-06
(PID.TID 0000.0001) %MON dynstat_wvel_del2            =   2.6777667646102E-08
(PID.TID 0000.0001) %MON dynstat_theta_max            =   3.1446485998088E+01
(PID.TID 0000.0001) %MON dynstat_theta_min            =  -4.1437766715257E+00
(PID.TID 0000.0001) %MON dynstat_theta_mean           =   3.9131459438732E+00
(PID.TID 0000.0001) %MON dynstat_theta_sd             =   4.5887652491001E+00
(PID.TID 0000.0001) %MON dynstat_theta_del2           =   2.8174912153831E-03
(PID.TID 0000.0001) %MON dynstat_salt_max             =   4.1442398176714E+01
(PID.TID 0000.0001) %MON dynstat_salt_min             =   1.8418600952072E+01
(PID.TID 0000.0001) %MON dynstat_salt_mean            =   3.4772142910522E+01
(PID.TID 0000.0001) %MON dynstat_salt_sd              =   5.3114954038369E-01
(PID.TID 0000.0001) %MON dynstat_salt_del2            =   8.4814437230578E-04
(PID.TID 0000.0001) %MON dynstat_sst_max              =   3.1446485998088E+01
(PID.TID 0000.0001) %MON dynstat_sst_min              =  -1.9893514951016E+00
(PID.TID 0000.0001) %MON dynstat_sst_mean             =   1.8399908217449E+01
(PID.TID 0000.0001) %MON dynstat_sst_sd               =   1.0051062062960E+01
(PID.TID 0000.0001) %MON dynstat_sst_del2             =   1.7078104393336E-02
(PID.TID 0000.0001) %MON dynstat_sss_max              =   4.1442398176714E+01
(PID.TID 0000.0001) %MON dynstat_sss_min              =   1.8418600952072E+01
(PID.TID 0000.0001) %MON dynstat_sss_mean             =   3.4620532773896E+01
(PID.TID 0000.0001) %MON dynstat_sss_sd               =   1.4541073868129E+00
(PID.TID 0000.0001) %MON dynstat_sss_del2             =   8.5375183065001E-03
(PID.TID 0000.0001) %MON forcing_qnet_max             =   2.9256449549864E+02
(PID.TID 0000.0001) %MON forcing_qnet_min             =  -1.8092493281325E+02
(PID.TID 0000.0001) %MON forcing_qnet_mean            =  -4.8998313122335E+00
(PID.TID 0000.0001) %MON forcing_qnet_sd              =   5.5645780613867E+01
(PID.TID 0000.0001) %MON forcing_qnet_del2            =   4.3634857856601E-01
(PID.TID 0000.0001) %MON forcing_qsw_max              =   0.0000000000000E+00
(PID.TID 0000.0001) %MON forcing_qsw_min              =   0.0000000000000E+00
(PID.TID 0000.0001) %MON forcing_qsw_mean             =   0.0000000000000E+00
(PID.TID 0000.0001) %MON forcing_qsw_sd               =   0.0000000000000E+00
(PID.TID 0000.0001) %MON forcing_qsw_del2             =   0.0000000000000E+00
(PID.TID 0000.0001) %MON forcing_empmr_max            =   7.6494447208479E-05
(PID.TID 0000.0001) %MON forcing_empmr_min            =  -1.5362614137596E-04
(PID.TID 0000.0001) %MON forcing_empmr_mean           =  -4.1932798010144E-22
(PID.TID 0000.0001) %MON forcing_empmr_sd             =   2.4051723601802E-05
(PID.TID 0000.0001) %MON forcing_empmr_del2           =   1.2276157049243E-07
(PID.TID 0000.0001) %MON forcing_fu_max               =   2.6203391386426E-01
(PID.TID 0000.0001) %MON forcing_fu_min               =  -3.3035193858914E-01
(PID.TID 0000.0001) %MON forcing_fu_mean              =  -8.6045294912448E-03
(PID.TID 0000.0001) %MON forcing_fu_sd                =   7.0792306017582E-02
(PID.TID 0000.0001) %MON forcing_fu_del2              =   2.1042689812920E-04
(PID.TID 0000.0001) %MON forcing_fv_max               =   2.0995420547069E-01
(PID.TID 0000.0001) %MON forcing_fv_min               =  -3.3119211203270E-01
(PID.TID 0000.0001) %MON forcing_fv_mean              =  -1.2738923940175E-02
(PID.TID 0000.0001) %MON forcing_fv_sd                =   7.7120290643481E-02
(PID.TID 0000.0001) %MON forcing_fv_del2              =   2.3669406321523E-04
(PID.TID 0000.0001) %MON trAdv_CFL_u_max              =   7.1027991844203E-02
(PID.TID 0000.0001) %MON trAdv_CFL_v_max              =   8.0157162703771E-02
(PID.TID 0000.0001) %MON trAdv_CFL_w_max              =   7.0384834180002E-02
(PID.TID 0000.0001) %MON advcfl_uvel_max              =   7.6010917158977E-02
(PID.TID 0000.0001) %MON advcfl_vvel_max              =   7.5336549975343E-02
(PID.TID 0000.0001) %MON advcfl_wvel_max              =   6.3719584573611E-02
(PID.TID 0000.0001) %MON advcfl_W_hf_max              =   7.0384834180002E-02
(PID.TID 0000.0001) %MON pe_b_mean                    =   4.8055294319725E-04
(PID.TID 0000.0001) %MON ke_max                       =   3.3989356466438E-02
(PID.TID 0000.0001) %MON ke_mean                      =   1.3926521111749E-04
(PID.TID 0000.0001) %MON ke_vol                       =   1.3398024453628E+18
(PID.TID 0000.0001) %MON vort_r_min                   =  -1.3201018836688E-06
(PID.TID 0000.0001) %MON vort_r_max                   =   1.2895444534879E-06
(PID.TID 0000.0001) %MON vort_a_mean                  =  -2.0493733748264E-05
(PID.TID 0000.0001) %MON vort_a_sd                    =   7.5053955740795E-05
(PID.TID 0000.0001) %MON vort_p_mean                  =  -2.4715770580641E-05
(PID.TID 0000.0001) %MON vort_p_sd                    =   1.2777069145956E-04
(PID.TID 0000.0001) %MON surfExpan_theta_mean         =   5.6469555176472E-08
(PID.TID 0000.0001) %MON surfExpan_salt_mean          =   1.5484530941216E-08
(PID.TID 0000.0001) // =======================================================
(PID.TID 0000.0001) // End MONITOR dynamic field statistics
(PID.TID 0000.0001) // =======================================================
 DRIVER_GET_EXPORT_STATE_3D:MASK : Associated & shape =          32          32          15
  Finished plug run method 
 AGCM Date: 2000/04/15  Time: 17:45:00
  Starting plug run method 
 EXTERNAL_FIELDS_LOAD,     72083 : iP,iLd,i0,i1=    3    4    3    4 ; Wght=  0.7333333333  0.2666666667
 cg2d: Sum(rhs),rhsMax =  -2.28794760914752E-12  4.20742802616842E+00
(PID.TID 0000.0001)      cg2d_init_res =   2.83618490654083E-02
(PID.TID 0000.0001)      cg2d_iters(min,last) =      -1      85
(PID.TID 0000.0001)      cg2d_last_res =   8.60827433366967E-10
(PID.TID 0000.0001) // =======================================================
(PID.TID 0000.0001) // Begin MONITOR dynamic field statistics
(PID.TID 0000.0001) // =======================================================
(PID.TID 0000.0001) %MON time_tsnumber                =                 72084
(PID.TID 0000.0001) %MON time_secondsf                =   6.2280576000000E+09
(PID.TID 0000.0001) %MON dynstat_eta_max              =   8.8698997680548E-01
(PID.TID 0000.0001) %MON dynstat_eta_min              =  -1.6040458638632E+00
(PID.TID 0000.0001) %MON dynstat_eta_mean             =   1.4345122979050E-14
(PID.TID 0000.0001) %MON dynstat_eta_sd               =   6.0066026165692E-01
(PID.TID 0000.0001) %MON dynstat_eta_del2             =   8.1678395586047E-04
(PID.TID 0000.0001) %MON dynstat_uvel_max             =   1.9439926985319E-01
(PID.TID 0000.0001) %MON dynstat_uvel_min             =  -2.4738312447758E-01
(PID.TID 0000.0001) %MON dynstat_uvel_mean            =  -4.4253685254251E-04
(PID.TID 0000.0001) %MON dynstat_uvel_sd              =   1.1856887292653E-02
(PID.TID 0000.0001) %MON dynstat_uvel_del2            =   5.1838555621456E-05
(PID.TID 0000.0001) %MON dynstat_vvel_max             =   1.7268748183131E-01
(PID.TID 0000.0001) %MON dynstat_vvel_min             =  -2.2201793925553E-01
(PID.TID 0000.0001) %MON dynstat_vvel_mean            =  -3.5504403800988E-04
(PID.TID 0000.0001) %MON dynstat_vvel_sd              =   1.2671885687475E-02
(PID.TID 0000.0001) %MON dynstat_vvel_del2            =   5.0625148762792E-05
(PID.TID 0000.0001) %MON dynstat_wvel_max             =   1.0597799955581E-04
(PID.TID 0000.0001) %MON dynstat_wvel_min             =  -1.9530894333078E-04
(PID.TID 0000.0001) %MON dynstat_wvel_mean            =   4.0438009636872E-11
(PID.TID 0000.0001) %MON dynstat_wvel_sd              =   3.5116028726218E-06
(PID.TID 0000.0001) %MON dynstat_wvel_del2            =   2.6787656201849E-08
(PID.TID 0000.0001) %MON dynstat_theta_max            =   3.1455079077969E+01
(PID.TID 0000.0001) %MON dynstat_theta_min            =  -4.1376594720347E+00
(PID.TID 0000.0001) %MON dynstat_theta_mean           =   3.9131463409948E+00
(PID.TID 0000.0001) %MON dynstat_theta_sd             =   4.5889390705332E+00
(PID.TID 0000.0001) %MON dynstat_theta_del2           =   2.8164688460812E-03
(PID.TID 0000.0001) %MON dynstat_salt_max             =   4.1442487186176E+01
(PID.TID 0000.0001) %MON dynstat_salt_min             =   1.8418682620301E+01
(PID.TID 0000.0001) %MON dynstat_salt_mean            =   3.4772144086912E+01
(PID.TID 0000.0001) %MON dynstat_salt_sd              =   5.3114503058783E-01
(PID.TID 0000.0001) %MON dynstat_salt_del2            =   8.4819048752288E-04
(PID.TID 0000.0001) %MON dynstat_sst_max              =   3.1455079077969E+01
(PID.TID 0000.0001) %MON dynstat_sst_min              =  -1.9891547818707E+00
(PID.TID 0000.0001) %MON dynstat_sst_mean             =   1.8397464787023E+01
(PID.TID 0000.0001) %MON dynstat_sst_sd               =   1.0058710698909E+01
(PID.TID 0000.0001) %MON dynstat_sst_del2             =   1.7037698147048E-02
(PID.TID 0000.0001) %MON dynstat_sss_max              =   4.1442487186176E+01
(PID.TID 0000.0001) %MON dynstat_sss_min              =   1.8418682620301E+01
(PID.TID 0000.0001) %MON dynstat_sss_mean             =   3.4620545606233E+01
(PID.TID 0000.0001) %MON dynstat_sss_sd               =   1.4540387342099E+00
(PID.TID 0000.0001) %MON dynstat_sss_del2             =   8.5386893195224E-03
(PID.TID 0000.0001) %MON forcing_qnet_max             =   2.8767178009874E+02
(PID.TID 0000.0001) %MON forcing_qnet_min             =  -1.8038020521003E+02
(PID.TID 0000.0001) %MON forcing_qnet_mean            =  -4.5141444136810E+00
(PID.TID 0000.0001) %MON forcing_qnet_sd              =   5.5213738711466E+01
(PID.TID 0000.0001) %MON forcing_qnet_del2            =   4.3410428088579E-01
(PID.TID 0000.0001) %MON forcing_qsw_max              =   0.0000000000000E+00
(PID.TID 0000.0001) %MON forcing_qsw_min              =   0.0000000000000E+00
(PID.TID 0000.0001) %MON forcing_qsw_mean             =   0.0000000000000E+00
(PID.TID 0000.0001) %MON forcing_qsw_sd               =   0.0000000000000E+00
(PID.TID 0000.0001) %MON forcing_qsw_del2             =   0.0000000000000E+00
(PID.TID 0000.0001) %MON forcing_empmr_max            =   7.6494447208479E-05
(PID.TID 0000.0001) %MON forcing_empmr_min            =  -1.5362614137596E-04
(PID.TID 0000.0001) %MON forcing_empmr_mean           =   0.0000000000000E+00
(PID.TID 0000.0001) %MON forcing_empmr_sd             =   2.4051723601802E-05
(PID.TID 0000.0001) %MON forcing_empmr_del2           =   1.2276157049243E-07
(PID.TID 0000.0001) %MON forcing_fu_max               =   2.6266273763741E-01
(PID.TID 0000.0001) %MON forcing_fu_min               =  -3.2820115425347E-01
(PID.TID 0000.0001) %MON forcing_fu_mean              =  -8.6045417928038E-03
(PID.TID 0000.0001) %MON forcing_fu_sd                =   7.0856290827086E-02
(PID.TID 0000.0001) %MON forcing_fu_del2              =   2.0859820121005E-04
(PID.TID 0000.0001) %MON forcing_fv_max               =   2.0838762883766E-01
(PID.TID 0000.0001) %MON forcing_fv_min               =  -3.3022534314427E-01
(PID.TID 0000.0001) %MON forcing_fv_mean              =  -1.2751588303102E-02
(PID.TID 0000.0001) %MON forcing_fv_sd                =   7.6718524201788E-02
(PID.TID 0000.0001) %MON forcing_fv_del2              =   2.3371914986677E-04
(PID.TID 0000.0001) %MON trAdv_CFL_u_max              =   7.1088408416575E-02
(PID.TID 0000.0001) %MON trAdv_CFL_v_max              =   8.0088536248155E-02
(PID.TID 0000.0001) %MON trAdv_CFL_w_max              =   7.0339003422514E-02
(PID.TID 0000.0001) %MON advcfl_uvel_max              =   7.6075571545238E-02
(PID.TID 0000.0001) %MON advcfl_vvel_max              =   7.5272040472035E-02
(PID.TID 0000.0001) %MON advcfl_wvel_max              =   6.3678085674639E-02
(PID.TID 0000.0001) %MON advcfl_W_hf_max              =   7.0339003422514E-02
(PID.TID 0000.0001) %MON pe_b_mean                    =   4.8064261600155E-04
(PID.TID 0000.0001) %MON ke_max                       =   3.3941057958361E-02
(PID.TID 0000.0001) %MON ke_mean                      =   1.3923088436027E-04
(PID.TID 0000.0001) %MON ke_vol                       =   1.3398024453628E+18
(PID.TID 0000.0001) %MON vort_r_min                   =  -1.3195606196098E-06
(PID.TID 0000.0001) %MON vort_r_max                   =   1.2973821429172E-06
(PID.TID 0000.0001) %MON vort_a_mean                  =  -2.0493733748264E-05
(PID.TID 0000.0001) %MON vort_a_sd                    =   7.5053955884641E-05
(PID.TID 0000.0001) %MON vort_p_mean                  =  -2.4715770590693E-05
(PID.TID 0000.0001) %MON vort_p_sd                    =   1.2777069284266E-04
(PID.TID 0000.0001) %MON surfExpan_theta_mean         =   5.6486956543860E-08
(PID.TID 0000.0001) %MON surfExpan_salt_mean          =   1.5553406289474E-08
(PID.TID 0000.0001) // =======================================================
(PID.TID 0000.0001) // End MONITOR dynamic field statistics
(PID.TID 0000.0001) // =======================================================
 DRIVER_GET_EXPORT_STATE_3D:MASK : Associated & shape =          32          32          15
  Finished plug run method 
 AGCM Date: 2000/04/15  Time: 18:00:00
 
 Writing:    483 Slices (  1 Nodes,  1 PartitionRoot) to File:  TEST.geosgcm_prog.20000415_1800z.nc4
 Writing:    147 Slices (  1 Nodes,  1 PartitionRoot) to File:  TEST.geosgcm_surf.20000415_1630z.nc4
 Writing:     40 Slices (  1 Nodes,  1 PartitionRoot) to File:  TEST.mit_ocn.20000415_1800z.nc4
 
  Starting plug run method 
 EXTERNAL_FIELDS_LOAD,     72084 : iP,iLd,i0,i1=    3    4    3    4 ; Wght=  0.7000000000  0.3000000000
 cg2d: Sum(rhs),rhsMax =  -2.33058017329313E-12  4.20692207362944E+00
(PID.TID 0000.0001)      cg2d_init_res =   2.81629770982282E-02
(PID.TID 0000.0001)      cg2d_iters(min,last) =      -1      83
(PID.TID 0000.0001)      cg2d_last_res =   9.17923713975967E-10
(PID.TID 0000.0001) // =======================================================
(PID.TID 0000.0001) // Begin MONITOR dynamic field statistics
(PID.TID 0000.0001) // =======================================================
(PID.TID 0000.0001) %MON time_tsnumber                =                 72085
(PID.TID 0000.0001) %MON time_secondsf                =   6.2281440000000E+09
(PID.TID 0000.0001) %MON dynstat_eta_max              =   8.8745914612337E-01
(PID.TID 0000.0001) %MON dynstat_eta_min              =  -1.6042342470454E+00
(PID.TID 0000.0001) %MON dynstat_eta_mean             =   1.4070312194011E-14
(PID.TID 0000.0001) %MON dynstat_eta_sd               =   6.0070023626956E-01
(PID.TID 0000.0001) %MON dynstat_eta_del2             =   8.1682898880661E-04
(PID.TID 0000.0001) %MON dynstat_uvel_max             =   1.9458566676965E-01
(PID.TID 0000.0001) %MON dynstat_uvel_min             =  -2.4712846416123E-01
(PID.TID 0000.0001) %MON dynstat_uvel_mean            =  -4.4208053282954E-04
(PID.TID 0000.0001) %MON dynstat_uvel_sd              =   1.1857258553310E-02
(PID.TID 0000.0001) %MON dynstat_uvel_del2            =   5.1835577115874E-05
(PID.TID 0000.0001) %MON dynstat_vvel_max             =   1.7250808718553E-01
(PID.TID 0000.0001) %MON dynstat_vvel_min             =  -2.2191370675984E-01
(PID.TID 0000.0001) %MON dynstat_vvel_mean            =  -3.5401763550760E-04
(PID.TID 0000.0001) %MON dynstat_vvel_sd              =   1.2668098661012E-02
(PID.TID 0000.0001) %MON dynstat_vvel_del2            =   5.0618013049153E-05
(PID.TID 0000.0001) %MON dynstat_wvel_max             =   1.0572530009988E-04
(PID.TID 0000.0001) %MON dynstat_wvel_min             =  -1.9519763576049E-04
(PID.TID 0000.0001) %MON dynstat_wvel_mean            =   6.6707261057791E-11
(PID.TID 0000.0001) %MON dynstat_wvel_sd              =   3.5111947074190E-06
(PID.TID 0000.0001) %MON dynstat_wvel_del2            =   2.6796742960585E-08
(PID.TID 0000.0001) %MON dynstat_theta_max            =   3.1462146461938E+01
(PID.TID 0000.0001) %MON dynstat_theta_min            =  -4.1309160339695E+00
(PID.TID 0000.0001) %MON dynstat_theta_mean           =   3.9131447444134E+00
(PID.TID 0000.0001) %MON dynstat_theta_sd             =   4.5891046321034E+00
(PID.TID 0000.0001) %MON dynstat_theta_del2           =   2.8154759026123E-03
(PID.TID 0000.0001) %MON dynstat_salt_max             =   4.1442470953592E+01
(PID.TID 0000.0001) %MON dynstat_salt_min             =   1.8418780107156E+01
(PID.TID 0000.0001) %MON dynstat_salt_mean            =   3.4772145273692E+01
(PID.TID 0000.0001) %MON dynstat_salt_sd              =   5.3114054219192E-01
(PID.TID 0000.0001) %MON dynstat_salt_del2            =   8.4826437688068E-04
(PID.TID 0000.0001) %MON dynstat_sst_max              =   3.1462146461938E+01
(PID.TID 0000.0001) %MON dynstat_sst_min              =  -1.9889616589140E+00
(PID.TID 0000.0001) %MON dynstat_sst_mean             =   1.8394804318781E+01
(PID.TID 0000.0001) %MON dynstat_sst_sd               =   1.0066333091312E+01
(PID.TID 0000.0001) %MON dynstat_sst_del2             =   1.6997912537670E-02
(PID.TID 0000.0001) %MON dynstat_sss_max              =   4.1442470953592E+01
(PID.TID 0000.0001) %MON dynstat_sss_min              =   1.8418780107156E+01
(PID.TID 0000.0001) %MON dynstat_sss_mean             =   3.4620558029085E+01
(PID.TID 0000.0001) %MON dynstat_sss_sd               =   1.4539753614845E+00
(PID.TID 0000.0001) %MON dynstat_sss_del2             =   8.5403153172523E-03
(PID.TID 0000.0001) %MON forcing_qnet_max             =   2.8277906469884E+02
(PID.TID 0000.0001) %MON forcing_qnet_min             =  -1.7983547760680E+02
(PID.TID 0000.0001) %MON forcing_qnet_mean            =  -4.1284575151285E+00
(PID.TID 0000.0001) %MON forcing_qnet_sd              =   5.4846163477499E+01
(PID.TID 0000.0001) %MON forcing_qnet_del2            =   4.3197973485168E-01
(PID.TID 0000.0001) %MON forcing_qsw_max              =   0.0000000000000E+00
(PID.TID 0000.0001) %MON forcing_qsw_min              =   0.0000000000000E+00
(PID.TID 0000.0001) %MON forcing_qsw_mean             =   0.0000000000000E+00
(PID.TID 0000.0001) %MON forcing_qsw_sd               =   0.0000000000000E+00
(PID.TID 0000.0001) %MON forcing_qsw_del2             =   0.0000000000000E+00
(PID.TID 0000.0001) %MON forcing_empmr_max            =   7.6494447208479E-05
(PID.TID 0000.0001) %MON forcing_empmr_min            =  -1.5362614137596E-04
(PID.TID 0000.0001) %MON forcing_empmr_mean           =  -4.1932798010144E-22
(PID.TID 0000.0001) %MON forcing_empmr_sd             =   2.4051723601802E-05
(PID.TID 0000.0001) %MON forcing_empmr_del2           =   1.2276157049243E-07
(PID.TID 0000.0001) %MON forcing_fu_max               =   2.6329156141057E-01
(PID.TID 0000.0001) %MON forcing_fu_min               =  -3.2605036991779E-01
(PID.TID 0000.0001) %MON forcing_fu_mean              =  -8.6045540943629E-03
(PID.TID 0000.0001) %MON forcing_fu_sd                =   7.0938634973615E-02
(PID.TID 0000.0001) %MON forcing_fu_del2              =   2.0703320196358E-04
(PID.TID 0000.0001) %MON forcing_fv_max               =   2.0682105220463E-01
(PID.TID 0000.0001) %MON forcing_fv_min               =  -3.2925857425585E-01
(PID.TID 0000.0001) %MON forcing_fv_mean              =  -1.2764252666029E-02
(PID.TID 0000.0001) %MON forcing_fv_sd                =   7.6341391276168E-02
(PID.TID 0000.0001) %MON forcing_fv_del2              =   2.3102482299370E-04
(PID.TID 0000.0001) %MON trAdv_CFL_u_max              =   7.1135689684593E-02
(PID.TID 0000.0001) %MON trAdv_CFL_v_max              =   8.0005347607019E-02
(PID.TID 0000.0001) %MON trAdv_CFL_w_max              =   7.0298921363098E-02
(PID.TID 0000.0001) %MON advcfl_uvel_max              =   7.6126169018057E-02
(PID.TID 0000.0001) %MON advcfl_vvel_max              =   7.5193844873290E-02
(PID.TID 0000.0001) %MON advcfl_wvel_max              =   6.3641795206439E-02
(PID.TID 0000.0001) %MON advcfl_W_hf_max              =   7.0298921363098E-02
(PID.TID 0000.0001) %MON pe_b_mean                    =   4.8070659273834E-04
(PID.TID 0000.0001) %MON ke_max                       =   3.3891771794441E-02
(PID.TID 0000.0001) %MON ke_mean                      =   1.3918988090426E-04
(PID.TID 0000.0001) %MON ke_vol                       =   1.3398024453628E+18
(PID.TID 0000.0001) %MON vort_r_min                   =  -1.3190500214679E-06
(PID.TID 0000.0001) %MON vort_r_max                   =   1.3051706535836E-06
(PID.TID 0000.0001) %MON vort_a_mean                  =  -2.0493733748264E-05
(PID.TID 0000.0001) %MON vort_a_sd                    =   7.5053956023685E-05
(PID.TID 0000.0001) %MON vort_p_mean                  =  -2.4715770608314E-05
(PID.TID 0000.0001) %MON vort_p_sd                    =   1.2777069327290E-04
(PID.TID 0000.0001) %MON surfExpan_theta_mean         =   5.6622080433422E-08
(PID.TID 0000.0001) %MON surfExpan_salt_mean          =   1.5636579111943E-08
(PID.TID 0000.0001) // =======================================================
(PID.TID 0000.0001) // End MONITOR dynamic field statistics
(PID.TID 0000.0001) // =======================================================
 DRIVER_GET_EXPORT_STATE_3D:MASK : Associated & shape =          32          32          15
  Finished plug run method 
 AGCM Date: 2000/04/15  Time: 18:15:00
  Starting plug run method 
 EXTERNAL_FIELDS_LOAD,     72085 : iP,iLd,i0,i1=    3    4    3    4 ; Wght=  0.6666666667  0.3333333333
 cg2d: Sum(rhs),rhsMax =  -2.35189645536593E-12  4.20639176007730E+00
(PID.TID 0000.0001)      cg2d_init_res =   2.79644947899970E-02
(PID.TID 0000.0001)      cg2d_iters(min,last) =      -1      84
(PID.TID 0000.0001)      cg2d_last_res =   9.95950861972619E-10
(PID.TID 0000.0001) // =======================================================
(PID.TID 0000.0001) // Begin MONITOR dynamic field statistics
(PID.TID 0000.0001) // =======================================================
(PID.TID 0000.0001) %MON time_tsnumber                =                 72086
(PID.TID 0000.0001) %MON time_secondsf                =   6.2282304000000E+09
(PID.TID 0000.0001) %MON dynstat_eta_max              =   8.8790384341978E-01
(PID.TID 0000.0001) %MON dynstat_eta_min              =  -1.6044316201364E+00
(PID.TID 0000.0001) %MON dynstat_eta_mean             =   1.4372604057554E-14
(PID.TID 0000.0001) %MON dynstat_eta_sd               =   6.0072492640236E-01
(PID.TID 0000.0001) %MON dynstat_eta_del2             =   8.1686146830944E-04
(PID.TID 0000.0001) %MON dynstat_uvel_max             =   1.9475288655358E-01
(PID.TID 0000.0001) %MON dynstat_uvel_min             =  -2.4686950432634E-01
(PID.TID 0000.0001) %MON dynstat_uvel_mean            =  -4.4167102264780E-04
(PID.TID 0000.0001) %MON dynstat_uvel_sd              =   1.1857310777837E-02
(PID.TID 0000.0001) %MON dynstat_uvel_del2            =   5.1830564670650E-05
(PID.TID 0000.0001) %MON dynstat_vvel_max             =   1.7229800387076E-01
(PID.TID 0000.0001) %MON dynstat_vvel_min             =  -2.2180526240478E-01
(PID.TID 0000.0001) %MON dynstat_vvel_mean            =  -3.5304197823393E-04
(PID.TID 0000.0001) %MON dynstat_vvel_sd              =   1.2664097994835E-02
(PID.TID 0000.0001) %MON dynstat_vvel_del2            =   5.0610048097972E-05
(PID.TID 0000.0001) %MON dynstat_wvel_max             =   1.0549736393200E-04
(PID.TID 0000.0001) %MON dynstat_wvel_min             =  -1.9510116514444E-04
(PID.TID 0000.0001) %MON dynstat_wvel_mean            =   8.9519622882101E-11
(PID.TID 0000.0001) %MON dynstat_wvel_sd              =   3.5108709631020E-06
(PID.TID 0000.0001) %MON dynstat_wvel_del2            =   2.6804804028107E-08
(PID.TID 0000.0001) %MON dynstat_theta_max            =   3.1467701280426E+01
(PID.TID 0000.0001) %MON dynstat_theta_min            =  -4.1235490848364E+00
(PID.TID 0000.0001) %MON dynstat_theta_mean           =   3.9131412134834E+00
(PID.TID 0000.0001) %MON dynstat_theta_sd             =   4.5892621389568E+00
(PID.TID 0000.0001) %MON dynstat_theta_del2           =   2.8145693361567E-03
(PID.TID 0000.0001) %MON dynstat_salt_max             =   4.1442350313870E+01
(PID.TID 0000.0001) %MON dynstat_salt_min             =   1.8418893399469E+01
(PID.TID 0000.0001) %MON dynstat_salt_mean            =   3.4772146471120E+01
(PID.TID 0000.0001) %MON dynstat_salt_sd              =   5.3113604933222E-01
(PID.TID 0000.0001) %MON dynstat_salt_del2            =   8.4834305887060E-04
(PID.TID 0000.0001) %MON dynstat_sst_max              =   3.1467701280426E+01
(PID.TID 0000.0001) %MON dynstat_sst_min              =  -1.9887725759781E+00
(PID.TID 0000.0001) %MON dynstat_sst_mean             =   1.8391916339757E+01
(PID.TID 0000.0001) %MON dynstat_sst_sd               =   1.0073950318458E+01
(PID.TID 0000.0001) %MON dynstat_sst_del2             =   1.6958907806533E-02
(PID.TID 0000.0001) %MON dynstat_sss_max              =   4.1442350313870E+01
(PID.TID 0000.0001) %MON dynstat_sss_min              =   1.8418893399469E+01
(PID.TID 0000.0001) %MON dynstat_sss_mean             =   3.4620565466092E+01
(PID.TID 0000.0001) %MON dynstat_sss_sd               =   1.4539149955552E+00
(PID.TID 0000.0001) %MON dynstat_sss_del2             =   8.5420384453889E-03
(PID.TID 0000.0001) %MON forcing_qnet_max             =   2.7788634929894E+02
(PID.TID 0000.0001) %MON forcing_qnet_min             =  -1.7929075000358E+02
(PID.TID 0000.0001) %MON forcing_qnet_mean            =  -3.7427706165760E+00
(PID.TID 0000.0001) %MON forcing_qnet_sd              =   5.4544358253022E+01
(PID.TID 0000.0001) %MON forcing_qnet_del2            =   4.2997671557196E-01
(PID.TID 0000.0001) %MON forcing_qsw_max              =   0.0000000000000E+00
(PID.TID 0000.0001) %MON forcing_qsw_min              =   0.0000000000000E+00
(PID.TID 0000.0001) %MON forcing_qsw_mean             =   0.0000000000000E+00
(PID.TID 0000.0001) %MON forcing_qsw_sd               =   0.0000000000000E+00
(PID.TID 0000.0001) %MON forcing_qsw_del2             =   0.0000000000000E+00
(PID.TID 0000.0001) %MON forcing_empmr_max            =   7.6494447208479E-05
(PID.TID 0000.0001) %MON forcing_empmr_min            =  -1.5362614137596E-04
(PID.TID 0000.0001) %MON forcing_empmr_mean           =   8.3865596020288E-22
(PID.TID 0000.0001) %MON forcing_empmr_sd             =   2.4051723601802E-05
(PID.TID 0000.0001) %MON forcing_empmr_del2           =   1.2276157049243E-07
(PID.TID 0000.0001) %MON forcing_fu_max               =   2.6392038518372E-01
(PID.TID 0000.0001) %MON forcing_fu_min               =  -3.2389958558212E-01
(PID.TID 0000.0001) %MON forcing_fu_mean              =  -8.6045663959219E-03
(PID.TID 0000.0001) %MON forcing_fu_sd                =   7.1039274614316E-02
(PID.TID 0000.0001) %MON forcing_fu_del2              =   2.0573791813359E-04
(PID.TID 0000.0001) %MON forcing_fv_max               =   2.0525447557160E-01
(PID.TID 0000.0001) %MON forcing_fv_min               =  -3.2829180536742E-01
(PID.TID 0000.0001) %MON forcing_fv_mean              =  -1.2776917028956E-02
(PID.TID 0000.0001) %MON forcing_fv_sd                =   7.5989258634212E-02
(PID.TID 0000.0001) %MON forcing_fv_del2              =   2.2862100305047E-04
(PID.TID 0000.0001) %MON trAdv_CFL_u_max              =   7.1171214688801E-02
(PID.TID 0000.0001) %MON trAdv_CFL_v_max              =   7.9907926016420E-02
(PID.TID 0000.0001) %MON trAdv_CFL_w_max              =   7.0264178462554E-02
(PID.TID 0000.0001) %MON advcfl_uvel_max              =   7.6164185375738E-02
(PID.TID 0000.0001) %MON advcfl_vvel_max              =   7.5102272516081E-02
(PID.TID 0000.0001) %MON advcfl_wvel_max              =   6.3610342145205E-02
(PID.TID 0000.0001) %MON advcfl_W_hf_max              =   7.0264178462554E-02
(PID.TID 0000.0001) %MON pe_b_mean                    =   4.8074610979796E-04
(PID.TID 0000.0001) %MON ke_max                       =   3.3841454439247E-02
(PID.TID 0000.0001) %MON ke_mean                      =   1.3914294155600E-04
(PID.TID 0000.0001) %MON ke_vol                       =   1.3398024453628E+18
(PID.TID 0000.0001) %MON vort_r_min                   =  -1.3185630214198E-06
(PID.TID 0000.0001) %MON vort_r_max                   =   1.3128654484890E-06
(PID.TID 0000.0001) %MON vort_a_mean                  =  -2.0493733748264E-05
(PID.TID 0000.0001) %MON vort_a_sd                    =   7.5053956159078E-05
(PID.TID 0000.0001) %MON vort_p_mean                  =  -2.4715770632898E-05
(PID.TID 0000.0001) %MON vort_p_sd                    =   1.2777069280281E-04
(PID.TID 0000.0001) %MON surfExpan_theta_mean         =   5.6879994466997E-08
(PID.TID 0000.0001) %MON surfExpan_salt_mean          =   1.5727482564072E-08
(PID.TID 0000.0001) // =======================================================
(PID.TID 0000.0001) // End MONITOR dynamic field statistics
(PID.TID 0000.0001) // =======================================================
 DRIVER_GET_EXPORT_STATE_3D:MASK : Associated & shape =          32          32          15
  Finished plug run method 
 AGCM Date: 2000/04/15  Time: 18:30:00
  Starting plug run method 
 EXTERNAL_FIELDS_LOAD,     72086 : iP,iLd,i0,i1=    3    4    3    4 ; Wght=  0.6333333333  0.3666666667
 cg2d: Sum(rhs),rhsMax =  -2.31636931857793E-12  4.20585858420454E+00
(PID.TID 0000.0001)      cg2d_init_res =   2.77815190009472E-02
(PID.TID 0000.0001)      cg2d_iters(min,last) =      -1      85
(PID.TID 0000.0001)      cg2d_last_res =   8.50514630500340E-10
(PID.TID 0000.0001) // =======================================================
(PID.TID 0000.0001) // Begin MONITOR dynamic field statistics
(PID.TID 0000.0001) // =======================================================
(PID.TID 0000.0001) %MON time_tsnumber                =                 72087
(PID.TID 0000.0001) %MON time_secondsf                =   6.2283168000000E+09
(PID.TID 0000.0001) %MON dynstat_eta_max              =   8.8832506317526E-01
(PID.TID 0000.0001) %MON dynstat_eta_min              =  -1.6046403130743E+00
(PID.TID 0000.0001) %MON dynstat_eta_mean             =   1.4592452685586E-14
(PID.TID 0000.0001) %MON dynstat_eta_sd               =   6.0073532416725E-01
(PID.TID 0000.0001) %MON dynstat_eta_del2             =   8.1688232339447E-04
(PID.TID 0000.0001) %MON dynstat_uvel_max             =   1.9490200118707E-01
(PID.TID 0000.0001) %MON dynstat_uvel_min             =  -2.4660617139066E-01
(PID.TID 0000.0001) %MON dynstat_uvel_mean            =  -4.4131198071225E-04
(PID.TID 0000.0001) %MON dynstat_uvel_sd              =   1.1857030959740E-02
(PID.TID 0000.0001) %MON dynstat_uvel_del2            =   5.1823524652354E-05
(PID.TID 0000.0001) %MON dynstat_vvel_max             =   1.7205817426292E-01
(PID.TID 0000.0001) %MON dynstat_vvel_min             =  -2.2169277979134E-01
(PID.TID 0000.0001) %MON dynstat_vvel_mean            =  -3.5212768861619E-04
(PID.TID 0000.0001) %MON dynstat_vvel_sd              =   1.2659969654124E-02
(PID.TID 0000.0001) %MON dynstat_vvel_del2            =   5.0601509317952E-05
(PID.TID 0000.0001) %MON dynstat_wvel_max             =   1.0529910621175E-04
(PID.TID 0000.0001) %MON dynstat_wvel_min             =  -1.9501806666212E-04
(PID.TID 0000.0001) %MON dynstat_wvel_mean            =   1.0910913271752E-10
(PID.TID 0000.0001) %MON dynstat_wvel_sd              =   3.5106021640628E-06
(PID.TID 0000.0001) %MON dynstat_wvel_del2            =   2.6811690107144E-08
(PID.TID 0000.0001) %MON dynstat_theta_max            =   3.1471757693069E+01
(PID.TID 0000.0001) %MON dynstat_theta_min            =  -4.1155615368139E+00
(PID.TID 0000.0001) %MON dynstat_theta_mean           =   3.9131358155089E+00
(PID.TID 0000.0001) %MON dynstat_theta_sd             =   4.5894118473984E+00
(PID.TID 0000.0001) %MON dynstat_theta_del2           =   2.8133973031232E-03
(PID.TID 0000.0001) %MON dynstat_salt_max             =   4.1442126347263E+01
(PID.TID 0000.0001) %MON dynstat_salt_min             =   1.8419022444258E+01
(PID.TID 0000.0001) %MON dynstat_salt_mean            =   3.4772147679452E+01
(PID.TID 0000.0001) %MON dynstat_salt_sd              =   5.3113155702950E-01
(PID.TID 0000.0001) %MON dynstat_salt_del2            =   8.4840061449038E-04
(PID.TID 0000.0001) %MON dynstat_sst_max              =   3.1471757693069E+01
(PID.TID 0000.0001) %MON dynstat_sst_min              =  -1.9885878986158E+00
(PID.TID 0000.0001) %MON dynstat_sst_mean             =   1.8388817636414E+01
(PID.TID 0000.0001) %MON dynstat_sst_sd               =   1.0081568598478E+01
(PID.TID 0000.0001) %MON dynstat_sst_del2             =   1.6915854471153E-02
(PID.TID 0000.0001) %MON dynstat_sss_max              =   4.1442126347263E+01
(PID.TID 0000.0001) %MON dynstat_sss_min              =   1.8419022444258E+01
(PID.TID 0000.0001) %MON dynstat_sss_mean             =   3.4620570362710E+01
(PID.TID 0000.0001) %MON dynstat_sss_sd               =   1.4538611713867E+00
(PID.TID 0000.0001) %MON dynstat_sss_del2             =   8.5438472541273E-03
(PID.TID 0000.0001) %MON forcing_qnet_max             =   2.7299363389905E+02
(PID.TID 0000.0001) %MON forcing_qnet_min             =  -1.7874602240036E+02
(PID.TID 0000.0001) %MON forcing_qnet_mean            =  -3.3570837180235E+00
(PID.TID 0000.0001) %MON forcing_qnet_sd              =   5.4309419529200E+01
(PID.TID 0000.0001) %MON forcing_qnet_del2            =   4.2809692888170E-01
(PID.TID 0000.0001) %MON forcing_qsw_max              =   0.0000000000000E+00
(PID.TID 0000.0001) %MON forcing_qsw_min              =   0.0000000000000E+00
(PID.TID 0000.0001) %MON forcing_qsw_mean             =   0.0000000000000E+00
(PID.TID 0000.0001) %MON forcing_qsw_sd               =   0.0000000000000E+00
(PID.TID 0000.0001) %MON forcing_qsw_del2             =   0.0000000000000E+00
(PID.TID 0000.0001) %MON forcing_empmr_max            =   7.6494447208479E-05
(PID.TID 0000.0001) %MON forcing_empmr_min            =  -1.5362614137596E-04
(PID.TID 0000.0001) %MON forcing_empmr_mean           =   0.0000000000000E+00
(PID.TID 0000.0001) %MON forcing_empmr_sd             =   2.4051723601802E-05
(PID.TID 0000.0001) %MON forcing_empmr_del2           =   1.2276157049243E-07
(PID.TID 0000.0001) %MON forcing_fu_max               =   2.6454920895687E-01
(PID.TID 0000.0001) %MON forcing_fu_min               =  -3.2174880124645E-01
(PID.TID 0000.0001) %MON forcing_fu_mean              =  -8.6045786974809E-03
(PID.TID 0000.0001) %MON forcing_fu_sd                =   7.1158132122744E-02
(PID.TID 0000.0001) %MON forcing_fu_del2              =   2.0471746939629E-04
(PID.TID 0000.0001) %MON forcing_fv_max               =   2.0368789893857E-01
(PID.TID 0000.0001) %MON forcing_fv_min               =  -3.2732503647900E-01
(PID.TID 0000.0001) %MON forcing_fv_mean              =  -1.2789581391883E-02
(PID.TID 0000.0001) %MON forcing_fv_sd                =   7.5662475330170E-02
(PID.TID 0000.0001) %MON forcing_fv_del2              =   2.2651693888989E-04
(PID.TID 0000.0001) %MON trAdv_CFL_u_max              =   7.1196461091476E-02
(PID.TID 0000.0001) %MON trAdv_CFL_v_max              =   7.9796708628202E-02
(PID.TID 0000.0001) %MON trAdv_CFL_w_max              =   7.0234247444327E-02
(PID.TID 0000.0001) %MON advcfl_uvel_max              =   7.6191201958209E-02
(PID.TID 0000.0001) %MON advcfl_vvel_max              =   7.4997734168797E-02
(PID.TID 0000.0001) %MON advcfl_wvel_max              =   6.3583248904177E-02
(PID.TID 0000.0001) %MON advcfl_W_hf_max              =   7.0234247444327E-02
(PID.TID 0000.0001) %MON pe_b_mean                    =   4.8076275211815E-04
(PID.TID 0000.0001) %MON ke_max                       =   3.3790064390087E-02
(PID.TID 0000.0001) %MON ke_mean                      =   1.3909094156171E-04
(PID.TID 0000.0001) %MON ke_vol                       =   1.3398024453628E+18
(PID.TID 0000.0001) %MON vort_r_min                   =  -1.3180917730692E-06
(PID.TID 0000.0001) %MON vort_r_max                   =   1.3204366552167E-06
(PID.TID 0000.0001) %MON vort_a_mean                  =  -2.0493733748264E-05
(PID.TID 0000.0001) %MON vort_a_sd                    =   7.5053956292043E-05
(PID.TID 0000.0001) %MON vort_p_mean                  =  -2.4715770664266E-05
(PID.TID 0000.0001) %MON vort_p_sd                    =   1.2777069150142E-04
(PID.TID 0000.0001) %MON surfExpan_theta_mean         =   5.7250678312326E-08
(PID.TID 0000.0001) %MON surfExpan_salt_mean          =   1.5821753972124E-08
(PID.TID 0000.0001) // =======================================================
(PID.TID 0000.0001) // End MONITOR dynamic field statistics
(PID.TID 0000.0001) // =======================================================
 DRIVER_GET_EXPORT_STATE_3D:MASK : Associated & shape =          32          32          15
  Finished plug run method 
 AGCM Date: 2000/04/15  Time: 18:45:00
  Starting plug run method 
 EXTERNAL_FIELDS_LOAD,     72087 : iP,iLd,i0,i1=    3    4    3    4 ; Wght=  0.6000000000  0.4000000000
 cg2d: Sum(rhs),rhsMax =  -2.29505303650512E-12  4.20534343950251E+00
(PID.TID 0000.0001)      cg2d_init_res =   2.76236534547496E-02
(PID.TID 0000.0001)      cg2d_iters(min,last) =      -1      85
(PID.TID 0000.0001)      cg2d_last_res =   9.59909063517554E-10
(PID.TID 0000.0001) // =======================================================
(PID.TID 0000.0001) // Begin MONITOR dynamic field statistics
(PID.TID 0000.0001) // =======================================================
(PID.TID 0000.0001) %MON time_tsnumber                =                 72088
(PID.TID 0000.0001) %MON time_secondsf                =   6.2284032000000E+09
(PID.TID 0000.0001) %MON dynstat_eta_max              =   8.8885411761927E-01
(PID.TID 0000.0001) %MON dynstat_eta_min              =  -1.6048624222853E+00
(PID.TID 0000.0001) %MON dynstat_eta_mean             =   1.4400085136058E-14
(PID.TID 0000.0001) %MON dynstat_eta_sd               =   6.0073273364289E-01
(PID.TID 0000.0001) %MON dynstat_eta_del2             =   8.1689212806701E-04
(PID.TID 0000.0001) %MON dynstat_uvel_max             =   1.9503416179646E-01
(PID.TID 0000.0001) %MON dynstat_uvel_min             =  -2.4633839791725E-01
(PID.TID 0000.0001) %MON dynstat_uvel_mean            =  -4.4100473679690E-04
(PID.TID 0000.0001) %MON dynstat_uvel_sd              =   1.1856418307023E-02
(PID.TID 0000.0001) %MON dynstat_uvel_del2            =   5.1814479455727E-05
(PID.TID 0000.0001) %MON dynstat_vvel_max             =   1.7178975612657E-01
(PID.TID 0000.0001) %MON dynstat_vvel_min             =  -2.2157641552196E-01
(PID.TID 0000.0001) %MON dynstat_vvel_mean            =  -3.5128398393046E-04
(PID.TID 0000.0001) %MON dynstat_vvel_sd              =   1.2655797273711E-02
(PID.TID 0000.0001) %MON dynstat_vvel_del2            =   5.0592697584056E-05
(PID.TID 0000.0001) %MON dynstat_wvel_max             =   1.0513094720429E-04
(PID.TID 0000.0001) %MON dynstat_wvel_min             =  -1.9493944812490E-04
(PID.TID 0000.0001) %MON dynstat_wvel_mean            =   1.2525745463852E-10
(PID.TID 0000.0001) %MON dynstat_wvel_sd              =   3.5103575223563E-06
(PID.TID 0000.0001) %MON dynstat_wvel_del2            =   2.6817654617850E-08
(PID.TID 0000.0001) %MON dynstat_theta_max            =   3.1474330888928E+01
(PID.TID 0000.0001) %MON dynstat_theta_min            =  -4.1069549564182E+00
(PID.TID 0000.0001) %MON dynstat_theta_mean           =   3.9131285807264E+00
(PID.TID 0000.0001) %MON dynstat_theta_sd             =   4.5895540009486E+00
(PID.TID 0000.0001) %MON dynstat_theta_del2           =   2.8120010718059E-03
(PID.TID 0000.0001) %MON dynstat_salt_max             =   4.1441800206089E+01
(PID.TID 0000.0001) %MON dynstat_salt_min             =   1.8419167145435E+01
(PID.TID 0000.0001) %MON dynstat_salt_mean            =   3.4772148898815E+01
(PID.TID 0000.0001) %MON dynstat_salt_sd              =   5.3112704278636E-01
(PID.TID 0000.0001) %MON dynstat_salt_del2            =   8.4842934019225E-04
(PID.TID 0000.0001) %MON dynstat_sst_max              =   3.1474330888928E+01
(PID.TID 0000.0001) %MON dynstat_sst_min              =  -1.9884078891041E+00
(PID.TID 0000.0001) %MON dynstat_sst_mean             =   1.8385468194894E+01
(PID.TID 0000.0001) %MON dynstat_sst_sd               =   1.0089207498734E+01
(PID.TID 0000.0001) %MON dynstat_sst_del2             =   1.6867590120286E-02
(PID.TID 0000.0001) %MON dynstat_sss_max              =   4.1441800206089E+01
(PID.TID 0000.0001) %MON dynstat_sss_min              =   1.8419167145435E+01
(PID.TID 0000.0001) %MON dynstat_sss_mean             =   3.4620566182679E+01
(PID.TID 0000.0001) %MON dynstat_sss_sd               =   1.4538075806983E+00
(PID.TID 0000.0001) %MON dynstat_sss_del2             =   8.5452771925792E-03
(PID.TID 0000.0001) %MON forcing_qnet_max             =   2.6810091849915E+02
(PID.TID 0000.0001) %MON forcing_qnet_min             =  -1.7820129479713E+02
(PID.TID 0000.0001) %MON forcing_qnet_mean            =  -2.9713968194710E+00
(PID.TID 0000.0001) %MON forcing_qnet_sd              =   5.4142217772218E+01
(PID.TID 0000.0001) %MON forcing_qnet_del2            =   4.2634200482031E-01
(PID.TID 0000.0001) %MON forcing_qsw_max              =   0.0000000000000E+00
(PID.TID 0000.0001) %MON forcing_qsw_min              =   0.0000000000000E+00
(PID.TID 0000.0001) %MON forcing_qsw_mean             =   0.0000000000000E+00
(PID.TID 0000.0001) %MON forcing_qsw_sd               =   0.0000000000000E+00
(PID.TID 0000.0001) %MON forcing_qsw_del2             =   0.0000000000000E+00
(PID.TID 0000.0001) %MON forcing_empmr_max            =   7.6494447208479E-05
(PID.TID 0000.0001) %MON forcing_empmr_min            =  -1.5362614137596E-04
(PID.TID 0000.0001) %MON forcing_empmr_mean           =   4.1932798010144E-22
(PID.TID 0000.0001) %MON forcing_empmr_sd             =   2.4051723601802E-05
(PID.TID 0000.0001) %MON forcing_empmr_del2           =   1.2276157049243E-07
(PID.TID 0000.0001) %MON forcing_fu_max               =   2.6517803273003E-01
(PID.TID 0000.0001) %MON forcing_fu_min               =  -3.2237697723938E-01
(PID.TID 0000.0001) %MON forcing_fu_mean              =  -8.6045909990399E-03
(PID.TID 0000.0001) %MON forcing_fu_sd                =   7.1295116384849E-02
(PID.TID 0000.0001) %MON forcing_fu_del2              =   2.0397598061911E-04
(PID.TID 0000.0001) %MON forcing_fv_max               =   2.0212132230554E-01
(PID.TID 0000.0001) %MON forcing_fv_min               =  -3.2635826759058E-01
(PID.TID 0000.0001) %MON forcing_fv_mean              =  -1.2802245754810E-02
(PID.TID 0000.0001) %MON forcing_fv_sd                =   7.5361371125500E-02
(PID.TID 0000.0001) %MON forcing_fv_del2              =   2.2472105051375E-04
(PID.TID 0000.0001) %MON trAdv_CFL_u_max              =   7.1212982303357E-02
(PID.TID 0000.0001) %MON trAdv_CFL_v_max              =   7.9672232468368E-02
(PID.TID 0000.0001) %MON trAdv_CFL_w_max              =   7.0205926277763E-02
(PID.TID 0000.0001) %MON advcfl_uvel_max              =   7.6208881166919E-02
(PID.TID 0000.0001) %MON advcfl_vvel_max              =   7.4880734484693E-02
(PID.TID 0000.0001) %MON advcfl_wvel_max              =   6.3557616294309E-02
(PID.TID 0000.0001) %MON advcfl_W_hf_max              =   7.0205926277763E-02
(PID.TID 0000.0001) %MON pe_b_mean                    =   4.8075860578320E-04
(PID.TID 0000.0001) %MON ke_max                       =   3.3737563346063E-02
(PID.TID 0000.0001) %MON ke_mean                      =   1.3903485949273E-04
(PID.TID 0000.0001) %MON ke_vol                       =   1.3398024453628E+18
(PID.TID 0000.0001) %MON vort_r_min                   =  -1.3176277833423E-06
(PID.TID 0000.0001) %MON vort_r_max                   =   1.3278444103306E-06
(PID.TID 0000.0001) %MON vort_a_mean                  =  -2.0493733748264E-05
(PID.TID 0000.0001) %MON vort_a_sd                    =   7.5053956423742E-05
(PID.TID 0000.0001) %MON vort_p_mean                  =  -2.4715770702268E-05
(PID.TID 0000.0001) %MON vort_p_sd                    =   1.2777068945834E-04
(PID.TID 0000.0001) %MON surfExpan_theta_mean         =   5.7715666237380E-08
(PID.TID 0000.0001) %MON surfExpan_salt_mean          =   1.5917362612313E-08
(PID.TID 0000.0001) // =======================================================
(PID.TID 0000.0001) // End MONITOR dynamic field statistics
(PID.TID 0000.0001) // =======================================================
 DRIVER_GET_EXPORT_STATE_3D:MASK : Associated & shape =          32          32          15
  Finished plug run method 
 AGCM Date: 2000/04/15  Time: 19:00:00
 
 Writing:     40 Slices (  1 Nodes,  1 PartitionRoot) to File:  TEST.mit_ocn.20000415_1900z.nc4
 
  Starting plug run method 
 EXTERNAL_FIELDS_LOAD,     72088 : iP,iLd,i0,i1=    3    4    3    4 ; Wght=  0.5666666667  0.4333333333
 cg2d: Sum(rhs),rhsMax =  -2.24531504500192E-12  4.20486614857545E+00
(PID.TID 0000.0001)      cg2d_init_res =   2.74608777888678E-02
(PID.TID 0000.0001)      cg2d_iters(min,last) =      -1      86
(PID.TID 0000.0001)      cg2d_last_res =   8.70122995132341E-10
(PID.TID 0000.0001) // =======================================================
(PID.TID 0000.0001) // Begin MONITOR dynamic field statistics
(PID.TID 0000.0001) // =======================================================
(PID.TID 0000.0001) %MON time_tsnumber                =                 72089
(PID.TID 0000.0001) %MON time_secondsf                =   6.2284896000000E+09
(PID.TID 0000.0001) %MON dynstat_eta_max              =   8.8959210553515E-01
(PID.TID 0000.0001) %MON dynstat_eta_min              =  -1.6050995802094E+00
(PID.TID 0000.0001) %MON dynstat_eta_mean             =   1.4482528371570E-14
(PID.TID 0000.0001) %MON dynstat_eta_sd               =   6.0071881859356E-01
(PID.TID 0000.0001) %MON dynstat_eta_del2             =   8.1689236077100E-04
(PID.TID 0000.0001) %MON dynstat_uvel_max             =   1.9515058068029E-01
(PID.TID 0000.0001) %MON dynstat_uvel_min             =  -2.4606612435208E-01
(PID.TID 0000.0001) %MON dynstat_uvel_mean            =  -4.4074737648319E-04
(PID.TID 0000.0001) %MON dynstat_uvel_sd              =   1.1855484585542E-02
(PID.TID 0000.0001) %MON dynstat_uvel_del2            =   5.1803474501708E-05
(PID.TID 0000.0001) %MON dynstat_vvel_max             =   1.7149410587058E-01
(PID.TID 0000.0001) %MON dynstat_vvel_min             =  -2.2145630684736E-01
(PID.TID 0000.0001) %MON dynstat_vvel_mean            =  -3.5051818116328E-04
(PID.TID 0000.0001) %MON dynstat_vvel_sd              =   1.2651661788375E-02
(PID.TID 0000.0001) %MON dynstat_vvel_del2            =   5.0583896470848E-05
(PID.TID 0000.0001) %MON dynstat_wvel_max             =   1.0499811951040E-04
(PID.TID 0000.0001) %MON dynstat_wvel_min             =  -1.9486629821834E-04
(PID.TID 0000.0001) %MON dynstat_wvel_mean            =   1.3688328586426E-10
(PID.TID 0000.0001) %MON dynstat_wvel_sd              =   3.5101280826471E-06
(PID.TID 0000.0001) %MON dynstat_wvel_del2            =   2.6822453800278E-08
(PID.TID 0000.0001) %MON dynstat_theta_max            =   3.1475437083145E+01
(PID.TID 0000.0001) %MON dynstat_theta_min            =  -4.0977311271080E+00
(PID.TID 0000.0001) %MON dynstat_theta_mean           =   3.9131195872000E+00
(PID.TID 0000.0001) %MON dynstat_theta_sd             =   4.5896888584854E+00
(PID.TID 0000.0001) %MON dynstat_theta_del2           =   2.8105750727865E-03
(PID.TID 0000.0001) %MON dynstat_salt_max             =   4.1441372968890E+01
(PID.TID 0000.0001) %MON dynstat_salt_min             =   1.8419327359522E+01
(PID.TID 0000.0001) %MON dynstat_salt_mean            =   3.4772150129363E+01
(PID.TID 0000.0001) %MON dynstat_salt_sd              =   5.3112251493324E-01
(PID.TID 0000.0001) %MON dynstat_salt_del2            =   8.4845669936784E-04
(PID.TID 0000.0001) %MON dynstat_sst_max              =   3.1475437083145E+01
(PID.TID 0000.0001) %MON dynstat_sst_min              =  -1.9882326855929E+00
(PID.TID 0000.0001) %MON dynstat_sst_mean             =   1.8381950492764E+01
(PID.TID 0000.0001) %MON dynstat_sst_sd               =   1.0096824527153E+01
(PID.TID 0000.0001) %MON dynstat_sst_del2             =   1.6820616870293E-02
(PID.TID 0000.0001) %MON dynstat_sss_max              =   4.1441372968890E+01
(PID.TID 0000.0001) %MON dynstat_sss_min              =   1.8419327359522E+01
(PID.TID 0000.0001) %MON dynstat_sss_mean             =   3.4620563751079E+01
(PID.TID 0000.0001) %MON dynstat_sss_sd               =   1.4537619125523E+00
(PID.TID 0000.0001) %MON dynstat_sss_del2             =   8.5470038999672E-03
(PID.TID 0000.0001) %MON forcing_qnet_max             =   2.6320820309925E+02
(PID.TID 0000.0001) %MON forcing_qnet_min             =  -1.7765656719391E+02
(PID.TID 0000.0001) %MON forcing_qnet_mean            =  -2.5857099209185E+00
(PID.TID 0000.0001) %MON forcing_qnet_sd              =   5.4043381688427E+01
(PID.TID 0000.0001) %MON forcing_qnet_del2            =   4.2471349119474E-01
(PID.TID 0000.0001) %MON forcing_qsw_max              =   0.0000000000000E+00
(PID.TID 0000.0001) %MON forcing_qsw_min              =   0.0000000000000E+00
(PID.TID 0000.0001) %MON forcing_qsw_mean             =   0.0000000000000E+00
(PID.TID 0000.0001) %MON forcing_qsw_sd               =   0.0000000000000E+00
(PID.TID 0000.0001) %MON forcing_qsw_del2             =   0.0000000000000E+00
(PID.TID 0000.0001) %MON forcing_empmr_max            =   7.6494447208479E-05
(PID.TID 0000.0001) %MON forcing_empmr_min            =  -1.5362614137596E-04
(PID.TID 0000.0001) %MON forcing_empmr_mean           =   4.1932798010144E-22
(PID.TID 0000.0001) %MON forcing_empmr_sd             =   2.4051723601802E-05
(PID.TID 0000.0001) %MON forcing_empmr_del2           =   1.2276157049243E-07
(PID.TID 0000.0001) %MON forcing_fu_max               =   2.6580685650318E-01
(PID.TID 0000.0001) %MON forcing_fu_min               =  -3.2361106149734E-01
(PID.TID 0000.0001) %MON forcing_fu_mean              =  -8.6046033005989E-03
(PID.TID 0000.0001) %MON forcing_fu_sd                =   7.1450123142802E-02
(PID.TID 0000.0001) %MON forcing_fu_del2              =   2.0351650089972E-04
(PID.TID 0000.0001) %MON forcing_fv_max               =   2.0093333982484E-01
(PID.TID 0000.0001) %MON forcing_fv_min               =  -3.2539149870215E-01
(PID.TID 0000.0001) %MON forcing_fv_mean              =  -1.2814910117737E-02
(PID.TID 0000.0001) %MON forcing_fv_sd                =   7.5086254948942E-02
(PID.TID 0000.0001) %MON forcing_fv_del2              =   2.2324077552202E-04
(PID.TID 0000.0001) %MON trAdv_CFL_u_max              =   7.1222383969226E-02
(PID.TID 0000.0001) %MON trAdv_CFL_v_max              =   7.9535126727505E-02
(PID.TID 0000.0001) %MON trAdv_CFL_w_max              =   7.0179570464951E-02
(PID.TID 0000.0001) %MON advcfl_uvel_max              =   7.6218941299540E-02
(PID.TID 0000.0001) %MON advcfl_vvel_max              =   7.4751864703289E-02
(PID.TID 0000.0001) %MON advcfl_wvel_max              =   6.3533766664394E-02
(PID.TID 0000.0001) %MON advcfl_W_hf_max              =   7.0179570464951E-02
(PID.TID 0000.0001) %MON pe_b_mean                    =   4.8073633397458E-04
(PID.TID 0000.0001) %MON ke_max                       =   3.3683916555671E-02
(PID.TID 0000.0001) %MON ke_mean                      =   1.3897577609582E-04
(PID.TID 0000.0001) %MON ke_vol                       =   1.3398024453628E+18
(PID.TID 0000.0001) %MON vort_r_min                   =  -1.3171620543773E-06
(PID.TID 0000.0001) %MON vort_r_max                   =   1.3350649247963E-06
(PID.TID 0000.0001) %MON vort_a_mean                  =  -2.0493733748264E-05
(PID.TID 0000.0001) %MON vort_a_sd                    =   7.5053956555306E-05
(PID.TID 0000.0001) %MON vort_p_mean                  =  -2.4715770746707E-05
(PID.TID 0000.0001) %MON vort_p_sd                    =   1.2777068678874E-04
(PID.TID 0000.0001) %MON surfExpan_theta_mean         =   5.8246204750480E-08
(PID.TID 0000.0001) %MON surfExpan_salt_mean          =   1.6014719498648E-08
(PID.TID 0000.0001) // =======================================================
(PID.TID 0000.0001) // End MONITOR dynamic field statistics
(PID.TID 0000.0001) // =======================================================
 DRIVER_GET_EXPORT_STATE_3D:MASK : Associated & shape =          32          32          15
  Finished plug run method 
 AGCM Date: 2000/04/15  Time: 19:15:00
  Starting plug run method 
 EXTERNAL_FIELDS_LOAD,     72089 : iP,iLd,i0,i1=    3    4    3    4 ; Wght=  0.5333333333  0.4666666667
 cg2d: Sum(rhs),rhsMax =  -2.26663132707472E-12  4.20444516073495E+00
(PID.TID 0000.0001)      cg2d_init_res =   2.73293371964300E-02
(PID.TID 0000.0001)      cg2d_iters(min,last) =      -1      86
(PID.TID 0000.0001)      cg2d_last_res =   9.20663955550937E-10
(PID.TID 0000.0001) // =======================================================
(PID.TID 0000.0001) // Begin MONITOR dynamic field statistics
(PID.TID 0000.0001) // =======================================================
(PID.TID 0000.0001) %MON time_tsnumber                =                 72090
(PID.TID 0000.0001) %MON time_secondsf                =   6.2285760000000E+09
(PID.TID 0000.0001) %MON dynstat_eta_max              =   8.9030511420358E-01
(PID.TID 0000.0001) %MON dynstat_eta_min              =  -1.6053526961721E+00
(PID.TID 0000.0001) %MON dynstat_eta_mean             =   1.4702376999602E-14
(PID.TID 0000.0001) %MON dynstat_eta_sd               =   6.0069567427769E-01
(PID.TID 0000.0001) %MON dynstat_eta_del2             =   8.1688221539885E-04
(PID.TID 0000.0001) %MON dynstat_uvel_max             =   1.9525251454826E-01
(PID.TID 0000.0001) %MON dynstat_uvel_min             =  -2.4578929932018E-01
(PID.TID 0000.0001) %MON dynstat_uvel_mean            =  -4.4053495894178E-04
(PID.TID 0000.0001) %MON dynstat_uvel_sd              =   1.1854250960941E-02
(PID.TID 0000.0001) %MON dynstat_uvel_del2            =   5.1790582866906E-05
(PID.TID 0000.0001) %MON dynstat_vvel_max             =   1.7249408307561E-01
(PID.TID 0000.0001) %MON dynstat_vvel_min             =  -2.2133257039841E-01
(PID.TID 0000.0001) %MON dynstat_vvel_mean            =  -3.4983663355714E-04
(PID.TID 0000.0001) %MON dynstat_vvel_sd              =   1.2647640753174E-02
(PID.TID 0000.0001) %MON dynstat_vvel_del2            =   5.0575467472030E-05
(PID.TID 0000.0001) %MON dynstat_wvel_max             =   1.0490366171565E-04
(PID.TID 0000.0001) %MON dynstat_wvel_min             =  -1.9479665354151E-04
(PID.TID 0000.0001) %MON dynstat_wvel_mean            =   1.4344602911496E-10
(PID.TID 0000.0001) %MON dynstat_wvel_sd              =   3.5099151105413E-06
(PID.TID 0000.0001) %MON dynstat_wvel_del2            =   2.6826200944099E-08
(PID.TID 0000.0001) %MON dynstat_theta_max            =   3.1475093509810E+01
(PID.TID 0000.0001) %MON dynstat_theta_min            =  -4.0878913428703E+00
(PID.TID 0000.0001) %MON dynstat_theta_mean           =   3.9131088914916E+00
(PID.TID 0000.0001) %MON dynstat_theta_sd             =   4.5898166020050E+00
(PID.TID 0000.0001) %MON dynstat_theta_del2           =   2.8090727245453E-03
(PID.TID 0000.0001) %MON dynstat_salt_max             =   4.1440845527509E+01
(PID.TID 0000.0001) %MON dynstat_salt_min             =   1.8419502891216E+01
(PID.TID 0000.0001) %MON dynstat_salt_mean            =   3.4772151371025E+01
(PID.TID 0000.0001) %MON dynstat_salt_sd              =   5.3111795351798E-01
(PID.TID 0000.0001) %MON dynstat_salt_del2            =   8.4847359037658E-04
(PID.TID 0000.0001) %MON dynstat_sst_max              =   3.1475093509810E+01
(PID.TID 0000.0001) %MON dynstat_sst_min              =  -1.9880622792789E+00
(PID.TID 0000.0001) %MON dynstat_sst_mean             =   1.8378208953154E+01
(PID.TID 0000.0001) %MON dynstat_sst_sd               =   1.0104444449291E+01
(PID.TID 0000.0001) %MON dynstat_sst_del2             =   1.6771492206234E-02
(PID.TID 0000.0001) %MON dynstat_sss_max              =   4.1440845527509E+01
(PID.TID 0000.0001) %MON dynstat_sss_min              =   1.8419502891216E+01
(PID.TID 0000.0001) %MON dynstat_sss_mean             =   3.4620553723045E+01
(PID.TID 0000.0001) %MON dynstat_sss_sd               =   1.4537156976577E+00
(PID.TID 0000.0001) %MON dynstat_sss_del2             =   8.5485421716209E-03
(PID.TID 0000.0001) %MON forcing_qnet_max             =   2.5831548769935E+02
(PID.TID 0000.0001) %MON forcing_qnet_min             =  -1.7711183959068E+02
(PID.TID 0000.0001) %MON forcing_qnet_mean            =  -2.2000230223660E+00
(PID.TID 0000.0001) %MON forcing_qnet_sd              =   5.4013286575424E+01
(PID.TID 0000.0001) %MON forcing_qnet_del2            =   4.2321284728114E-01
(PID.TID 0000.0001) %MON forcing_qsw_max              =   0.0000000000000E+00
(PID.TID 0000.0001) %MON forcing_qsw_min              =   0.0000000000000E+00
(PID.TID 0000.0001) %MON forcing_qsw_mean             =   0.0000000000000E+00
(PID.TID 0000.0001) %MON forcing_qsw_sd               =   0.0000000000000E+00
(PID.TID 0000.0001) %MON forcing_qsw_del2             =   0.0000000000000E+00
(PID.TID 0000.0001) %MON forcing_empmr_max            =   7.6494447208479E-05
(PID.TID 0000.0001) %MON forcing_empmr_min            =  -1.5362614137596E-04
(PID.TID 0000.0001) %MON forcing_empmr_mean           =   4.1932798010144E-22
(PID.TID 0000.0001) %MON forcing_empmr_sd             =   2.4051723601802E-05
(PID.TID 0000.0001) %MON forcing_empmr_del2           =   1.2276157049243E-07
(PID.TID 0000.0001) %MON forcing_fu_max               =   2.6643568027634E-01
(PID.TID 0000.0001) %MON forcing_fu_min               =  -3.2484514575530E-01
(PID.TID 0000.0001) %MON forcing_fu_mean              =  -8.6046156021580E-03
(PID.TID 0000.0001) %MON forcing_fu_sd                =   7.1623035383705E-02
(PID.TID 0000.0001) %MON forcing_fu_del2              =   2.0334094197389E-04
(PID.TID 0000.0001) %MON forcing_fv_max               =   2.0001411394083E-01
(PID.TID 0000.0001) %MON forcing_fv_min               =  -3.2442472981373E-01
(PID.TID 0000.0001) %MON forcing_fv_mean              =  -1.2827574480664E-02
(PID.TID 0000.0001) %MON forcing_fv_sd                =   7.4837413411441E-02
(PID.TID 0000.0001) %MON forcing_fv_del2              =   2.2208242510170E-04
(PID.TID 0000.0001) %MON trAdv_CFL_u_max              =   7.1226300527147E-02
(PID.TID 0000.0001) %MON trAdv_CFL_v_max              =   7.9386104013615E-02
(PID.TID 0000.0001) %MON trAdv_CFL_w_max              =   7.0154474278432E-02
(PID.TID 0000.0001) %MON advcfl_uvel_max              =   7.6223131464292E-02
(PID.TID 0000.0001) %MON advcfl_vvel_max              =   7.4611794431652E-02
(PID.TID 0000.0001) %MON advcfl_wvel_max              =   6.3511059871648E-02
(PID.TID 0000.0001) %MON advcfl_W_hf_max              =   7.0154474278432E-02
(PID.TID 0000.0001) %MON pe_b_mean                    =   4.8069929135536E-04
(PID.TID 0000.0001) %MON ke_max                       =   3.3629092796725E-02
(PID.TID 0000.0001) %MON ke_mean                      =   1.3891483231001E-04
(PID.TID 0000.0001) %MON ke_vol                       =   1.3398024453628E+18
(PID.TID 0000.0001) %MON vort_r_min                   =  -1.3166852266644E-06
(PID.TID 0000.0001) %MON vort_r_max                   =   1.3420643298522E-06
(PID.TID 0000.0001) %MON vort_a_mean                  =  -2.0493733748264E-05
(PID.TID 0000.0001) %MON vort_a_sd                    =   7.5053956687831E-05
(PID.TID 0000.0001) %MON vort_p_mean                  =  -2.4715770796942E-05
(PID.TID 0000.0001) %MON vort_p_sd                    =   1.2777068362769E-04
(PID.TID 0000.0001) %MON surfExpan_theta_mean         =   5.8819904829793E-08
(PID.TID 0000.0001) %MON surfExpan_salt_mean          =   1.6114833289287E-08
(PID.TID 0000.0001) // =======================================================
(PID.TID 0000.0001) // End MONITOR dynamic field statistics
(PID.TID 0000.0001) // =======================================================
 DRIVER_GET_EXPORT_STATE_3D:MASK : Associated & shape =          32          32          15
  Finished plug run method 
 AGCM Date: 2000/04/15  Time: 19:30:00
  Starting plug run method 
 EXTERNAL_FIELDS_LOAD,     72090 : iP,iLd,i0,i1=    3    4    3    4 ; Wght=  0.5000000000  0.5000000000
 cg2d: Sum(rhs),rhsMax =  -2.31636931857793E-12  4.20409737325364E+00
(PID.TID 0000.0001)      cg2d_init_res =   2.72249525335586E-02
(PID.TID 0000.0001)      cg2d_iters(min,last) =      -1      86
(PID.TID 0000.0001)      cg2d_last_res =   9.59211200799588E-10
(PID.TID 0000.0001) // =======================================================
(PID.TID 0000.0001) // Begin MONITOR dynamic field statistics
(PID.TID 0000.0001) // =======================================================
(PID.TID 0000.0001) %MON time_tsnumber                =                 72091
(PID.TID 0000.0001) %MON time_secondsf                =   6.2286624000000E+09
(PID.TID 0000.0001) %MON dynstat_eta_max              =   8.9099719052364E-01
(PID.TID 0000.0001) %MON dynstat_eta_min              =  -1.6056217584076E+00
(PID.TID 0000.0001) %MON dynstat_eta_mean             =   1.4537490528578E-14
(PID.TID 0000.0001) %MON dynstat_eta_sd               =   6.0066573012889E-01
(PID.TID 0000.0001) %MON dynstat_eta_del2             =   8.1686288851660E-04
(PID.TID 0000.0001) %MON dynstat_uvel_max             =   1.9534124950737E-01
(PID.TID 0000.0001) %MON dynstat_uvel_min             =  -2.4550787940392E-01
(PID.TID 0000.0001) %MON dynstat_uvel_mean            =  -4.4035971507884E-04
(PID.TID 0000.0001) %MON dynstat_uvel_sd              =   1.1852747715562E-02
(PID.TID 0000.0001) %MON dynstat_uvel_del2            =   5.1775884813809E-05
(PID.TID 0000.0001) %MON dynstat_vvel_max             =   1.7399243183261E-01
(PID.TID 0000.0001) %MON dynstat_vvel_min             =  -2.2120530137911E-01
(PID.TID 0000.0001) %MON dynstat_vvel_mean            =  -3.4924427235925E-04
(PID.TID 0000.0001) %MON dynstat_vvel_sd              =   1.2643806836872E-02
(PID.TID 0000.0001) %MON dynstat_vvel_del2            =   5.0567721297744E-05
(PID.TID 0000.0001) %MON dynstat_wvel_max             =   1.0484965781941E-04
(PID.TID 0000.0001) %MON dynstat_wvel_min             =  -1.9472802161263E-04
(PID.TID 0000.0001) %MON dynstat_wvel_mean            =   1.4417187412434E-10
(PID.TID 0000.0001) %MON dynstat_wvel_sd              =   3.5097294658128E-06
(PID.TID 0000.0001) %MON dynstat_wvel_del2            =   2.6828956817955E-08
(PID.TID 0000.0001) %MON dynstat_theta_max            =   3.1473318410741E+01
(PID.TID 0000.0001) %MON dynstat_theta_min            =  -4.0774367324080E+00
(PID.TID 0000.0001) %MON dynstat_theta_mean           =   3.9130965340308E+00
(PID.TID 0000.0001) %MON dynstat_theta_sd             =   4.5899375278541E+00
(PID.TID 0000.0001) %MON dynstat_theta_del2           =   2.8074371238326E-03
(PID.TID 0000.0001) %MON dynstat_salt_max             =   4.1440218512471E+01
(PID.TID 0000.0001) %MON dynstat_salt_min             =   1.8419693477939E+01
(PID.TID 0000.0001) %MON dynstat_salt_mean            =   3.4772152623903E+01
(PID.TID 0000.0001) %MON dynstat_salt_sd              =   5.3111336774869E-01
(PID.TID 0000.0001) %MON dynstat_salt_del2            =   8.4845623466405E-04
(PID.TID 0000.0001) %MON dynstat_sst_max              =   3.1473318410741E+01
(PID.TID 0000.0001) %MON dynstat_sst_min              =  -1.9878964889529E+00
(PID.TID 0000.0001) %MON dynstat_sst_mean             =   1.8374305649639E+01
(PID.TID 0000.0001) %MON dynstat_sst_sd               =   1.0112048156815E+01
(PID.TID 0000.0001) %MON dynstat_sst_del2             =   1.6722122652299E-02
(PID.TID 0000.0001) %MON dynstat_sss_max              =   4.1440218512471E+01
(PID.TID 0000.0001) %MON dynstat_sss_min              =   1.8419693477939E+01
(PID.TID 0000.0001) %MON dynstat_sss_mean             =   3.4620541498243E+01
(PID.TID 0000.0001) %MON dynstat_sss_sd               =   1.4536733775355E+00
(PID.TID 0000.0001) %MON dynstat_sss_del2             =   8.5499510533624E-03
(PID.TID 0000.0001) %MON forcing_qnet_max             =   2.5342277229945E+02
(PID.TID 0000.0001) %MON forcing_qnet_min             =  -1.7656711198746E+02
(PID.TID 0000.0001) %MON forcing_qnet_mean            =  -1.8143361238135E+00
(PID.TID 0000.0001) %MON forcing_qnet_sd              =   5.4052047254176E+01
(PID.TID 0000.0001) %MON forcing_qnet_del2            =   4.2184143771940E-01
(PID.TID 0000.0001) %MON forcing_qsw_max              =   0.0000000000000E+00
(PID.TID 0000.0001) %MON forcing_qsw_min              =   0.0000000000000E+00
(PID.TID 0000.0001) %MON forcing_qsw_mean             =   0.0000000000000E+00
(PID.TID 0000.0001) %MON forcing_qsw_sd               =   0.0000000000000E+00
(PID.TID 0000.0001) %MON forcing_qsw_del2             =   0.0000000000000E+00
(PID.TID 0000.0001) %MON forcing_empmr_max            =   7.6494447208479E-05
(PID.TID 0000.0001) %MON forcing_empmr_min            =  -1.5362614137596E-04
(PID.TID 0000.0001) %MON forcing_empmr_mean           =   4.1932798010144E-22
(PID.TID 0000.0001) %MON forcing_empmr_sd             =   2.4051723601802E-05
(PID.TID 0000.0001) %MON forcing_empmr_del2           =   1.2276157049243E-07
(PID.TID 0000.0001) %MON forcing_fu_max               =   2.6706450404949E-01
(PID.TID 0000.0001) %MON forcing_fu_min               =  -3.2607923001326E-01
(PID.TID 0000.0001) %MON forcing_fu_mean              =  -8.6046279037170E-03
(PID.TID 0000.0001) %MON forcing_fu_sd                =   7.1813723769839E-02
(PID.TID 0000.0001) %MON forcing_fu_del2              =   2.0345003883663E-04
(PID.TID 0000.0001) %MON forcing_fv_max               =   2.0032899804423E-01
(PID.TID 0000.0001) %MON forcing_fv_min               =  -3.2345796092531E-01
(PID.TID 0000.0001) %MON forcing_fv_mean              =  -1.2840238843591E-02
(PID.TID 0000.0001) %MON forcing_fv_sd                =   7.4615109391381E-02
(PID.TID 0000.0001) %MON forcing_fv_del2              =   2.2125105557747E-04
(PID.TID 0000.0001) %MON trAdv_CFL_u_max              =   7.1226372310629E-02
(PID.TID 0000.0001) %MON trAdv_CFL_v_max              =   7.9225959548679E-02
(PID.TID 0000.0001) %MON trAdv_CFL_w_max              =   7.0129740145440E-02
(PID.TID 0000.0001) %MON advcfl_uvel_max              =   7.6223207075992E-02
(PID.TID 0000.0001) %MON advcfl_vvel_max              =   7.4461270894731E-02
(PID.TID 0000.0001) %MON advcfl_wvel_max              =   6.3488683272947E-02
(PID.TID 0000.0001) %MON advcfl_W_hf_max              =   7.0129740145440E-02
(PID.TID 0000.0001) %MON pe_b_mean                    =   4.8065136767967E-04
(PID.TID 0000.0001) %MON ke_max                       =   3.3573064204299E-02
(PID.TID 0000.0001) %MON ke_mean                      =   1.3885320846627E-04
(PID.TID 0000.0001) %MON ke_vol                       =   1.3398024453628E+18
(PID.TID 0000.0001) %MON vort_r_min                   =  -1.3161877189171E-06
(PID.TID 0000.0001) %MON vort_r_max                   =   1.3488248301550E-06
(PID.TID 0000.0001) %MON vort_a_mean                  =  -2.0493733748264E-05
(PID.TID 0000.0001) %MON vort_a_sd                    =   7.5053956822468E-05
(PID.TID 0000.0001) %MON vort_p_mean                  =  -2.4715770852136E-05
(PID.TID 0000.0001) %MON vort_p_sd                    =   1.2777068012780E-04
(PID.TID 0000.0001) %MON surfExpan_theta_mean         =   5.9408175536256E-08
(PID.TID 0000.0001) %MON surfExpan_salt_mean          =   1.6218878261108E-08
(PID.TID 0000.0001) // =======================================================
(PID.TID 0000.0001) // End MONITOR dynamic field statistics
(PID.TID 0000.0001) // =======================================================
 DRIVER_GET_EXPORT_STATE_3D:MASK : Associated & shape =          32          32          15
  Finished plug run method 
 AGCM Date: 2000/04/15  Time: 19:45:00
  Starting plug run method 
 EXTERNAL_FIELDS_LOAD,     72091 : iP,iLd,i0,i1=    3    4    3    4 ; Wght=  0.4666666667  0.5333333333
 cg2d: Sum(rhs),rhsMax =  -2.35189645536593E-12  4.20383801830756E+00
(PID.TID 0000.0001)      cg2d_init_res =   2.71423888110356E-02
(PID.TID 0000.0001)      cg2d_iters(min,last) =      -1      86
(PID.TID 0000.0001)      cg2d_last_res =   9.88501010518269E-10
(PID.TID 0000.0001) // =======================================================
(PID.TID 0000.0001) // Begin MONITOR dynamic field statistics
(PID.TID 0000.0001) // =======================================================
(PID.TID 0000.0001) %MON time_tsnumber                =                 72092
(PID.TID 0000.0001) %MON time_secondsf                =   6.2287488000000E+09
(PID.TID 0000.0001) %MON dynstat_eta_max              =   8.9167279082346E-01
(PID.TID 0000.0001) %MON dynstat_eta_min              =  -1.6059056675709E+00
(PID.TID 0000.0001) %MON dynstat_eta_mean             =   1.3987868958499E-14
(PID.TID 0000.0001) %MON dynstat_eta_sd               =   6.0063159442733E-01
(PID.TID 0000.0001) %MON dynstat_eta_del2             =   8.1683155155021E-04
(PID.TID 0000.0001) %MON dynstat_uvel_max             =   1.9541808798870E-01
(PID.TID 0000.0001) %MON dynstat_uvel_min             =  -2.4522182990518E-01
(PID.TID 0000.0001) %MON dynstat_uvel_mean            =  -4.4021199224329E-04
(PID.TID 0000.0001) %MON dynstat_uvel_sd              =   1.1851012115230E-02
(PID.TID 0000.0001) %MON dynstat_uvel_del2            =   5.1759486835135E-05
(PID.TID 0000.0001) %MON dynstat_vvel_max             =   1.7546331221345E-01
(PID.TID 0000.0001) %MON dynstat_vvel_min             =  -2.2107457305238E-01
(PID.TID 0000.0001) %MON dynstat_vvel_mean            =  -3.4874493127328E-04
(PID.TID 0000.0001) %MON dynstat_vvel_sd              =   1.2640227518378E-02
(PID.TID 0000.0001) %MON dynstat_vvel_del2            =   5.0560976834857E-05
(PID.TID 0000.0001) %MON dynstat_wvel_max             =   1.0483734631367E-04
(PID.TID 0000.0001) %MON dynstat_wvel_min             =  -1.9465761970435E-04
(PID.TID 0000.0001) %MON dynstat_wvel_mean            =   1.3915940408472E-10
(PID.TID 0000.0001) %MON dynstat_wvel_sd              =   3.5095902575232E-06
(PID.TID 0000.0001) %MON dynstat_wvel_del2            =   2.6830749078811E-08
(PID.TID 0000.0001) %MON dynstat_theta_max            =   3.1470131019840E+01
(PID.TID 0000.0001) %MON dynstat_theta_min            =  -4.0663679691692E+00
(PID.TID 0000.0001) %MON dynstat_theta_mean           =   3.9130825400704E+00
(PID.TID 0000.0001) %MON dynstat_theta_sd             =   4.5900518744245E+00
(PID.TID 0000.0001) %MON dynstat_theta_del2           =   2.8058038079981E-03
(PID.TID 0000.0001) %MON dynstat_salt_max             =   4.1439492263175E+01
(PID.TID 0000.0001) %MON dynstat_salt_min             =   1.8419898758459E+01
(PID.TID 0000.0001) %MON dynstat_salt_mean            =   3.4772153888025E+01
(PID.TID 0000.0001) %MON dynstat_salt_sd              =   5.3110875142454E-01
(PID.TID 0000.0001) %MON dynstat_salt_del2            =   8.4843379540043E-04
(PID.TID 0000.0001) %MON dynstat_sst_max              =   3.1470131019840E+01
(PID.TID 0000.0001) %MON dynstat_sst_min              =  -1.9877349332653E+00
(PID.TID 0000.0001) %MON dynstat_sst_mean             =   1.8370202174566E+01
(PID.TID 0000.0001) %MON dynstat_sst_sd               =   1.0119665364671E+01
(PID.TID 0000.0001) %MON dynstat_sst_del2             =   1.6669939807354E-02
(PID.TID 0000.0001) %MON dynstat_sss_max              =   4.1439492263175E+01
(PID.TID 0000.0001) %MON dynstat_sss_min              =   1.8419898758459E+01
(PID.TID 0000.0001) %MON dynstat_sss_mean             =   3.4620523720135E+01
(PID.TID 0000.0001) %MON dynstat_sss_sd               =   1.4536329117511E+00
(PID.TID 0000.0001) %MON dynstat_sss_del2             =   8.5509701937481E-03
(PID.TID 0000.0001) %MON forcing_qnet_max             =   2.4853005689956E+02
(PID.TID 0000.0001) %MON forcing_qnet_min             =  -1.7602238438423E+02
(PID.TID 0000.0001) %MON forcing_qnet_mean            =  -1.4286492252610E+00
(PID.TID 0000.0001) %MON forcing_qnet_sd              =   5.4159515889524E+01
(PID.TID 0000.0001) %MON forcing_qnet_del2            =   4.2060052665551E-01
(PID.TID 0000.0001) %MON forcing_qsw_max              =   0.0000000000000E+00
(PID.TID 0000.0001) %MON forcing_qsw_min              =   0.0000000000000E+00
(PID.TID 0000.0001) %MON forcing_qsw_mean             =   0.0000000000000E+00
(PID.TID 0000.0001) %MON forcing_qsw_sd               =   0.0000000000000E+00
(PID.TID 0000.0001) %MON forcing_qsw_del2             =   0.0000000000000E+00
(PID.TID 0000.0001) %MON forcing_empmr_max            =   7.6494447208479E-05
(PID.TID 0000.0001) %MON forcing_empmr_min            =  -1.5362614137596E-04
(PID.TID 0000.0001) %MON forcing_empmr_mean           =   4.1932798010144E-22
(PID.TID 0000.0001) %MON forcing_empmr_sd             =   2.4051723601802E-05
(PID.TID 0000.0001) %MON forcing_empmr_del2           =   1.2276157049243E-07
(PID.TID 0000.0001) %MON forcing_fu_max               =   2.6769332782265E-01
(PID.TID 0000.0001) %MON forcing_fu_min               =  -3.2731331427123E-01
(PID.TID 0000.0001) %MON forcing_fu_mean              =  -8.6046402052760E-03
(PID.TID 0000.0001) %MON forcing_fu_sd                =   7.2022047106891E-02
(PID.TID 0000.0001) %MON forcing_fu_del2              =   2.0384333444547E-04
(PID.TID 0000.0001) %MON forcing_fv_max               =   2.0115014717268E-01
(PID.TID 0000.0001) %MON forcing_fv_min               =  -3.2317382924317E-01
(PID.TID 0000.0001) %MON forcing_fv_mean              =  -1.2852903206518E-02
(PID.TID 0000.0001) %MON forcing_fv_sd                =   7.4419580705457E-02
(PID.TID 0000.0001) %MON forcing_fv_del2              =   2.2075036131556E-04
(PID.TID 0000.0001) %MON trAdv_CFL_u_max              =   7.1224223530842E-02
(PID.TID 0000.0001) %MON trAdv_CFL_v_max              =   7.9055558209567E-02
(PID.TID 0000.0001) %MON trAdv_CFL_w_max              =   7.0104366141789E-02
(PID.TID 0000.0001) %MON advcfl_uvel_max              =   7.6220906294136E-02
(PID.TID 0000.0001) %MON advcfl_vvel_max              =   7.4301106737867E-02
(PID.TID 0000.0001) %MON advcfl_wvel_max              =   6.3465729594172E-02
(PID.TID 0000.0001) %MON advcfl_W_hf_max              =   7.0104366141789E-02
(PID.TID 0000.0001) %MON pe_b_mean                    =   4.8059673860861E-04
(PID.TID 0000.0001) %MON ke_max                       =   3.3515806501036E-02
(PID.TID 0000.0001) %MON ke_mean                      =   1.3879209805689E-04
(PID.TID 0000.0001) %MON ke_vol                       =   1.3398024453628E+18
(PID.TID 0000.0001) %MON vort_r_min                   =  -1.3156598625807E-06
(PID.TID 0000.0001) %MON vort_r_max                   =   1.3553197977971E-06
(PID.TID 0000.0001) %MON vort_a_mean                  =  -2.0493733748264E-05
(PID.TID 0000.0001) %MON vort_a_sd                    =   7.5053956960342E-05
(PID.TID 0000.0001) %MON vort_p_mean                  =  -2.4715770911101E-05
(PID.TID 0000.0001) %MON vort_p_sd                    =   1.2777067645847E-04
(PID.TID 0000.0001) %MON surfExpan_theta_mean         =   5.9993477190900E-08
(PID.TID 0000.0001) %MON surfExpan_salt_mean          =   1.6327199500034E-08
(PID.TID 0000.0001) // =======================================================
(PID.TID 0000.0001) // End MONITOR dynamic field statistics
(PID.TID 0000.0001) // =======================================================
 DRIVER_GET_EXPORT_STATE_3D:MASK : Associated & shape =          32          32          15
  Finished plug run method 
 AGCM Date: 2000/04/15  Time: 20:00:00
 
 Writing:     40 Slices (  1 Nodes,  1 PartitionRoot) to File:  TEST.mit_ocn.20000415_2000z.nc4
 
  Starting plug run method 
 EXTERNAL_FIELDS_LOAD,     72092 : iP,iLd,i0,i1=    3    4    3    4 ; Wght=  0.4333333333  0.5666666667
 cg2d: Sum(rhs),rhsMax =  -2.27373675443232E-12  4.20368058689180E+00
(PID.TID 0000.0001)      cg2d_init_res =   2.70927578323342E-02
(PID.TID 0000.0001)      cg2d_iters(min,last) =      -1      87
(PID.TID 0000.0001)      cg2d_last_res =   8.71078528319432E-10
(PID.TID 0000.0001) // =======================================================
(PID.TID 0000.0001) // Begin MONITOR dynamic field statistics
(PID.TID 0000.0001) // =======================================================
(PID.TID 0000.0001) %MON time_tsnumber                =                 72093
(PID.TID 0000.0001) %MON time_secondsf                =   6.2288352000000E+09
(PID.TID 0000.0001) %MON dynstat_eta_max              =   8.9233671940497E-01
(PID.TID 0000.0001) %MON dynstat_eta_min              =  -1.6062022634680E+00
(PID.TID 0000.0001) %MON dynstat_eta_mean             =   1.4262679743539E-14
(PID.TID 0000.0001) %MON dynstat_eta_sd               =   6.0059592034354E-01
(PID.TID 0000.0001) %MON dynstat_eta_del2             =   8.1678929398152E-04
(PID.TID 0000.0001) %MON dynstat_uvel_max             =   1.9548433763324E-01
(PID.TID 0000.0001) %MON dynstat_uvel_min             =  -2.4493112708959E-01
(PID.TID 0000.0001) %MON dynstat_uvel_mean            =  -4.4008146541372E-04
(PID.TID 0000.0001) %MON dynstat_uvel_sd              =   1.1849086997905E-02
(PID.TID 0000.0001) %MON dynstat_uvel_del2            =   5.1741490282615E-05
(PID.TID 0000.0001) %MON dynstat_vvel_max             =   1.7689803249579E-01
(PID.TID 0000.0001) %MON dynstat_vvel_min             =  -2.2094043634730E-01
(PID.TID 0000.0001) %MON dynstat_vvel_mean            =  -3.4834076363079E-04
(PID.TID 0000.0001) %MON dynstat_vvel_sd              =   1.2636964536590E-02
(PID.TID 0000.0001) %MON dynstat_vvel_del2            =   5.0555550242378E-05
(PID.TID 0000.0001) %MON dynstat_wvel_max             =   1.0486718806082E-04
(PID.TID 0000.0001) %MON dynstat_wvel_min             =  -1.9458304013776E-04
(PID.TID 0000.0001) %MON dynstat_wvel_mean            =   1.2871282734602E-10
(PID.TID 0000.0001) %MON dynstat_wvel_sd              =   3.5095273194465E-06
(PID.TID 0000.0001) %MON dynstat_wvel_del2            =   2.6831730746826E-08
(PID.TID 0000.0001) %MON dynstat_theta_max            =   3.1465551542701E+01
(PID.TID 0000.0001) %MON dynstat_theta_min            =  -4.0546855353564E+00
(PID.TID 0000.0001) %MON dynstat_theta_mean           =   3.9130669636580E+00
(PID.TID 0000.0001) %MON dynstat_theta_sd             =   4.5901599185511E+00
(PID.TID 0000.0001) %MON dynstat_theta_del2           =   2.8039070325161E-03
(PID.TID 0000.0001) %MON dynstat_salt_max             =   4.1438666845133E+01
(PID.TID 0000.0001) %MON dynstat_salt_min             =   1.8420118320374E+01
(PID.TID 0000.0001) %MON dynstat_salt_mean            =   3.4772155163552E+01
(PID.TID 0000.0001) %MON dynstat_salt_sd              =   5.3110413069229E-01
(PID.TID 0000.0001) %MON dynstat_salt_del2            =   8.4834879943784E-04
(PID.TID 0000.0001) %MON dynstat_sst_max              =   3.1465551542701E+01
(PID.TID 0000.0001) %MON dynstat_sst_min              =  -1.9875770030175E+00
(PID.TID 0000.0001) %MON dynstat_sst_mean             =   1.8365924426281E+01
(PID.TID 0000.0001) %MON dynstat_sst_sd               =   1.0127284359821E+01
(PID.TID 0000.0001) %MON dynstat_sst_del2             =   1.6615274831090E-02
(PID.TID 0000.0001) %MON dynstat_sss_max              =   4.1438666845133E+01
(PID.TID 0000.0001) %MON dynstat_sss_min              =   1.8420118320374E+01
(PID.TID 0000.0001) %MON dynstat_sss_mean             =   3.4620502608944E+01
(PID.TID 0000.0001) %MON dynstat_sss_sd               =   1.4535940938383E+00
(PID.TID 0000.0001) %MON dynstat_sss_del2             =   8.5513663793749E-03
(PID.TID 0000.0001) %MON forcing_qnet_max             =   2.4363734149966E+02
(PID.TID 0000.0001) %MON forcing_qnet_min             =  -1.7547765678101E+02
(PID.TID 0000.0001) %MON forcing_qnet_mean            =  -1.0429623267085E+00
(PID.TID 0000.0001) %MON forcing_qnet_sd              =   5.4335284794861E+01
(PID.TID 0000.0001) %MON forcing_qnet_del2            =   4.1949127218690E-01
(PID.TID 0000.0001) %MON forcing_qsw_max              =   0.0000000000000E+00
(PID.TID 0000.0001) %MON forcing_qsw_min              =   0.0000000000000E+00
(PID.TID 0000.0001) %MON forcing_qsw_mean             =   0.0000000000000E+00
(PID.TID 0000.0001) %MON forcing_qsw_sd               =   0.0000000000000E+00
(PID.TID 0000.0001) %MON forcing_qsw_del2             =   0.0000000000000E+00
(PID.TID 0000.0001) %MON forcing_empmr_max            =   7.6494447208479E-05
(PID.TID 0000.0001) %MON forcing_empmr_min            =  -1.5362614137596E-04
(PID.TID 0000.0001) %MON forcing_empmr_mean           =   4.1932798010144E-22
(PID.TID 0000.0001) %MON forcing_empmr_sd             =   2.4051723601802E-05
(PID.TID 0000.0001) %MON forcing_empmr_del2           =   1.2276157049243E-07
(PID.TID 0000.0001) %MON forcing_fu_max               =   2.6832215159580E-01
(PID.TID 0000.0001) %MON forcing_fu_min               =  -3.2854739852919E-01
(PID.TID 0000.0001) %MON forcing_fu_mean              =  -8.6046525068350E-03
(PID.TID 0000.0001) %MON forcing_fu_sd                =   7.2247852846332E-02
(PID.TID 0000.0001) %MON forcing_fu_del2              =   2.0451918924272E-04
(PID.TID 0000.0001) %MON forcing_fv_max               =   2.0197129630113E-01
(PID.TID 0000.0001) %MON forcing_fv_min               =  -3.2387646331316E-01
(PID.TID 0000.0001) %MON forcing_fv_mean              =  -1.2865567569445E-02
(PID.TID 0000.0001) %MON forcing_fv_sd                =   7.4251038880136E-02
(PID.TID 0000.0001) %MON forcing_fv_del2              =   2.2058259409904E-04
(PID.TID 0000.0001) %MON trAdv_CFL_u_max              =   7.1221441411671E-02
(PID.TID 0000.0001) %MON trAdv_CFL_v_max              =   7.8875833727169E-02
(PID.TID 0000.0001) %MON trAdv_CFL_w_max              =   7.0077485698333E-02
(PID.TID 0000.0001) %MON advcfl_uvel_max              =   7.6217927694768E-02
(PID.TID 0000.0001) %MON advcfl_vvel_max              =   7.4132179324846E-02
(PID.TID 0000.0001) %MON advcfl_wvel_max              =   6.3441413841142E-02
(PID.TID 0000.0001) %MON advcfl_W_hf_max              =   7.0077485698333E-02
(PID.TID 0000.0001) %MON pe_b_mean                    =   4.8053965090516E-04
(PID.TID 0000.0001) %MON ke_max                       =   3.3457299626744E-02
(PID.TID 0000.0001) %MON ke_mean                      =   1.3873268631747E-04
(PID.TID 0000.0001) %MON ke_vol                       =   1.3398024453628E+18
(PID.TID 0000.0001) %MON vort_r_min                   =  -1.3150920300740E-06
(PID.TID 0000.0001) %MON vort_r_max                   =   1.3615374792667E-06
(PID.TID 0000.0001) %MON vort_a_mean                  =  -2.0493733748264E-05
(PID.TID 0000.0001) %MON vort_a_sd                    =   7.5053957102509E-05
(PID.TID 0000.0001) %MON vort_p_mean                  =  -2.4715770972550E-05
(PID.TID 0000.0001) %MON vort_p_sd                    =   1.2777067276912E-04
(PID.TID 0000.0001) %MON surfExpan_theta_mean         =   6.0557326741626E-08
(PID.TID 0000.0001) %MON surfExpan_salt_mean          =   1.6438291425176E-08
(PID.TID 0000.0001) // =======================================================
(PID.TID 0000.0001) // End MONITOR dynamic field statistics
(PID.TID 0000.0001) // =======================================================
 DRIVER_GET_EXPORT_STATE_3D:MASK : Associated & shape =          32          32          15
  Finished plug run method 
 AGCM Date: 2000/04/15  Time: 20:15:00
  Starting plug run method 
 EXTERNAL_FIELDS_LOAD,     72093 : iP,iLd,i0,i1=    3    4    3    4 ; Wght=  0.4000000000  0.6000000000
 cg2d: Sum(rhs),rhsMax =  -2.33768560065073E-12  4.20363675275616E+00
(PID.TID 0000.0001)      cg2d_init_res =   2.70688729039210E-02
(PID.TID 0000.0001)      cg2d_iters(min,last) =      -1      87
(PID.TID 0000.0001)      cg2d_last_res =   8.88364843976554E-10
(PID.TID 0000.0001) // =======================================================
(PID.TID 0000.0001) // Begin MONITOR dynamic field statistics
(PID.TID 0000.0001) // =======================================================
(PID.TID 0000.0001) %MON time_tsnumber                =                 72094
(PID.TID 0000.0001) %MON time_secondsf                =   6.2289216000000E+09
(PID.TID 0000.0001) %MON dynstat_eta_max              =   8.9299349492474E-01
(PID.TID 0000.0001) %MON dynstat_eta_min              =  -1.6065083570383E+00
(PID.TID 0000.0001) %MON dynstat_eta_mean             =   1.4125274351019E-14
(PID.TID 0000.0001) %MON dynstat_eta_sd               =   6.0056124629860E-01
(PID.TID 0000.0001) %MON dynstat_eta_del2             =   8.1673403723828E-04
(PID.TID 0000.0001) %MON dynstat_uvel_max             =   1.9554130199832E-01
(PID.TID 0000.0001) %MON dynstat_uvel_min             =  -2.4463576096247E-01
(PID.TID 0000.0001) %MON dynstat_uvel_mean            =  -4.3995837450056E-04
(PID.TID 0000.0001) %MON dynstat_uvel_sd              =   1.1847019636210E-02
(PID.TID 0000.0001) %MON dynstat_uvel_del2            =   5.1722022909709E-05
(PID.TID 0000.0001) %MON dynstat_vvel_max             =   1.7828832929030E-01
(PID.TID 0000.0001) %MON dynstat_vvel_min             =  -2.2080291993621E-01
(PID.TID 0000.0001) %MON dynstat_vvel_mean            =  -3.4803235542258E-04
(PID.TID 0000.0001) %MON dynstat_vvel_sd              =   1.2634072665570E-02
(PID.TID 0000.0001) %MON dynstat_vvel_del2            =   5.0551754387319E-05
(PID.TID 0000.0001) %MON dynstat_wvel_max             =   1.0493885033059E-04
(PID.TID 0000.0001) %MON dynstat_wvel_min             =  -1.9450201552149E-04
(PID.TID 0000.0001) %MON dynstat_wvel_mean            =   1.1362326647669E-10
(PID.TID 0000.0001) %MON dynstat_wvel_sd              =   3.5095777057567E-06
(PID.TID 0000.0001) %MON dynstat_wvel_del2            =   2.6832123414623E-08
(PID.TID 0000.0001) %MON dynstat_theta_max            =   3.1459601131207E+01
(PID.TID 0000.0001) %MON dynstat_theta_min            =  -4.0423896101056E+00
(PID.TID 0000.0001) %MON dynstat_theta_mean           =   3.9130499071152E+00
(PID.TID 0000.0001) %MON dynstat_theta_sd             =   4.5902618383375E+00
(PID.TID 0000.0001) %MON dynstat_theta_del2           =   2.8018604201252E-03
(PID.TID 0000.0001) %MON dynstat_salt_max             =   4.1437742108226E+01
(PID.TID 0000.0001) %MON dynstat_salt_min             =   1.8420351677929E+01
(PID.TID 0000.0001) %MON dynstat_salt_mean            =   3.4772156450652E+01
(PID.TID 0000.0001) %MON dynstat_salt_sd              =   5.3109951710355E-01
(PID.TID 0000.0001) %MON dynstat_salt_del2            =   8.4824910106441E-04
(PID.TID 0000.0001) %MON dynstat_sst_max              =   3.1459601131207E+01
(PID.TID 0000.0001) %MON dynstat_sst_min              =  -1.9874218374694E+00
(PID.TID 0000.0001) %MON dynstat_sst_mean             =   1.8361468067864E+01
(PID.TID 0000.0001) %MON dynstat_sst_sd               =   1.0134902616546E+01
(PID.TID 0000.0001) %MON dynstat_sst_del2             =   1.6557074694935E-02
(PID.TID 0000.0001) %MON dynstat_sss_max              =   4.1437742108226E+01
(PID.TID 0000.0001) %MON dynstat_sss_min              =   1.8420351677929E+01
(PID.TID 0000.0001) %MON dynstat_sss_mean             =   3.4620475613817E+01
(PID.TID 0000.0001) %MON dynstat_sss_sd               =   1.4535532172687E+00
(PID.TID 0000.0001) %MON dynstat_sss_del2             =   8.5515068376977E-03
(PID.TID 0000.0001) %MON forcing_qnet_max             =   2.3874462609976E+02
(PID.TID 0000.0001) %MON forcing_qnet_min             =  -1.7493292917778E+02
(PID.TID 0000.0001) %MON forcing_qnet_mean            =  -6.5727542815606E-01
(PID.TID 0000.0001) %MON forcing_qnet_sd              =   5.4578694097795E+01
(PID.TID 0000.0001) %MON forcing_qnet_del2            =   4.1851472116455E-01
(PID.TID 0000.0001) %MON forcing_qsw_max              =   0.0000000000000E+00
(PID.TID 0000.0001) %MON forcing_qsw_min              =   0.0000000000000E+00
(PID.TID 0000.0001) %MON forcing_qsw_mean             =   0.0000000000000E+00
(PID.TID 0000.0001) %MON forcing_qsw_sd               =   0.0000000000000E+00
(PID.TID 0000.0001) %MON forcing_qsw_del2             =   0.0000000000000E+00
(PID.TID 0000.0001) %MON forcing_empmr_max            =   7.6494447208479E-05
(PID.TID 0000.0001) %MON forcing_empmr_min            =  -1.5362614137596E-04
(PID.TID 0000.0001) %MON forcing_empmr_mean           =   4.1932798010144E-22
(PID.TID 0000.0001) %MON forcing_empmr_sd             =   2.4051723601802E-05
(PID.TID 0000.0001) %MON forcing_empmr_del2           =   1.2276157049243E-07
(PID.TID 0000.0001) %MON forcing_fu_max               =   2.6895097536896E-01
(PID.TID 0000.0001) %MON forcing_fu_min               =  -3.2978148278715E-01
(PID.TID 0000.0001) %MON forcing_fu_mean              =  -8.6046648083940E-03
(PID.TID 0000.0001) %MON forcing_fu_sd                =   7.2490977617939E-02
(PID.TID 0000.0001) %MON forcing_fu_del2              =   2.0547481503722E-04
(PID.TID 0000.0001) %MON forcing_fv_max               =   2.0279244542958E-01
(PID.TID 0000.0001) %MON forcing_fv_min               =  -3.2457909738316E-01
(PID.TID 0000.0001) %MON forcing_fv_mean              =  -1.2878231932372E-02
(PID.TID 0000.0001) %MON forcing_fv_sd                =   7.4109668037972E-02
(PID.TID 0000.0001) %MON forcing_fv_del2              =   2.2074851299542E-04
(PID.TID 0000.0001) %MON trAdv_CFL_u_max              =   7.1219556686642E-02
(PID.TID 0000.0001) %MON trAdv_CFL_v_max              =   7.9366695885113E-02
(PID.TID 0000.0001) %MON trAdv_CFL_w_max              =   7.0048282681542E-02
(PID.TID 0000.0001) %MON advcfl_uvel_max              =   7.6215909399646E-02
(PID.TID 0000.0001) %MON advcfl_vvel_max              =   7.4593507817653E-02
(PID.TID 0000.0001) %MON advcfl_wvel_max              =   6.3414996758706E-02
(PID.TID 0000.0001) %MON advcfl_W_hf_max              =   7.0048282681542E-02
(PID.TID 0000.0001) %MON pe_b_mean                    =   4.8048416677047E-04
(PID.TID 0000.0001) %MON ke_max                       =   3.3397528567209E-02
(PID.TID 0000.0001) %MON ke_mean                      =   1.3867612416211E-04
(PID.TID 0000.0001) %MON ke_vol                       =   1.3398024453628E+18
(PID.TID 0000.0001) %MON vort_r_min                   =  -1.3144747567695E-06
(PID.TID 0000.0001) %MON vort_r_max                   =   1.3674594640474E-06
(PID.TID 0000.0001) %MON vort_a_mean                  =  -2.0493733748264E-05
(PID.TID 0000.0001) %MON vort_a_sd                    =   7.5053957249866E-05
(PID.TID 0000.0001) %MON vort_p_mean                  =  -2.4715771035161E-05
(PID.TID 0000.0001) %MON vort_p_sd                    =   1.2777066920300E-04
(PID.TID 0000.0001) %MON surfExpan_theta_mean         =   6.1089186763272E-08
(PID.TID 0000.0001) %MON surfExpan_salt_mean          =   1.6549412137510E-08
(PID.TID 0000.0001) // =======================================================
(PID.TID 0000.0001) // End MONITOR dynamic field statistics
(PID.TID 0000.0001) // =======================================================
 DRIVER_GET_EXPORT_STATE_3D:MASK : Associated & shape =          32          32          15
  Finished plug run method 
 AGCM Date: 2000/04/15  Time: 20:30:00
  Starting plug run method 
 EXTERNAL_FIELDS_LOAD,     72094 : iP,iLd,i0,i1=    3    4    3    4 ; Wght=  0.3666666667  0.6333333333
 cg2d: Sum(rhs),rhsMax =  -2.28084218178992E-12  4.20371629539105E+00
(PID.TID 0000.0001)      cg2d_init_res =   2.70757410988502E-02
(PID.TID 0000.0001)      cg2d_iters(min,last) =      -1      87
(PID.TID 0000.0001)      cg2d_last_res =   9.01172139268257E-10
(PID.TID 0000.0001) // =======================================================
(PID.TID 0000.0001) // Begin MONITOR dynamic field statistics
(PID.TID 0000.0001) // =======================================================
(PID.TID 0000.0001) %MON time_tsnumber                =                 72095
(PID.TID 0000.0001) %MON time_secondsf                =   6.2290080000000E+09
(PID.TID 0000.0001) %MON dynstat_eta_max              =   8.9364694461403E-01
(PID.TID 0000.0001) %MON dynstat_eta_min              =  -1.6068199128982E+00
(PID.TID 0000.0001) %MON dynstat_eta_mean             =   1.4290160822043E-14
(PID.TID 0000.0001) %MON dynstat_eta_sd               =   6.0052996835300E-01
(PID.TID 0000.0001) %MON dynstat_eta_del2             =   8.1667026509891E-04
(PID.TID 0000.0001) %MON dynstat_uvel_max             =   1.9559027285090E-01
(PID.TID 0000.0001) %MON dynstat_uvel_min             =  -2.4433573878848E-01
(PID.TID 0000.0001) %MON dynstat_uvel_mean            =  -4.3983422750815E-04
(PID.TID 0000.0001) %MON dynstat_uvel_sd              =   1.1844860238832E-02
(PID.TID 0000.0001) %MON dynstat_uvel_del2            =   5.1701177865179E-05
(PID.TID 0000.0001) %MON dynstat_vvel_max             =   1.7962643536242E-01
(PID.TID 0000.0001) %MON dynstat_vvel_min             =  -2.2066203015807E-01
(PID.TID 0000.0001) %MON dynstat_vvel_mean            =  -3.4781849121668E-04
(PID.TID 0000.0001) %MON dynstat_vvel_sd              =   1.2631599267728E-02
(PID.TID 0000.0001) %MON dynstat_vvel_del2            =   5.0549914571597E-05
(PID.TID 0000.0001) %MON dynstat_wvel_max             =   1.0505124316815E-04
(PID.TID 0000.0001) %MON dynstat_wvel_min             =  -1.9441250734251E-04
(PID.TID 0000.0001) %MON dynstat_wvel_mean            =   9.4747082583411E-11
(PID.TID 0000.0001) %MON dynstat_wvel_sd              =   3.5097834486411E-06
(PID.TID 0000.0001) %MON dynstat_wvel_del2            =   2.6832095088435E-08
(PID.TID 0000.0001) %MON dynstat_theta_max            =   3.1452301852916E+01
(PID.TID 0000.0001) %MON dynstat_theta_min            =  -4.0294801763022E+00
(PID.TID 0000.0001) %MON dynstat_theta_mean           =   3.9130313610720E+00
(PID.TID 0000.0001) %MON dynstat_theta_sd             =   4.5903579560818E+00
(PID.TID 0000.0001) %MON dynstat_theta_del2           =   2.7996040367637E-03
(PID.TID 0000.0001) %MON dynstat_salt_max             =   4.1436717772081E+01
(PID.TID 0000.0001) %MON dynstat_salt_min             =   1.8420598275187E+01
(PID.TID 0000.0001) %MON dynstat_salt_mean            =   3.4772157749603E+01
(PID.TID 0000.0001) %MON dynstat_salt_sd              =   5.3109491641903E-01
(PID.TID 0000.0001) %MON dynstat_salt_del2            =   8.4810445727084E-04
(PID.TID 0000.0001) %MON dynstat_sst_max              =   3.1452301852916E+01
(PID.TID 0000.0001) %MON dynstat_sst_min              =  -1.9871803051784E+00
(PID.TID 0000.0001) %MON dynstat_sst_mean             =   1.8356867013692E+01
(PID.TID 0000.0001) %MON dynstat_sst_sd               =   1.0142520225029E+01
(PID.TID 0000.0001) %MON dynstat_sst_del2             =   1.6498361829717E-02
(PID.TID 0000.0001) %MON dynstat_sss_max              =   4.1436717772081E+01
(PID.TID 0000.0001) %MON dynstat_sss_min              =   1.8420598275187E+01
(PID.TID 0000.0001) %MON dynstat_sss_mean             =   3.4620448038578E+01
(PID.TID 0000.0001) %MON dynstat_sss_sd               =   1.4535154311119E+00
(PID.TID 0000.0001) %MON dynstat_sss_del2             =   8.5513580914366E-03
(PID.TID 0000.0001) %MON forcing_qnet_max             =   2.3385191069986E+02
(PID.TID 0000.0001) %MON forcing_qnet_min             =  -1.7438820157456E+02
(PID.TID 0000.0001) %MON forcing_qnet_mean            =  -2.7158852960355E-01
(PID.TID 0000.0001) %MON forcing_qnet_sd              =   5.4888843934207E+01
(PID.TID 0000.0001) %MON forcing_qnet_del2            =   4.1767180440420E-01
(PID.TID 0000.0001) %MON forcing_qsw_max              =   0.0000000000000E+00
(PID.TID 0000.0001) %MON forcing_qsw_min              =   0.0000000000000E+00
(PID.TID 0000.0001) %MON forcing_qsw_mean             =   0.0000000000000E+00
(PID.TID 0000.0001) %MON forcing_qsw_sd               =   0.0000000000000E+00
(PID.TID 0000.0001) %MON forcing_qsw_del2             =   0.0000000000000E+00
(PID.TID 0000.0001) %MON forcing_empmr_max            =   7.6494447208479E-05
(PID.TID 0000.0001) %MON forcing_empmr_min            =  -1.5362614137596E-04
(PID.TID 0000.0001) %MON forcing_empmr_mean           =   4.1932798010144E-22
(PID.TID 0000.0001) %MON forcing_empmr_sd             =   2.4051723601802E-05
(PID.TID 0000.0001) %MON forcing_empmr_del2           =   1.2276157049243E-07
(PID.TID 0000.0001) %MON forcing_fu_max               =   2.6957979914211E-01
(PID.TID 0000.0001) %MON forcing_fu_min               =  -3.3101556704511E-01
(PID.TID 0000.0001) %MON forcing_fu_mean              =  -8.6046771099530E-03
(PID.TID 0000.0001) %MON forcing_fu_sd                =   7.2751247788372E-02
(PID.TID 0000.0001) %MON forcing_fu_del2              =   2.0670633163038E-04
(PID.TID 0000.0001) %MON forcing_fv_max               =   2.0361359455802E-01
(PID.TID 0000.0001) %MON forcing_fv_min               =  -3.2528173145315E-01
(PID.TID 0000.0001) %MON forcing_fv_mean              =  -1.2890896295299E-02
(PID.TID 0000.0001) %MON forcing_fv_sd                =   7.3995623912044E-02
(PID.TID 0000.0001) %MON forcing_fv_del2              =   2.2124736728745E-04
(PID.TID 0000.0001) %MON trAdv_CFL_u_max              =   7.1220025608313E-02
(PID.TID 0000.0001) %MON trAdv_CFL_v_max              =   8.0021479670762E-02
(PID.TID 0000.0001) %MON trAdv_CFL_w_max              =   7.0016023472684E-02
(PID.TID 0000.0001) %MON advcfl_uvel_max              =   7.6216409823791E-02
(PID.TID 0000.0001) %MON advcfl_vvel_max              =   7.5208898061034E-02
(PID.TID 0000.0001) %MON advcfl_wvel_max              =   6.3385813714691E-02
(PID.TID 0000.0001) %MON advcfl_W_hf_max              =   7.0016023472684E-02
(PID.TID 0000.0001) %MON pe_b_mean                    =   4.8043411969743E-04
(PID.TID 0000.0001) %MON ke_max                       =   3.3336484361873E-02
(PID.TID 0000.0001) %MON ke_mean                      =   1.3862350706840E-04
(PID.TID 0000.0001) %MON ke_vol                       =   1.3398024453628E+18
(PID.TID 0000.0001) %MON vort_r_min                   =  -1.3137988568977E-06
(PID.TID 0000.0001) %MON vort_r_max                   =   1.3730800422113E-06
(PID.TID 0000.0001) %MON vort_a_mean                  =  -2.0493733748264E-05
(PID.TID 0000.0001) %MON vort_a_sd                    =   7.5053957403049E-05
(PID.TID 0000.0001) %MON vort_p_mean                  =  -2.4715771097682E-05
(PID.TID 0000.0001) %MON vort_p_sd                    =   1.2777066588771E-04
(PID.TID 0000.0001) %MON surfExpan_theta_mean         =   6.1577607729853E-08
(PID.TID 0000.0001) %MON surfExpan_salt_mean          =   1.6656110238276E-08
(PID.TID 0000.0001) // =======================================================
(PID.TID 0000.0001) // End MONITOR dynamic field statistics
(PID.TID 0000.0001) // =======================================================
 DRIVER_GET_EXPORT_STATE_3D:MASK : Associated & shape =          32          32          15
  Finished plug run method 
 AGCM Date: 2000/04/15  Time: 20:45:00
  Starting plug run method 
 EXTERNAL_FIELDS_LOAD,     72095 : iP,iLd,i0,i1=    3    4    3    4 ; Wght=  0.3333333333  0.6666666667
 cg2d: Sum(rhs),rhsMax =  -2.25952589971712E-12  4.20392702390173E+00
(PID.TID 0000.0001)      cg2d_init_res =   2.71390500237857E-02
(PID.TID 0000.0001)      cg2d_iters(min,last) =      -1      87
(PID.TID 0000.0001)      cg2d_last_res =   9.09124525794110E-10
(PID.TID 0000.0001) // =======================================================
(PID.TID 0000.0001) // Begin MONITOR dynamic field statistics
(PID.TID 0000.0001) // =======================================================
(PID.TID 0000.0001) %MON time_tsnumber                =                 72096
(PID.TID 0000.0001) %MON time_secondsf                =   6.2290944000000E+09
(PID.TID 0000.0001) %MON dynstat_eta_max              =   8.9430039078505E-01
(PID.TID 0000.0001) %MON dynstat_eta_min              =  -1.6071323744020E+00
(PID.TID 0000.0001) %MON dynstat_eta_mean             =   1.4152755429523E-14
(PID.TID 0000.0001) %MON dynstat_eta_sd               =   6.0050426070481E-01
(PID.TID 0000.0001) %MON dynstat_eta_del2             =   8.1659652500540E-04
(PID.TID 0000.0001) %MON dynstat_uvel_max             =   1.9563252379913E-01
(PID.TID 0000.0001) %MON dynstat_uvel_min             =  -2.4403108745193E-01
(PID.TID 0000.0001) %MON dynstat_uvel_mean            =  -4.3970251175197E-04
(PID.TID 0000.0001) %MON dynstat_uvel_sd              =   1.1842661355102E-02
(PID.TID 0000.0001) %MON dynstat_uvel_del2            =   5.1679092272320E-05
(PID.TID 0000.0001) %MON dynstat_vvel_max             =   1.8090509927800E-01
(PID.TID 0000.0001) %MON dynstat_vvel_min             =  -2.2051775156347E-01
(PID.TID 0000.0001) %MON dynstat_vvel_mean            =  -3.4769608017951E-04
(PID.TID 0000.0001) %MON dynstat_vvel_sd              =   1.2629582990275E-02
(PID.TID 0000.0001) %MON dynstat_vvel_del2            =   5.0550301558274E-05
(PID.TID 0000.0001) %MON dynstat_wvel_max             =   1.0520254400023E-04
(PID.TID 0000.0001) %MON dynstat_wvel_min             =  -1.9431280573250E-04
(PID.TID 0000.0001) %MON dynstat_wvel_mean            =   7.3141146352729E-11
(PID.TID 0000.0001) %MON dynstat_wvel_sd              =   3.5102135728690E-06
(PID.TID 0000.0001) %MON dynstat_wvel_del2            =   2.6832962928729E-08
(PID.TID 0000.0001) %MON dynstat_theta_max            =   3.1448594208478E+01
(PID.TID 0000.0001) %MON dynstat_theta_min            =  -4.0159570057111E+00
(PID.TID 0000.0001) %MON dynstat_theta_mean           =   3.9130115604293E+00
(PID.TID 0000.0001) %MON dynstat_theta_sd             =   4.5904482310491E+00
(PID.TID 0000.0001) %MON dynstat_theta_del2           =   2.7971770962649E-03
(PID.TID 0000.0001) %MON dynstat_salt_max             =   4.1435593520695E+01
(PID.TID 0000.0001) %MON dynstat_salt_min             =   1.8420857488434E+01
(PID.TID 0000.0001) %MON dynstat_salt_mean            =   3.4772159060572E+01
(PID.TID 0000.0001) %MON dynstat_salt_sd              =   5.3109031531771E-01
(PID.TID 0000.0001) %MON dynstat_salt_del2            =   8.4792407002251E-04
(PID.TID 0000.0001) %MON dynstat_sst_max              =   3.1448594208478E+01
(PID.TID 0000.0001) %MON dynstat_sst_min              =  -1.9866538508638E+00
(PID.TID 0000.0001) %MON dynstat_sst_mean             =   1.8352113992153E+01
(PID.TID 0000.0001) %MON dynstat_sst_sd               =   1.0150116700075E+01
(PID.TID 0000.0001) %MON dynstat_sst_del2             =   1.6437139377099E-02
(PID.TID 0000.0001) %MON dynstat_sss_max              =   4.1435593520695E+01
(PID.TID 0000.0001) %MON dynstat_sss_min              =   1.8420857488434E+01
(PID.TID 0000.0001) %MON dynstat_sss_mean             =   3.4620414626158E+01
(PID.TID 0000.0001) %MON dynstat_sss_sd               =   1.4534787699267E+00
(PID.TID 0000.0001) %MON dynstat_sss_del2             =   8.5508130223176E-03
(PID.TID 0000.0001) %MON forcing_qnet_max             =   2.2895919529996E+02
(PID.TID 0000.0001) %MON forcing_qnet_min             =  -1.7384347397133E+02
(PID.TID 0000.0001) %MON forcing_qnet_mean            =   1.1409836894895E-01
(PID.TID 0000.0001) %MON forcing_qnet_sd              =   5.5264610654359E+01
(PID.TID 0000.0001) %MON forcing_qnet_del2            =   4.1696333235604E-01
(PID.TID 0000.0001) %MON forcing_qsw_max              =   0.0000000000000E+00
(PID.TID 0000.0001) %MON forcing_qsw_min              =   0.0000000000000E+00
(PID.TID 0000.0001) %MON forcing_qsw_mean             =   0.0000000000000E+00
(PID.TID 0000.0001) %MON forcing_qsw_sd               =   0.0000000000000E+00
(PID.TID 0000.0001) %MON forcing_qsw_del2             =   0.0000000000000E+00
(PID.TID 0000.0001) %MON forcing_empmr_max            =   7.6494447208479E-05
(PID.TID 0000.0001) %MON forcing_empmr_min            =  -1.5362614137596E-04
(PID.TID 0000.0001) %MON forcing_empmr_mean           =   4.1932798010144E-22
(PID.TID 0000.0001) %MON forcing_empmr_sd             =   2.4051723601802E-05
(PID.TID 0000.0001) %MON forcing_empmr_del2           =   1.2276157049243E-07
(PID.TID 0000.0001) %MON forcing_fu_max               =   2.7020862291527E-01
(PID.TID 0000.0001) %MON forcing_fu_min               =  -3.3224965130307E-01
(PID.TID 0000.0001) %MON forcing_fu_mean              =  -8.6046894115121E-03
(PID.TID 0000.0001) %MON forcing_fu_sd                =   7.3028480041606E-02
(PID.TID 0000.0001) %MON forcing_fu_del2              =   2.0820884355143E-04
(PID.TID 0000.0001) %MON forcing_fv_max               =   2.0443474368647E-01
(PID.TID 0000.0001) %MON forcing_fv_min               =  -3.2598436552315E-01
(PID.TID 0000.0001) %MON forcing_fv_mean              =  -1.2903560658226E-02
(PID.TID 0000.0001) %MON forcing_fv_sd                =   7.3909033000590E-02
(PID.TID 0000.0001) %MON forcing_fv_del2              =   2.2207691335498E-04
(PID.TID 0000.0001) %MON trAdv_CFL_u_max              =   7.1224213598338E-02
(PID.TID 0000.0001) %MON trAdv_CFL_v_max              =   8.0671747089816E-02
(PID.TID 0000.0001) %MON trAdv_CFL_w_max              =   6.9980092861377E-02
(PID.TID 0000.0001) %MON advcfl_uvel_max              =   7.6220890178862E-02
(PID.TID 0000.0001) %MON advcfl_vvel_max              =   7.5820041855327E-02
(PID.TID 0000.0001) %MON advcfl_wvel_max              =   6.3353307227502E-02
(PID.TID 0000.0001) %MON advcfl_W_hf_max              =   6.9980092861377E-02
(PID.TID 0000.0001) %MON pe_b_mean                    =   4.8039298747218E-04
(PID.TID 0000.0001) %MON ke_max                       =   3.3274164708126E-02
(PID.TID 0000.0001) %MON ke_mean                      =   1.3857585366379E-04
(PID.TID 0000.0001) %MON ke_vol                       =   1.3398024453628E+18
(PID.TID 0000.0001) %MON vort_r_min                   =  -1.3130555333926E-06
(PID.TID 0000.0001) %MON vort_r_max                   =   1.3783893743785E-06
(PID.TID 0000.0001) %MON vort_a_mean                  =  -2.0493733748264E-05
(PID.TID 0000.0001) %MON vort_a_sd                    =   7.5053957562343E-05
(PID.TID 0000.0001) %MON vort_p_mean                  =  -2.4715771158936E-05
(PID.TID 0000.0001) %MON vort_p_sd                    =   1.2777066292693E-04
(PID.TID 0000.0001) %MON surfExpan_theta_mean         =   6.2016751309010E-08
(PID.TID 0000.0001) %MON surfExpan_salt_mean          =   1.6754240194104E-08
(PID.TID 0000.0001) // =======================================================
(PID.TID 0000.0001) // End MONITOR dynamic field statistics
(PID.TID 0000.0001) // =======================================================
 DRIVER_GET_EXPORT_STATE_3D:MASK : Associated & shape =          32          32          15
  Finished plug run method 
 AGCM Date: 2000/04/15  Time: 21:00:00
 
 Writing:    147 Slices (  1 Nodes,  1 PartitionRoot) to File:  TEST.geosgcm_surf.20000415_1930z.nc4
 Writing:     40 Slices (  1 Nodes,  1 PartitionRoot) to File:  TEST.mit_ocn.20000415_2100z.nc4
 

   -----------------------------------------------------
      Block          User time  System Time   Total Time
   -----------------------------------------------------
   TOTAL                      244.9464       0.0000     244.9464
   COMM_TOTAL                  13.2027       0.0000      13.2027
   C_SW                         0.2951       0.0000       0.2951
   D_SW                         1.4584       0.0000       1.4584
   FV_TP_2D                    10.8203       0.0000      10.8203
   TRACER_2D                   23.5763       0.0000      23.5763
   COMM_TRAC                    7.2088       0.0000       7.2088
   REMAPPING                    5.3284       0.0000       5.3284

   Character Resource Parameter DYN_INTERNAL_CHECKPOINT_FILE: fvcore_internal_checkpoint
   Character Resource Parameter DYN_INTERNAL_CHECKPOINT_TYPE: pnc4
 Using parallel NetCDF for file: fvcore_internal_checkpoint
  
  Times for DYN
TOTAL                   :      53.836
INITIALIZE              :       0.046
RUN                     :      44.798
RUN2                    :       8.917
-DYN_INIT               :       0.004
--FMS_INIT              :       0.061
--FV_INIT               :       0.023
-DYN_CORE               :      38.898
FINALIZE                :       0.011
GenInitTot              :       0.066
--GenInitMine           :       0.066
GenRunTot               :       0.000
--GenRunMine            :       0.000
GenFinalTot             :       0.025
--GenFinalMine          :       0.025
GenRecordTot            :       0.001
--GenRecordMine         :       0.001
GenRefreshTot           :       0.000
--GenRefreshMine        :       0.000
  
  
  Times for SUPERDYNAMICS
TOTAL                   :      53.897
DYN                     :       0.124
GenInitTot              :       0.099
--GenInitMine           :       0.017
GenRunTot               :       0.000
--GenRunMine            :       0.000
GenFinalTot             :       0.034
--GenFinalMine          :       0.001
GenRecordTot            :       0.003
--GenRecordMine         :       0.000
GenRefreshTot           :       0.000
--GenRefreshMine        :       0.000
  
  
  Times for GWD
TOTAL                   :       1.430
DRIVER                  :       1.395
-DRIVER_RUN             :       0.000
-INTR                   :       0.978
-DRIVER_DATA            :       0.000
--DRIVER_DATA_DEVICE    :       0.000
--DRIVER_DATA_CONST     :       0.000
-DRIVER_ALLOC           :       0.000
-DRIVER_DEALLOC         :       0.000
GenInitTot              :       0.008
--GenInitMine           :       0.008
GenRunTot               :       0.000
--GenRunMine            :       0.000
GenFinalTot             :       0.001
--GenFinalMine          :       0.001
GenRecordTot            :       0.001
--GenRecordMine         :       0.000
GenRefreshTot           :       0.000
--GenRefreshMine        :       0.000
  
   Character Resource Parameter MOIST_INTERNAL_CHECKPOINT_FILE: moist_internal_checkpoint
   Character Resource Parameter MOIST_INTERNAL_CHECKPOINT_TYPE: pnc4
 Using parallel NetCDF for file: moist_internal_checkpoint
   Character Resource Parameter MOIST_IMPORT_CHECKPOINT_FILE: moist_import_checkpoint
   Character Resource Parameter MOIST_IMPORT_CHECKPOINT_TYPE: pnc4
 Using parallel NetCDF for file: moist_import_checkpoint
  
  Times for MOIST
TOTAL                   :       7.576
DRIVER                  :       7.441
-PRE_RAS                :       0.070
-RAS                    :       1.471
--RAS_RUN               :       1.466
-POST_RAS               :       0.050
-CLOUD                  :       4.030
--CLOUD_RUN             :       3.884
---ACTIV                :       0.000
---CLDMACRO             :       0.000
---MGMICRO              :       0.000
--CLOUD_DATA            :       0.000
---CLOUD_DATA_DEVICE    :       0.000
---CLOUD_DATA_CONST     :       0.000
--CLOUD_ALLOC           :       0.000
--CLOUD_DEALLOC         :       0.000
-MISC                   :       2.186
--FLASH                 :       0.363
GenInitTot              :       0.080
--GenInitMine           :       0.080
GenRunTot               :       0.000
--GenRunMine            :       0.000
GenFinalTot             :       0.067
--GenFinalMine          :       0.067
GenRecordTot            :       0.001
--GenRecordMine         :       0.001
GenRefreshTot           :       0.000
--GenRefreshMine        :       0.000
  
   Character Resource Parameter SALTWATER_INTERNAL_CHECKPOINT_FILE: saltwater_internal_checkpoint
   Character Resource Parameter SALTWATER_INTERNAL_CHECKPOINT_TYPE: pnc4
 Using parallel NetCDF for file: saltwater_internal_checkpoint
   Character Resource Parameter SALTWATER_IMPORT_CHECKPOINT_FILE: saltwater_import_checkpoint
   Character Resource Parameter SALTWATER_IMPORT_CHECKPOINT_TYPE: pnc4
 Using parallel NetCDF for file: saltwater_import_checkpoint
  
  Times for SALTWATER
TOTAL                   :       2.505
INITIALIZE              :       0.044
RUN1                    :       1.397
RUN2                    :       0.945
-BeforeSaltWaterCore    :       0.524
-OpenWater              :       0.042
-Thermo1                :       0.001
-Thermo2                :       0.001
-Albedo                 :       0.096
FINALIZE                :       0.000
GenInitTot              :       0.044
--GenInitMine           :       0.044
GenRunTot               :       0.000
--GenRunMine            :       0.000
GenFinalTot             :       0.075
--GenFinalMine          :       0.075
GenRecordTot            :       0.001
--GenRecordMine         :       0.000
GenRefreshTot           :       0.000
--GenRefreshMine        :       0.000
  
   Character Resource Parameter LAKE_INTERNAL_CHECKPOINT_FILE: lake_internal_checkpoint
   Character Resource Parameter LAKE_INTERNAL_CHECKPOINT_TYPE: pnc4
 Using parallel NetCDF for file: lake_internal_checkpoint
  
  Times for LAKE
TOTAL                   :       0.370
RUN1                    :       0.184
RUN2                    :       0.159
GenInitTot              :       0.014
--GenInitMine           :       0.014
GenRunTot               :       0.000
--GenRunMine            :       0.000
GenFinalTot             :       0.017
--GenFinalMine          :       0.017
GenRecordTot            :       0.001
--GenRecordMine         :       0.001
GenRefreshTot           :       0.000
--GenRefreshMine        :       0.000
  
   Character Resource Parameter LANDICE_INTERNAL_CHECKPOINT_FILE: landice_internal_checkpoint
   Character Resource Parameter LANDICE_INTERNAL_CHECKPOINT_TYPE: pnc4
 Using parallel NetCDF for file: landice_internal_checkpoint
  
  Times for LANDICE
TOTAL                   :       0.565
RUN1                    :       0.165
RUN2                    :       0.379
GenInitTot              :       0.019
--GenInitMine           :       0.019
GenRunTot               :       0.000
--GenRunMine            :       0.000
GenFinalTot             :       0.030
--GenFinalMine          :       0.030
GenRecordTot            :       0.001
--GenRecordMine         :       0.000
GenRefreshTot           :       0.000
--GenRefreshMine        :       0.000
  
  
  Times for VEGDYN
TOTAL                   :       0.283
GenInitTot              :       0.025
--GenInitMine           :       0.025
GenRunTot               :       0.000
--GenRunMine            :       0.000
GenFinalTot             :       0.001
--GenFinalMine          :       0.001
GenRecordTot            :       0.001
--GenRecordMine         :       0.000
GenRefreshTot           :       0.000
--GenRefreshMine        :       0.000
  
   Character Resource Parameter CATCH_INTERNAL_CHECKPOINT_FILE: catch_internal_checkpoint
   Character Resource Parameter CATCH_INTERNAL_CHECKPOINT_TYPE: pnc4
 Using parallel NetCDF for file: catch_internal_checkpoint
  
  Times for CATCH
TOTAL                   :      28.465
RUN1                    :      13.608
-SURF                   :      12.698
RUN2                    :      14.339
-CATCH                  :       8.943
-ALBEDO                 :       0.227
GenInitTot              :       0.374
--GenInitMine           :       0.374
GenRunTot               :       0.000
--GenRunMine            :       0.000
GenFinalTot             :       0.164
--GenFinalMine          :       0.164
GenRecordTot            :       0.000
--GenRecordMine         :       0.000
GenRefreshTot           :       0.000
--GenRefreshMine        :       0.000
  
  
  Times for LAND
TOTAL                   :      28.806
INITIALIZE              :       0.445
RUN1                    :      13.871
RUN2                    :      14.371
VEGDYN                  :       0.284
CATCH                   :      28.498
GenInitTot              :       0.445
--GenInitMine           :       0.056
GenRunTot               :       0.000
--GenRunMine            :       0.000
GenFinalTot             :       0.164
--GenFinalMine          :       0.001
GenRecordTot            :       0.013
--GenRecordMine         :       0.000
GenRefreshTot           :       0.000
--GenRefreshMine        :       0.000
  
   Character Resource Parameter SURFACE_IMPORT_CHECKPOINT_FILE: surf_import_checkpoint
   Character Resource Parameter SURFACE_IMPORT_CHECKPOINT_TYPE: pnc4
 Using parallel NetCDF for file: surf_import_checkpoint
  
  Times for SURFACE
TOTAL                   :      42.254
INITIALIZE              :       0.680
InitChild               :       0.558
LocStreamCreate         :       0.033
LocStreamXForm          :       0.113
-RUN1                   :      20.545
--RUN1_SALTWATER        :       1.597
--RUN1_LAKE             :       0.333
--RUN1_LANDICE          :       0.335
--RUN1_LAND             :      14.146
-RUN2                   :      20.887
--RUN2_SALTWATER        :       1.183
--RUN2_LAKE             :       0.304
--RUN2_LANDICE          :       0.617
--RUN2_LAND             :      14.849
SALTWATER               :       2.901
LAKE                    :       0.664
LANDICE                 :       0.996
LAND                    :      29.561
GenInitTot              :       0.558
--GenInitMine           :       0.060
GenRunTot               :       0.000
--GenRunMine            :       0.000
GenFinalTot             :       0.318
--GenFinalMine          :       0.035
GenRecordTot            :       0.016
--GenRecordMine         :       0.000
GenRefreshTot           :       0.000
--GenRefreshMine        :       0.000
  
   Character Resource Parameter TURBULENCE_INTERNAL_CHECKPOINT_FILE: turb_internal_checkpoint
   Character Resource Parameter TURBULENCE_INTERNAL_CHECKPOINT_TYPE: pnc4
 Using parallel NetCDF for file: turb_internal_checkpoint
   Character Resource Parameter TURBULENCE_IMPORT_CHECKPOINT_FILE: turb_import_checkpoint
   Character Resource Parameter TURBULENCE_IMPORT_CHECKPOINT_TYPE: pnc4
 Using parallel NetCDF for file: turb_import_checkpoint
  
  Times for TURBULENCE
TOTAL                   :       1.944
-RUN1                   :       1.703
--DIFFUSE               :       0.532
--REFRESHKS             :       1.188
---REFRESHKS_RUN        :       0.000
---REFRESHKS_DATA       :       0.000
----REFRESHKS_DATA_DEVIC:       0.000
----REFRESHKS_DATA_CONST:       0.000
---REFRESHKS_ALLOC      :       0.000
---REFRESHKS_DEALLOC    :       0.000
---PRELIMS              :       0.427
---LOUIS                :       0.105
---LOCK                 :       0.093
---POSTLOCK             :       0.352
---BELJAARS             :       0.128
---DECOMP               :       0.112
-RUN2                   :       0.227
--UPDATE                :       0.203
GenInitTot              :       0.014
--GenInitMine           :       0.014
GenRunTot               :       0.000
--GenRunMine            :       0.000
GenFinalTot             :       0.052
--GenFinalMine          :       0.052
GenRecordTot            :       0.001
--GenRecordMine         :       0.000
GenRefreshTot           :       0.000
--GenRefreshMine        :       0.000
  
  
  Times for CHEMENV
TOTAL                   :       0.005
GenInitTot              :       0.004
--GenInitMine           :       0.004
GenRunTot               :       0.000
--GenRunMine            :       0.000
GenFinalTot             :       0.001
--GenFinalMine          :       0.001
GenRecordTot            :       0.001
--GenRecordMine         :       0.001
GenRefreshTot           :       0.000
--GenRefreshMine        :       0.000
  
   Character Resource Parameter PCHEM_INTERNAL_CHECKPOINT_FILE: pchem_internal_checkpoint
   Character Resource Parameter PCHEM_INTERNAL_CHECKPOINT_TYPE: pnc4
 Using parallel NetCDF for file: pchem_internal_checkpoint
  
  Times for PCHEM
TOTAL                   :       1.760
RUN                     :       1.696
-Read Species           :       0.028
INITIALIZE              :       0.031
-Read Header            :       0.014
GenInitTot              :       0.022
--GenInitMine           :       0.022
GenRunTot               :       0.000
--GenRunMine            :       0.000
GenFinalTot             :       0.017
--GenFinalMine          :       0.017
GenRecordTot            :       0.001
--GenRecordMine         :       0.001
GenRefreshTot           :       0.000
--GenRefreshMine        :       0.000
  
   Character Resource Parameter GOCART.data_INTERNAL_CHECKPOINT_FILE: gocartdata_internal_checkpoint
   Character Resource Parameter GOCART.data_INTERNAL_CHECKPOINT_TYPE: pnc4
 Using parallel NetCDF for file: gocartdata_internal_checkpoint
  
  Times for GOCART.data
TOTAL                   :       0.374
RUN                     :       0.180
INITIALIZE              :       0.128
FINALIZE                :       0.013
GenInitTot              :       0.023
--GenInitMine           :       0.023
GenRunTot               :       0.000
--GenRunMine            :       0.000
GenFinalTot             :       0.083
--GenFinalMine          :       0.083
GenRecordTot            :       0.001
--GenRecordMine         :       0.000
GenRefreshTot           :       0.000
--GenRefreshMine        :       0.000
  
  
  Times for CHEMISTRY
TOTAL                   :       2.406
CHEMENV                 :       0.254
PCHEM                   :       1.767
GOCART.data             :       0.379
GenInitTot              :       0.171
--GenInitMine           :       0.023
GenRunTot               :       0.000
--GenRunMine            :       0.000
GenFinalTot             :       0.105
--GenFinalMine          :       0.000
GenRecordTot            :       0.016
--GenRecordMine         :       0.001
GenRefreshTot           :       0.000
--GenRefreshMine        :       0.000
  
   Character Resource Parameter SOLAR_INTERNAL_CHECKPOINT_FILE: solar_internal_checkpoint
   Character Resource Parameter SOLAR_INTERNAL_CHECKPOINT_TYPE: pnc4
 Using parallel NetCDF for file: solar_internal_checkpoint
  
  Times for SOLAR
TOTAL                   :      24.757
PRELIMS                 :       0.067
REFRESH                 :      24.296
-SORAD                  :      17.870
--SORAD_RUN             :      17.870
--SORAD_DATA            :       0.000
---SORAD_DATA_DEVICE    :       0.000
---SORAD_DATA_CONST     :       0.000
--SORAD_ALLOC           :       0.000
--SORAD_DEALLOC         :       0.000
-RRTMG                  :       0.000
--RRTMG_RUN             :       0.000
--RRTMG_INIT            :       0.000
--RRTMG_FLIP            :       0.000
-BALANCE                :       5.730
--CREATE                :       2.046
--DISTRIBUTE            :       0.445
--RETRIEVE              :       4.335
--DESTROY               :       0.001
-MISC                   :       0.065
UPDATE                  :       0.395
-AEROSOLS               :       1.104
GenInitTot              :       0.014
--GenInitMine           :       0.014
GenRunTot               :       0.000
--GenRunMine            :       0.000
GenFinalTot             :       0.036
--GenFinalMine          :       0.036
GenRecordTot            :       0.000
--GenRecordMine         :       0.000
GenRefreshTot           :       0.000
--GenRefreshMine        :       0.000
  
   Character Resource Parameter IRRAD_INTERNAL_CHECKPOINT_FILE: irrad_internal_checkpoint
   Character Resource Parameter IRRAD_INTERNAL_CHECKPOINT_TYPE: pnc4
 Using parallel NetCDF for file: irrad_internal_checkpoint
  
  Times for IRRAD
TOTAL                   :      15.716
-LW_DRIVER              :      15.578
--IRRAD                 :      14.275
---IRRAD_RUN            :      14.275
---IRRAD_DATA           :       0.000
----IRRAD_DATA_DEVICE   :       0.000
----IRRAD_DATA_CONST    :       0.000
---IRRAD_ALLOC          :       0.000
---IRRAD_DEALLOC        :       0.000
--RRTMG                 :       0.000
---RRTMG_RUN            :       0.000
---RRTMG_INIT           :       0.000
---RRTMG_FLIP           :       0.000
--MISC                  :       1.412
---AEROSOLS             :       1.375
-UPDATE_FLX             :       0.069
GenInitTot              :       0.025
--GenInitMine           :       0.025
GenRunTot               :       0.000
--GenRunMine            :       0.000
GenFinalTot             :       0.037
--GenFinalMine          :       0.037
GenRecordTot            :       0.001
--GenRecordMine         :       0.001
GenRefreshTot           :       0.000
--GenRefreshMine        :       0.000
  
  
  Times for RADIATION
TOTAL                   :      40.255
SOLAR                   :      24.758
IRRAD                   :      15.716
GenInitTot              :       0.050
--GenInitMine           :       0.025
GenRunTot               :      40.077
--GenRunMine            :       0.001
GenFinalTot             :       0.071
--GenFinalMine          :       0.000
GenRecordTot            :       0.003
--GenRecordMine         :       0.000
GenRefreshTot           :       0.000
--GenRefreshMine        :       0.000
  
  
  Times for PHYSICS
TOTAL                   :      98.101
INITIALIZE              :       0.004
RUN                     :      96.503
GWD                     :       1.433
MOIST                   :       7.588
SURFACE                 :      42.385
TURBULENCE              :       1.953
CHEMISTRY               :       2.411
RADIATION               :      40.269
GenInitTot              :       1.003
--GenInitMine           :       0.037
GenRunTot               :       0.000
--GenRunMine            :       0.000
GenFinalTot             :       0.571
--GenFinalMine          :       0.000
GenRecordTot            :       0.040
--GenRecordMine         :       0.000
GenRefreshTot           :       0.000
--GenRefreshMine        :       0.000
  
  
  Times for ORBIT
TOTAL                   :       0.037
Run                     :       0.000
GenInitTot              :       0.037
--GenInitMine           :       0.037
GenRunTot               :       0.000
--GenRunMine            :       0.000
GenFinalTot             :       0.001
--GenFinalMine          :       0.001
GenRecordTot            :       0.001
--GenRecordMine         :       0.001
GenRefreshTot           :       0.000
--GenRefreshMine        :       0.000
  
  
  Times for AGCM
TOTAL                   :     151.199
SUPERDYNAMICS           :      53.899
PHYSICS                 :      98.104
ORBIT                   :       0.039
GenInitTot              :       1.126
--GenInitMine           :       0.026
GenRunTot               :       0.000
--GenRunMine            :       0.000
GenFinalTot             :       0.605
--GenFinalMine          :       0.000
GenRecordTot            :       0.043
--GenRecordMine         :       0.000
GenRefreshTot           :       0.000
--GenRefreshMine        :       0.000
INITIALIZE              :       1.127
RUN                     :     149.428
  
  
  Times for AIAU
TOTAL                   :       0.009
INITIALIZE              :       0.000
DRIVER                  :       0.000
-INTR                   :       0.000
-RUN                    :       0.000
-REGRIDSPC              :       0.000
GenInitTot              :       0.009
--GenInitMine           :       0.009
GenRunTot               :       0.000
--GenRunMine            :       0.000
GenFinalTot             :       0.000
--GenFinalMine          :       0.000
GenRecordTot            :       0.000
--GenRecordMine         :       0.000
GenRefreshTot           :       0.000
--GenRefreshMine        :       0.000
  
  
  Times for ADFI
TOTAL                   :       0.007
INITIALIZE              :       0.000
GenInitTot              :       0.007
--GenInitMine           :       0.007
GenRunTot               :       0.000
--GenRunMine            :       0.000
GenFinalTot             :       0.000
--GenFinalMine          :       0.000
GenRecordTot            :       0.001
--GenRecordMine         :       0.001
GenRefreshTot           :       0.000
--GenRefreshMine        :       0.000
  
  
  Times for OBIO
TOTAL                   :       0.002
GenInitTot              :       0.002
--GenInitMine           :       0.002
GenRunTot               :       0.001
--GenRunMine            :       0.000
GenFinalTot             :       0.001
--GenFinalMine          :       0.001
GenRecordTot            :       0.000
--GenRecordMine         :       0.000
GenRefreshTot           :       0.000
--GenRefreshMine        :       0.000
  
   Character Resource Parameter ORAD_IMPORT_CHECKPOINT_FILE: orad_import_checkpoint
   Character Resource Parameter ORAD_IMPORT_CHECKPOINT_TYPE: pnc4
 Using parallel NetCDF for file: orad_import_checkpoint
  
  Times for ORAD
TOTAL                   :       0.138
RUN                     :       0.112
GenInitTot              :       0.004
--GenInitMine           :       0.004
GenRunTot               :       0.000
--GenRunMine            :       0.000
GenFinalTot             :       0.023
--GenFinalMine          :       0.023
GenRecordTot            :       0.000
--GenRecordMine         :       0.000
GenRefreshTot           :       0.000
--GenRefreshMine        :       0.000
  
  
  Times for SEAICE
TOTAL                   :       0.114
RUN                     :       0.112
-UPDATE                 :       0.041
GenInitTot              :       0.002
--GenInitMine           :       0.002
GenRunTot               :       0.000
--GenRunMine            :       0.000
GenFinalTot             :       0.001
--GenFinalMine          :       0.001
GenRecordTot            :       0.001
--GenRecordMine         :       0.000
GenRefreshTot           :       0.000
--GenRefreshMine        :       0.000
  
  
  Times for MIT
TOTAL                   :      21.677
INITIALIZE              :       0.001
RUN                     :      21.670
FINALIZE                :       0.000
GenInitTot              :       0.007
--GenInitMine           :       0.007
GenRunTot               :       0.000
--GenRunMine            :       0.000
GenFinalTot             :       0.000
--GenFinalMine          :       0.000
GenRecordTot            :       0.000
--GenRecordMine         :       0.000
GenRefreshTot           :       0.000
--GenRefreshMine        :       0.000
  
  
  Times for OCEAN
TOTAL                   :      22.249
MIT                     :      22.102
GenInitTot              :       0.387
--GenInitMine           :       0.006
GenRunTot               :      21.718
--GenRunMine            :       0.000
GenFinalTot             :       0.001
--GenFinalMine          :       0.001
GenRecordTot            :       0.001
--GenRecordMine         :       0.001
GenRefreshTot           :       0.000
--GenRefreshMine        :       0.000
INITIALIZE              :       0.387
RUN                     :      21.860
--ModRun                :      21.718
  
  
  Times for OGCM
TOTAL                   :      22.632
INITIALIZE              :       0.398
RUN                     :      22.216
InitChild               :       0.398
OBIO                    :       0.004
ORAD                    :       0.140
SEAICE                  :       0.121
OCEAN                   :      22.250
GenInitTot              :       0.398
--GenInitMine           :       0.005
GenRunTot               :      22.051
--GenRunMine            :       0.000
GenFinalTot             :       0.029
--GenFinalMine          :       0.001
GenRecordTot            :       0.012
--GenRecordMine         :       0.000
GenRefreshTot           :       0.000
--GenRefreshMine        :       0.000
  
  
  Times for GCM
TOTAL                   :     175.603
AGCM                    :     151.202
AIAU                    :       0.009
ADFI                    :       0.007
OGCM                    :      22.634
GenInitTot              :       1.550
--GenInitMine           :       0.030
GenRunTot               :       0.000
--GenRunMine            :       0.000
GenFinalTot             :       0.633
--GenFinalMine          :       0.001
GenRecordTot            :       0.047
--GenRecordMine         :       0.001
GenRefreshTot           :       0.000
--GenRefreshMine        :       0.000
INITIALIZE              :       1.834
RUN                     :     173.125
--OCEAN                 :      22.217
--ATMOSPHERE            :     149.430
--REPLAY                :       0.000
--A2O                   :       0.659
--O2A                   :       0.412
  
  
  Times for ANA
TOTAL                   :       0.002
GenInitTot              :       0.001
--GenInitMine           :       0.001
GenRunTot               :       0.000
--GenRunMine            :       0.000
GenFinalTot             :       0.001
--GenFinalMine          :       0.001
GenRecordTot            :       0.000
--GenRecordMine         :       0.000
GenRefreshTot           :       0.000
--GenRefreshMine        :       0.000
  
  
  Times for GCS
TOTAL                   :     175.613
GCM                     :     175.604
ANA                     :       0.004
GenInitTot              :       1.853
--GenInitMine           :       0.002
GenRunTot               :     173.129
--GenRunMine            :       0.000
GenFinalTot             :       0.634
--GenFinalMine          :       0.001
GenRecordTot            :       0.057
--GenRecordMine         :       0.000
GenRefreshTot           :       0.000
--GenRefreshMine        :       0.000
  
  
  Times for HIST
TOTAL                   :       5.985
Initialize              :       0.271
Finalize                :       0.000
Run                     :       5.751
--Couplers              :       0.335
--I/O                   :       5.414
----IO Create           :       2.452
----IO Write            :       5.356
-----IO Post            :       2.570
-----IO Wait            :       0.945
-----IO Write           :       2.057
-ParserRun              :       0.000
GenInitTot              :       0.000
--GenInitMine           :       0.000
GenRunTot               :       0.000
--GenRunMine            :       0.000
GenFinalTot             :       0.002
--GenFinalMine          :       0.002
GenRecordTot            :       0.000
--GenRecordMine         :       0.000
GenRefreshTot           :       0.000
--GenRefreshMine        :       0.000
  
  
  Times for EXTDATA
TOTAL                   :      63.598
Initialize              :      17.957
Run                     :      47.923
-Read_Loop              :      47.553
--CheckUpd              :       0.003
--Read                  :      13.463
--Swap                  :       0.003
--Bracket               :      36.034
-Interpolate            :       0.399
GenInitTot              :       0.008
--GenInitMine           :       0.008
GenRunTot               :       0.001
--GenRunMine            :       0.000
GenFinalTot             :       0.002
--GenFinalMine          :       0.002
GenRecordTot            :       0.000
--GenRecordMine         :       0.000
GenRefreshTot           :       0.000
--GenRefreshMine        :       0.000
  
 NOT using buffer I/O for file: cap_restart
Model Throughput:      352.653 days per day
GEOSgcm Run Status: 0
