(PID.TID 0001.0001) 
(PID.TID 0001.0001) // ======================================================
(PID.TID 0001.0001) //                      MITgcm UV
(PID.TID 0001.0001) //                      =========
(PID.TID 0001.0001) // ======================================================
(PID.TID 0001.0001) // execution environment starting up...
(PID.TID 0001.0001) 
(PID.TID 0001.0001) // MITgcmUV version:  checkpoint58u_post
(PID.TID 0001.0001) // Build user:        cnh
(PID.TID 0001.0001) // Build host:        localhost.localdomain
(PID.TID 0001.0001) // Build date:        Sat Feb  3 21:12:25 EST 2007
(PID.TID 0001.0001) 
(PID.TID 0001.0001) // =======================================================
(PID.TID 0001.0001) // Execution Environment parameter file "eedata"
(PID.TID 0001.0001) // =======================================================
(PID.TID 0001.0001) ># Example "eedata" file
(PID.TID 0001.0001) ># Lines beginning "#" are comments
(PID.TID 0001.0001) ># nTx - No. threads per process in X
(PID.TID 0001.0001) ># nTy - No. threads per process in Y
(PID.TID 0001.0001) > &EEPARMS
(PID.TID 0001.0001) > useCubedSphereExchange=.TRUE.,
(PID.TID 0001.0001) > nTx=1,
(PID.TID 0001.0001) > nTy=1,
(PID.TID 0001.0001) > &end
(PID.TID 0001.0001) ># Note: Some systems use & as the
(PID.TID 0001.0001) ># namelist terminator. Other systems
(PID.TID 0001.0001) ># use a / character (as shown here).
(PID.TID 0001.0001) 
(PID.TID 0001.0001) // =======================================================
(PID.TID 0001.0001) // Computational Grid Specification ( see files "SIZE.h" )
(PID.TID 0001.0001) //                                  ( and "eedata"       )
(PID.TID 0001.0001) // =======================================================
(PID.TID 0001.0001)      nPx =    6 ; /* No. processes in X */
(PID.TID 0001.0001)      nPy =    1 ; /* No. processes in Y */
(PID.TID 0001.0001)      nSx =    1 ; /* No. tiles in X per process */
(PID.TID 0001.0001)      nSy =    1 ; /* No. tiles in Y per process */
(PID.TID 0001.0001)      sNx =   32 ; /* Tile size in X */
(PID.TID 0001.0001)      sNy =   32 ; /* Tile size in Y */
(PID.TID 0001.0001)      OLx =    3 ; /* Tile overlap distance in X */
(PID.TID 0001.0001)      OLy =    3 ; /* Tile overlap distance in Y */
(PID.TID 0001.0001)      nTx =    1 ; /* No. threads in X per process */
(PID.TID 0001.0001)      nTy =    1 ; /* No. threads in Y per process */
(PID.TID 0001.0001)       Nr =   15 ; /* No. levels in the vertical   */
(PID.TID 0001.0001)       nX =  192 ; /* Total domain size in X ( = nPx*nSx*sNx ) */
(PID.TID 0001.0001)       nY =   32 ; /* Total domain size in Y ( = nPy*nSy*sNy ) */
(PID.TID 0001.0001)   nTiles =    1 ; /* Total no. tiles per process ( = nSx*nSy ) */
(PID.TID 0001.0001)   nProcs =    6 ; /* Total no. processes ( = nPx*nPy ) */
(PID.TID 0001.0001) nThreads =    1 ; /* Total no. threads per process ( = nTx*nTy ) */
(PID.TID 0001.0001) usingMPI =    F ; /* Flag used to control whether MPI is in use */
(PID.TID 0001.0001)                   /*  note: To execute a program with MPI calls */
(PID.TID 0001.0001)                   /*  it must be launched appropriately e.g     */
(PID.TID 0001.0001)                   /*  "mpirun -np 64 ......"                    */
(PID.TID 0001.0001) useCoupler=   F ; /* Flag used to control communications with */
(PID.TID 0001.0001)                   /*  other model components, through a coupler */
(PID.TID 0001.0001) 
(PID.TID 0001.0001) ======= Starting MPI parallel Run =========
(PID.TID 0001.0001)  My Processor Name =                                                         heracles
(PID.TID 0001.0001)  Located at (  1,  0) on processor grid (0:  5,0:  0)
(PID.TID 0001.0001)  Origin at  (  33,   1) on global grid (1: 192,1:  32)
(PID.TID 0001.0001)  North neighbor = processor 0001
(PID.TID 0001.0001)  South neighbor = processor 0001
(PID.TID 0001.0001)   East neighbor = processor 0002
(PID.TID 0001.0001)   West neighbor = processor 0000
(PID.TID 0001.0001) // ======================================================
(PID.TID 0001.0001) // Mapping of tiles to threads
(PID.TID 0001.0001) // ======================================================
(PID.TID 0001.0001) // -o- Thread   1, tiles (   1:   1,   1:   1)
(PID.TID 0001.0001) 
(PID.TID 0001.0001) // ======================================================
(PID.TID 0001.0001) // Tile <-> Tile connectvity table
(PID.TID 0001.0001) // ======================================================
(PID.TID 0001.0001) // Tile number: 000002 (process no. = 000001)
(PID.TID 0001.0001) //        WEST: Tile = 000001, Process = 000000, Comm = messages
(PID.TID 0001.0001) //                bi = 000001, bj = 000001
(PID.TID 0001.0001) //        EAST: Tile = 000003, Process = 000002, Comm = messages
(PID.TID 0001.0001) //                bi = 000001, bj = 000001
(PID.TID 0001.0001) //       SOUTH: Tile = 000002, Process = 000001, Comm = put
(PID.TID 0001.0001) //                bi = 000001, bj = 000001
(PID.TID 0001.0001) //       NORTH: Tile = 000002, Process = 000001, Comm = put
(PID.TID 0001.0001) //                bi = 000001, bj = 000001
(PID.TID 0001.0001) 
(PID.TID 0001.0001) ===== W2 TILE TOPLOGY =====
(PID.TID 0001.0001)  TILE:    2
(PID.TID 0001.0001)       NEIGHBOUR    1 = TILE    3 Comm = MSG ( PROC =    3)
(PID.TID 0001.0001)       NEIGHBOUR    2 = TILE    6 Comm = MSG ( PROC =    6)
(PID.TID 0001.0001)       NEIGHBOUR    3 = TILE    4 Comm = MSG ( PROC =    4)
(PID.TID 0001.0001)       NEIGHBOUR    4 = TILE    1 Comm = MSG ( PROC =    1)
(PID.TID 0001.0001) Tile    2(proc =   2) sends points i=  -2:  35, j=  30:  32
(PID.TID 0001.0001)                          to points i=  -2:  35, j=  -2:   0 in tile    3(proc =   3)
(PID.TID 0001.0001) Tile    2(proc =   2) sends points i=  35:  -2, j=   1:   3
(PID.TID 0001.0001)                          to points i=  33:  35, j=  -2:  35 in tile    6(proc =   6)
(PID.TID 0001.0001) Tile    2(proc =   2) sends points i=  30:  32, j=  35:  -2
(PID.TID 0001.0001)                          to points i=  -2:  35, j=  -2:   0 in tile    4(proc =   4)
(PID.TID 0001.0001) Tile    2(proc =   2) sends points i=   1:   3, j=  -2:  35
(PID.TID 0001.0001)                          to points i=  33:  35, j=  -2:  35 in tile    1(proc =   1)
(PID.TID 0001.0001) Tile    2(proc =   3)recv to points i=  -2:  35, j=  33:  35from tile   3(proc =   3)
(PID.TID 0001.0001) Tile    2(proc =   6)recv to points i=  -2:  35, j=  -2:   0from tile   6(proc =   6)
(PID.TID 0001.0001) Tile    2(proc =   4)recv to points i=  33:  35, j=  -2:  35from tile   4(proc =   4)
(PID.TID 0001.0001) Tile    2(proc =   1)recv to points i=  -2:   0, j=  -2:  35from tile   1(proc =   1)
(PID.TID 0001.0001) // =======================================================
(PID.TID 0001.0001) // Model parameter file "data"
(PID.TID 0001.0001) // =======================================================
(PID.TID 0001.0001) ># ====================
(PID.TID 0001.0001) ># | Model parameters |
(PID.TID 0001.0001) ># ====================
(PID.TID 0001.0001) >#
(PID.TID 0001.0001) ># Continuous equation parameters
(PID.TID 0001.0001) > &PARM01
(PID.TID 0001.0001) > tRef=15*20.,
(PID.TID 0001.0001) > sRef=15*35.,
(PID.TID 0001.0001) > viscAh =3.E5,
(PID.TID 0001.0001) >#- biharmonic Viscosity: 3.e15 is close to the stability limit with deltaTmom=20mn
(PID.TID 0001.0001) >#viscA4 =3.E15,
(PID.TID 0001.0001) > viscAr =1.E-3,
(PID.TID 0001.0001) > diffKhT=0.,
(PID.TID 0001.0001) > diffK4T=0.,
(PID.TID 0001.0001) > diffKrT=3.E-5,
(PID.TID 0001.0001) > diffKhS=0.,
(PID.TID 0001.0001) > diffK4S=0.,
(PID.TID 0001.0001) > diffKrS=3.E-5,
(PID.TID 0001.0001) > ivdc_kappa=10.,
(PID.TID 0001.0001) > implicitDiffusion=.TRUE.,
(PID.TID 0001.0001) > rotationPeriod=86400.,
(PID.TID 0001.0001) > gravity=9.81,
(PID.TID 0001.0001) > rhonil=1035.,
(PID.TID 0001.0001) > rhoConstFresh=1000.,
(PID.TID 0001.0001) > eosType='JMD95Z',
(PID.TID 0001.0001) > staggerTimeStep=.TRUE.,
(PID.TID 0001.0001) > vectorInvariantMomentum=.TRUE.,
(PID.TID 0001.0001) > implicitFreeSurface=.TRUE.,
(PID.TID 0001.0001) > exactConserv=.TRUE.,
(PID.TID 0001.0001) > select_rStar=2,
(PID.TID 0001.0001) > nonlinFreeSurf=4,
(PID.TID 0001.0001) > hFacInf=0.2,
(PID.TID 0001.0001) > hFacSup=2.0,
(PID.TID 0001.0001) > useRealFreshWaterFlux=.TRUE.,
(PID.TID 0001.0001) > allowFreezing=.TRUE.,
(PID.TID 0001.0001) > hFacMin=.1,
(PID.TID 0001.0001) > hFacMinDr=20.,
(PID.TID 0001.0001) > readBinaryPrec=64,
(PID.TID 0001.0001) > &end
(PID.TID 0001.0001) >
(PID.TID 0001.0001) ># Elliptic solver parameters
(PID.TID 0001.0001) > &PARM02
(PID.TID 0001.0001) > cg2dMaxIters=200,
(PID.TID 0001.0001) >#cg2dTargetResidual=1.E-9,
(PID.TID 0001.0001) > cg2dTargetResWunit=1.E-14,
(PID.TID 0001.0001) > &end
(PID.TID 0001.0001) >
(PID.TID 0001.0001) ># Time stepping parameters
(PID.TID 0001.0001) > &PARM03
(PID.TID 0001.0001) > nIter0=72000,
(PID.TID 0001.0001) > nTimeSteps=20,
(PID.TID 0001.0001) > deltaTmom   =1200.,
(PID.TID 0001.0001) > deltaTtracer=86400.,
(PID.TID 0001.0001) > deltaTfreesurf=86400.,
(PID.TID 0001.0001) > deltaTClock =86400.,
(PID.TID 0001.0001) > abEps = 0.1,
(PID.TID 0001.0001) >#forcing_In_AB=.FALSE.,
(PID.TID 0001.0001) > tracForcingOutAB=1,
(PID.TID 0001.0001) > pChkptFreq  =1728000.,
(PID.TID 0001.0001) >#chkptFreq   =311040000.,
(PID.TID 0001.0001) > taveFreq    =1244160000.,
(PID.TID 0001.0001) > dumpFreq    =622080000.,
(PID.TID 0001.0001) > monitorFreq =31104000.,
(PID.TID 0001.0001) > periodicExternalForcing=.TRUE.,
(PID.TID 0001.0001) > externForcingPeriod=2592000.,
(PID.TID 0001.0001) > externForcingCycle=31104000.,
(PID.TID 0001.0001) ># 2 months restoring timescale for temperature
(PID.TID 0001.0001) > tauThetaClimRelax = 5184000.,
(PID.TID 0001.0001) ># 2yrs restoring timescale for salinity
(PID.TID 0001.0001) > tauSaltClimRelax = 62208000.,
(PID.TID 0001.0001) > monitorFreq =1.,
(PID.TID 0001.0001) > &end
(PID.TID 0001.0001) >
(PID.TID 0001.0001) ># Gridding parameters
(PID.TID 0001.0001) > &PARM04
(PID.TID 0001.0001) > usingCurvilinearGrid=.TRUE.,
(PID.TID 0001.0001) > horizGridFile='grid_cs32',
(PID.TID 0001.0001) > delR= 50., 70., 100., 140., 190.,
(PID.TID 0001.0001) >       240., 290., 340., 390., 440.,
(PID.TID 0001.0001) >       490., 540., 590., 640., 690.,
(PID.TID 0001.0001) > &end
(PID.TID 0001.0001) >
(PID.TID 0001.0001) ># Input datasets
(PID.TID 0001.0001) > &PARM05
(PID.TID 0001.0001) > bathyFile      ='bathy_Hmin50.bin',
(PID.TID 0001.0001) > hydrogThetaFile='lev_T_cs_15k.bin',
(PID.TID 0001.0001) > hydrogSaltFile ='lev_S_cs_15k.bin',
(PID.TID 0001.0001) > zonalWindFile  ='trenberth_taux.bin',
(PID.TID 0001.0001) > meridWindFile  ='trenberth_tauy.bin',
(PID.TID 0001.0001) > thetaClimFile  ='lev_surfT_cs_12m.bin',
(PID.TID 0001.0001) > saltClimFile   ='lev_surfS_cs_12m.bin',
(PID.TID 0001.0001) > surfQFile      ='shiQnet_cs32.bin',
(PID.TID 0001.0001) > EmPmRFile      ='shiEmPR_cs32.bin',
(PID.TID 0001.0001) > &end
(PID.TID 0001.0001) 
(PID.TID 0001.0001) S/R INI_PARMS ; starts to read PARM01
(PID.TID 0001.0001) S/R INI_PARMS ; read PARM01 : OK
(PID.TID 0001.0001) S/R INI_PARMS ; starts to read PARM02
(PID.TID 0001.0001) S/R INI_PARMS ; read PARM02 : OK
(PID.TID 0001.0001) S/R INI_PARMS ; starts to read PARM03
(PID.TID 0001.0001) S/R INI_PARMS ; read PARM03 : OK
(PID.TID 0001.0001) S/R INI_PARMS ; starts to read PARM04
(PID.TID 0001.0001) S/R INI_PARMS ; read PARM04 : OK
(PID.TID 0001.0001) S/R INI_PARMS ; starts to read PARM05
(PID.TID 0001.0001) S/R INI_PARMS ; read PARM05 : OK
(PID.TID 0001.0001)  PACKAGES_BOOT: opening data.pkg
(PID.TID 0001.0001)  OPEN_COPY_DATA_FILE: opening file data.pkg
(PID.TID 0001.0001) // =======================================================
(PID.TID 0001.0001) // Parameter file "data.pkg"
(PID.TID 0001.0001) // =======================================================
(PID.TID 0001.0001) ># Packages
(PID.TID 0001.0001) > &PACKAGES
(PID.TID 0001.0001) > useGMRedi=.TRUE.,
(PID.TID 0001.0001) >#useDiagnostics=.TRUE.,
(PID.TID 0001.0001) >#useMNC=.TRUE.,
(PID.TID 0001.0001) >#useBulkforce=.TRUE.,
(PID.TID 0001.0001) >#useThermSeaIce=.TRUE.,
(PID.TID 0001.0001) > &end
(PID.TID 0001.0001) 
(PID.TID 0001.0001)  PACKAGES_BOOT: finished reading data.pkg
(PID.TID 0001.0001)  GM_READPARMS: opening data.gmredi
(PID.TID 0001.0001)  OPEN_COPY_DATA_FILE: opening file data.gmredi
(PID.TID 0001.0001) // =======================================================
(PID.TID 0001.0001) // Parameter file "data.gmredi"
(PID.TID 0001.0001) // =======================================================
(PID.TID 0001.0001) ># GM+Redi package parameters:
(PID.TID 0001.0001) >
(PID.TID 0001.0001) >#-from MOM :
(PID.TID 0001.0001) ># GM_background_K: 	G & Mc.W  diffusion coefficient
(PID.TID 0001.0001) ># GM_maxSlope    :	max slope of isopycnals
(PID.TID 0001.0001) ># GM_Scrit       :	transition for scaling diffusion coefficient
(PID.TID 0001.0001) ># GM_Sd          :	half width scaling for diffusion coefficient
(PID.TID 0001.0001) ># GM_taper_scheme:	slope clipping or one of the tapering schemes
(PID.TID 0001.0001) ># GM_Kmin_horiz  :	horizontal diffusion minimum value
(PID.TID 0001.0001) >
(PID.TID 0001.0001) >#-Option parameters (needs to "define" options in GMREDI_OPTIONS.h")
(PID.TID 0001.0001) ># GM_isopycK     :	isopycnal diffusion coefficient (default=GM_background_K)
(PID.TID 0001.0001) ># GM_AdvForm     :	turn on GM Advective form       (default=Skew flux form)
(PID.TID 0001.0001) >
(PID.TID 0001.0001) > &GM_PARM01
(PID.TID 0001.0001) >  GM_background_K    = 800.,
(PID.TID 0001.0001) >  GM_taper_scheme    = 'gkw91',
(PID.TID 0001.0001) >  GM_maxSlope        = 1.e-2,
(PID.TID 0001.0001) >  GM_Kmin_horiz      = 50.,
(PID.TID 0001.0001) >  GM_Scrit           = 4.e-3,
(PID.TID 0001.0001) >  GM_Sd              = 1.e-3,
(PID.TID 0001.0001) ># GM_Visbeck_alpha   = 0.,
(PID.TID 0001.0001) ># GM_Visbeck_length  = 2.e+5,
(PID.TID 0001.0001) ># GM_Visbeck_depth   = 1.e+3,
(PID.TID 0001.0001) ># GM_Visbeck_maxval_K= 2.5e+3,
(PID.TID 0001.0001) > &end
(PID.TID 0001.0001) >
(PID.TID 0001.0001) >
(PID.TID 0001.0001) 
(PID.TID 0001.0001)  GM_READPARMS: finished reading data.gmredi
(PID.TID 0001.0001) SET_PARMS: done
(PID.TID 0001.0001) Enter INI_VERTICAL_GRID: setInterFDr=    T ; setCenterDr=    F
(PID.TID 0001.0001) tile:   2 ; Read from file grid_cs32.face002.bin
(PID.TID 0001.0001)   => xC yC dxF dyF rA xG yG dxV dyU rAz dxC dyC rAw rAs dxG dyG AngleCS AngleSN
(PID.TID 0001.0001) %MON XC_max                       =   1.7854351589505E+02
(PID.TID 0001.0001) %MON XC_min                       =  -1.7854351589505E+02
(PID.TID 0001.0001) %MON XC_mean                      =  -7.1054273576010E-15
(PID.TID 0001.0001) %MON XC_sd                        =   1.0355545336287E+02
(PID.TID 0001.0001) %MON XG_max                       =   1.8000000000000E+02
(PID.TID 0001.0001) %MON XG_min                       =  -1.7708797161002E+02
(PID.TID 0001.0001) %MON XG_mean                      =   1.8796250616675E+00
(PID.TID 0001.0001) %MON XG_sd                        =   1.0410625309932E+02
(PID.TID 0001.0001) %MON DXC_max                      =   3.2375185836900E+05
(PID.TID 0001.0001) %MON DXC_min                      =   1.1142031410131E+05
(PID.TID 0001.0001) %MON DXC_mean                     =   2.8605689051214E+05
(PID.TID 0001.0001) %MON DXC_sd                       =   3.4042087138252E+04
(PID.TID 0001.0001) %MON DXF_max                      =   3.2369947500827E+05
(PID.TID 0001.0001) %MON DXF_min                      =   1.2020820513318E+05
(PID.TID 0001.0001) %MON DXF_mean                     =   2.8605437324820E+05
(PID.TID 0001.0001) %MON DXF_sd                       =   3.4050524252539E+04
(PID.TID 0001.0001) %MON DXG_max                      =   3.2375195872773E+05
(PID.TID 0001.0001) %MON DXG_min                      =   1.0098378008791E+05
(PID.TID 0001.0001) %MON DXG_mean                     =   2.8603818508931E+05
(PID.TID 0001.0001) %MON DXG_sd                       =   3.4140406908005E+04
(PID.TID 0001.0001) %MON DXV_max                      =   3.2380418162750E+05
(PID.TID 0001.0001) %MON DXV_min                      =   8.0152299824136E+04
(PID.TID 0001.0001) %MON DXV_mean                     =   2.8603970633619E+05
(PID.TID 0001.0001) %MON DXV_sd                       =   3.4145142117723E+04
(PID.TID 0001.0001) %MON YC_max                       =   8.7940663871962E+01
(PID.TID 0001.0001) %MON YC_min                       =  -8.7940663871962E+01
(PID.TID 0001.0001) %MON YC_mean                      =   0.0000000000000E+00
(PID.TID 0001.0001) %MON YC_sd                        =   3.8676242969072E+01
(PID.TID 0001.0001) %MON YG_max                       =   9.0000000000000E+01
(PID.TID 0001.0001) %MON YG_min                       =  -9.0000000000000E+01
(PID.TID 0001.0001) %MON YG_mean                      =   1.2094344438470E-15
(PID.TID 0001.0001) %MON YG_sd                        =   3.9086186579984E+01
(PID.TID 0001.0001) %MON DYC_max                      =   3.2375185836900E+05
(PID.TID 0001.0001) %MON DYC_min                      =   1.1142031410131E+05
(PID.TID 0001.0001) %MON DYC_mean                     =   2.8605689051214E+05
(PID.TID 0001.0001) %MON DYC_sd                       =   3.4042087138252E+04
(PID.TID 0001.0001) %MON DYF_max                      =   3.2369947500827E+05
(PID.TID 0001.0001) %MON DYF_min                      =   1.2020820513318E+05
(PID.TID 0001.0001) %MON DYF_mean                     =   2.8605437324820E+05
(PID.TID 0001.0001) %MON DYF_sd                       =   3.4050524252539E+04
(PID.TID 0001.0001) %MON DYG_max                      =   3.2375195872773E+05
(PID.TID 0001.0001) %MON DYG_min                      =   1.0098378008791E+05
(PID.TID 0001.0001) %MON DYG_mean                     =   2.8603818508931E+05
(PID.TID 0001.0001) %MON DYG_sd                       =   3.4140406908005E+04
(PID.TID 0001.0001) %MON DYU_max                      =   3.2380418162750E+05
(PID.TID 0001.0001) %MON DYU_min                      =   8.0152299824136E+04
(PID.TID 0001.0001) %MON DYU_mean                     =   2.8603970633619E+05
(PID.TID 0001.0001) %MON DYU_sd                       =   3.4145142117723E+04
(PID.TID 0001.0001) %MON RA_max                       =   1.0479260248419E+11
(PID.TID 0001.0001) %MON RA_min                       =   1.4019007022556E+10
(PID.TID 0001.0001) %MON RA_mean                      =   8.2992246709265E+10
(PID.TID 0001.0001) %MON RA_sd                        =   1.7509089299457E+10
(PID.TID 0001.0001) %MON RAW_max                      =   1.0480965274559E+11
(PID.TID 0001.0001) %MON RAW_min                      =   1.2166903467143E+10
(PID.TID 0001.0001) %MON RAW_mean                     =   8.2992246709235E+10
(PID.TID 0001.0001) %MON RAW_sd                       =   1.7481917919656E+10
(PID.TID 0001.0001) %MON RAS_max                      =   1.0480965274559E+11
(PID.TID 0001.0001) %MON RAS_min                      =   1.2166903467143E+10
(PID.TID 0001.0001) %MON RAS_mean                     =   8.2992246709235E+10
(PID.TID 0001.0001) %MON RAS_sd                       =   1.7481917919656E+10
(PID.TID 0001.0001) %MON RAZ_max                      =   1.0484349334619E+11
(PID.TID 0001.0001) %MON RAZ_min                      =   8.8317900612505E+09
(PID.TID 0001.0001) %MON RAZ_mean                     =   8.2992246709235E+10
(PID.TID 0001.0001) %MON RAZ_sd                       =   1.7482297311044E+10
(PID.TID 0001.0001) %MON AngleCS_max                  =   9.9999994756719E-01
(PID.TID 0001.0001) %MON AngleCS_min                  =  -9.9968286884824E-01
(PID.TID 0001.0001) %MON AngleCS_mean                 =   3.3078850405987E-01
(PID.TID 0001.0001) %MON AngleCS_sd                   =   6.2496317138039E-01
(PID.TID 0001.0001) %MON AngleSN_max                  =   9.9968286884824E-01
(PID.TID 0001.0001) %MON AngleSN_min                  =  -9.9999994756719E-01
(PID.TID 0001.0001) %MON AngleSN_mean                 =  -3.3078850405987E-01
(PID.TID 0001.0001) %MON AngleSN_sd                   =   6.2496317138039E-01
(PID.TID 0001.0001)  MDS_READ_FIELD: opening global file: bathy_Hmin50.bin
(PID.TID 0001.0001) // =======================================================
(PID.TID 0001.0001) // Field Model R_low (ini_masks_etc) at iteration          1
(PID.TID 0001.0001) // CMIN =         -5.200000000000000E+03
(PID.TID 0001.0001) // CMAX =         -5.000000000000000E+01
(PID.TID 0001.0001) // CINT =          1.907407407407407E+02
(PID.TID 0001.0001) // SYMBOLS (CMIN->CMAX): -abcdefghijklmnopqrstuvwxyz+
(PID.TID 0001.0001) //                  0.0: .
(PID.TID 0001.0001) // RANGE I (Lo:Hi:Step):(  30:  67:   1)
(PID.TID 0001.0001) // RANGE J (Lo:Hi:Step):(  35:  -2:  -1)
(PID.TID 0001.0001) // RANGE K (Lo:Hi:Step):(   1:   1:   1)
(PID.TID 0001.0001) // =======================================================
(PID.TID 0001.0001) K =   1
(PID.TID 0001.0001) //                I=39      I=49      I=59
(PID.TID 0001.0001) // |--J--|012345678|012345678|012345678|01234567
(PID.TID 0001.0001) //     35 ...............................kqnzrqq
(PID.TID 0001.0001) //     34 ..............................vkqn+xnn
(PID.TID 0001.0001) //     33 ..............................xsrxzz+z
(PID.TID 0001.0001) //     32 ............................++..u+....
(PID.TID 0001.0001) //     31 ............................+++++.ztsv
(PID.TID 0001.0001) //     30 ............................+++++wmegt
(PID.TID 0001.0001) //     29 .............................+++yqddhp
(PID.TID 0001.0001) //     28 .............................++zwgfcfk
(PID.TID 0001.0001) //     27 ......+++....................++vnbbbcl
(PID.TID 0001.0001) //     26 ......++sy...................+tq-fdbbl
(PID.TID 0001.0001) //     25 w.......njo+................+x-----bcg
(PID.TID 0001.0001) //     24 w.......likn+.....++.....++znpa----bbd
(PID.TID 0001.0001) //     23 zz.....nhhijz....tqq.....+ujgzgd---abc
(PID.TID 0001.0001) //     22 .zz..rnjffggm...nlmn+....+sffzya--aabc
(PID.TID 0001.0001) //     21 ..ysstlgeeeeoz..ijklt+....lfjzzf---adf
(PID.TID 0001.0001) //     20 .....lcgfdddhq.+hiilnz++.+oquxyz--adgk
(PID.TID 0001.0001) //     19 .....aafifccgnrzgghjry.+++sr+lq.--edfk
(PID.TID 0001.0001) //     18 ....jaacfihggokeeffgt..++++..hhlfdeddk
(PID.TID 0001.0001) //     17 ...icaaccfihfoedddeedy..++...nnqwgfeek
(PID.TID 0001.0001) //     16 ..jdbaddddgifkccccdccd+.++..++ynvz.tkk
(PID.TID 0001.0001) //     15 .sfcbbngfffigcaaabdbcac+.+++++zgmpx...
(PID.TID 0001.0001) //     14 .ofddchohffikaaaaabaaa-aw+.+ysnggox++.
(PID.TID 0001.0001) //     13 .nhfdffholghkaaaaaba-a---flkkuswyy++++
(PID.TID 0001.0001) //     12 .skiqddeiiiifaaabae--a---dd--iu+++.+++
(PID.TID 0001.0001) //     11 .nkn.fdemijidaaaabi-------a--q+....++.
(PID.TID 0001.0001) //     10 uos..dcemikkfdcaabi-------equ+........
(PID.TID 0001.0001) //      9 nnv.+ccffhkkiddaadha-----as++.........
(PID.TID 0001.0001) //      8 kky.jceddefijffdddhb--a-afv...........
(PID.TID 0001.0001) //      7 iht.faaaabdgijgfededcdcb-f+...........
(PID.TID 0001.0001) //      6 deisc----dfefgifffkklldc--v...........
(PID.TID 0001.0001) //      5 bcimlaaacfbddfjjhijeehf-a-c...........
(PID.TID 0001.0001) //      4 bdopfcbdgdbcdehlihgfddc--ms...........
(PID.TID 0001.0001) //      3 aesphfdhgabddeflihhgfecbaaayq+++++....
(PID.TID 0001.0001) //      2 aesqhffiea-cdeflkkljifeddcba---bry+...
(PID.TID 0001.0001) //      1 afonhglid--adfgkkkklkhffddca-----s++++
(PID.TID 0001.0001) //      0 fkllilmgebaadfijjiiikjhffdcba-----lllg
(PID.TID 0001.0001) //     -1 kiikimiiheccfurkiffhijjigfecb-----l---
(PID.TID 0001.0001) //     -2 lmlfklklkhednwwsheeghhijjgfdca----g---
(PID.TID 0001.0001) // =======================================================
(PID.TID 0001.0001) // END OF FIELD                                          =
(PID.TID 0001.0001) // =======================================================
(PID.TID 0001.0001) 
(PID.TID 0001.0001) // =======================================================
(PID.TID 0001.0001) // Field Model Ro_surf (ini_masks_etc) at iteration          1
(PID.TID 0001.0001) // CMIN =         -7.105427357601002E-15
(PID.TID 0001.0001) // CMAX =         -7.105427357601002E-15
(PID.TID 0001.0001) // CINT =          0.000000000000000E+00
(PID.TID 0001.0001) // SYMBOLS (CMIN->CMAX): -abcdefghijklmnopqrstuvwxyz+
(PID.TID 0001.0001) //                  0.0: .
(PID.TID 0001.0001) // RANGE I (Lo:Hi:Step):(  30:  67:   1)
(PID.TID 0001.0001) // RANGE J (Lo:Hi:Step):(  35:  -2:  -1)
(PID.TID 0001.0001) // RANGE K (Lo:Hi:Step):(   1:   1:   1)
(PID.TID 0001.0001) // =======================================================
(PID.TID 0001.0001) // =======================================================
(PID.TID 0001.0001) // END OF FIELD                                          =
(PID.TID 0001.0001) // =======================================================
(PID.TID 0001.0001) 
(PID.TID 0001.0001) // =======================================================
(PID.TID 0001.0001) // Field hFacC at iteration          1
(PID.TID 0001.0001) // CMIN =          1.000000000000000E+00
(PID.TID 0001.0001) // CMAX =          1.000000000000000E+00
(PID.TID 0001.0001) // CINT =          0.000000000000000E+00
(PID.TID 0001.0001) // SYMBOLS (CMIN->CMAX): -abcdefghijklmnopqrstuvwxyz+
(PID.TID 0001.0001) //                  0.0: .
(PID.TID 0001.0001) // RANGE I (Lo:Hi:Step):(  30:  67:   1)
(PID.TID 0001.0001) // RANGE J (Lo:Hi:Step):(  35:  -2:  -1)
(PID.TID 0001.0001) // RANGE K (Lo:Hi:Step):(   1:   1:   1)
(PID.TID 0001.0001) // =======================================================
(PID.TID 0001.0001) // =======================================================
(PID.TID 0001.0001) // END OF FIELD                                          =
(PID.TID 0001.0001) // =======================================================
(PID.TID 0001.0001) 
(PID.TID 0001.0001) // =======================================================
(PID.TID 0001.0001) // Field hFacW at iteration          1
(PID.TID 0001.0001) // CMIN =          1.000000000000000E+00
(PID.TID 0001.0001) // CMAX =          1.000000000000000E+00
(PID.TID 0001.0001) // CINT =          0.000000000000000E+00
(PID.TID 0001.0001) // SYMBOLS (CMIN->CMAX): -abcdefghijklmnopqrstuvwxyz+
(PID.TID 0001.0001) //                  0.0: .
(PID.TID 0001.0001) // RANGE I (Lo:Hi:Step):(  30:  67:   1)
(PID.TID 0001.0001) // RANGE J (Lo:Hi:Step):(  35:  -2:  -1)
(PID.TID 0001.0001) // RANGE K (Lo:Hi:Step):(   1:   1:   1)
(PID.TID 0001.0001) // =======================================================
(PID.TID 0001.0001) // =======================================================
(PID.TID 0001.0001) // END OF FIELD                                          =
(PID.TID 0001.0001) // =======================================================
(PID.TID 0001.0001) 
(PID.TID 0001.0001) // =======================================================
(PID.TID 0001.0001) // Field hFacS at iteration          1
(PID.TID 0001.0001) // CMIN =          1.000000000000000E+00
(PID.TID 0001.0001) // CMAX =          1.000000000000000E+00
(PID.TID 0001.0001) // CINT =          0.000000000000000E+00
(PID.TID 0001.0001) // SYMBOLS (CMIN->CMAX): -abcdefghijklmnopqrstuvwxyz+
(PID.TID 0001.0001) //                  0.0: .
(PID.TID 0001.0001) // RANGE I (Lo:Hi:Step):(  30:  67:   1)
(PID.TID 0001.0001) // RANGE J (Lo:Hi:Step):(  35:  -2:  -1)
(PID.TID 0001.0001) // RANGE K (Lo:Hi:Step):(   1:   1:   1)
(PID.TID 0001.0001) // =======================================================
(PID.TID 0001.0001) // =======================================================
(PID.TID 0001.0001) // END OF FIELD                                          =
(PID.TID 0001.0001) // =======================================================
(PID.TID 0001.0001) 
(PID.TID 0001.0001) 
(PID.TID 0001.0001) // ===================================
(PID.TID 0001.0001) // GAD parameters :
(PID.TID 0001.0001) // ===================================
(PID.TID 0001.0001) tempAdvScheme =   /* Temp. Horiz.Advection scheme selector */
(PID.TID 0001.0001)                       2
(PID.TID 0001.0001)     ;
(PID.TID 0001.0001) tempVertAdvScheme =   /* Temp. Vert. Advection scheme selector */
(PID.TID 0001.0001)                       2
(PID.TID 0001.0001)     ;
(PID.TID 0001.0001) tempMultiDimAdvec =   /* use Muti-Dim Advec method for Temp */
(PID.TID 0001.0001)                   F
(PID.TID 0001.0001)     ;
(PID.TID 0001.0001) tempSOM_Advection = /* use 2nd Order Moment Advection for Temp */
(PID.TID 0001.0001)                   F
(PID.TID 0001.0001)     ;
(PID.TID 0001.0001) AdamsBashforthGt = /* apply Adams-Bashforth extrapolation on Gt */
(PID.TID 0001.0001)                   T
(PID.TID 0001.0001)     ;
(PID.TID 0001.0001) AdamsBashforth_T = /* apply Adams-Bashforth extrapolation on Temp */
(PID.TID 0001.0001)                   F
(PID.TID 0001.0001)     ;
(PID.TID 0001.0001) saltAdvScheme =   /* Salt. Horiz.advection scheme selector */
(PID.TID 0001.0001)                       2
(PID.TID 0001.0001)     ;
(PID.TID 0001.0001) saltVertAdvScheme =   /* Salt. Vert. Advection scheme selector */
(PID.TID 0001.0001)                       2
(PID.TID 0001.0001)     ;
(PID.TID 0001.0001) saltMultiDimAdvec =   /* use Muti-Dim Advec method for Salt */
(PID.TID 0001.0001)                   F
(PID.TID 0001.0001)     ;
(PID.TID 0001.0001) saltSOM_Advection = /* use 2nd Order Moment Advection for Salt */
(PID.TID 0001.0001)                   F
(PID.TID 0001.0001)     ;
(PID.TID 0001.0001) AdamsBashforthGs = /* apply Adams-Bashforth extrapolation on Gs */
(PID.TID 0001.0001)                   T
(PID.TID 0001.0001)     ;
(PID.TID 0001.0001) AdamsBashforth_S = /* apply Adams-Bashforth extrapolation on Salt */
(PID.TID 0001.0001)                   F
(PID.TID 0001.0001)     ;
(PID.TID 0001.0001) // ===================================
(PID.TID 0001.0001) GAD_CHECK: #define ALLOW_GENERIC_ADVDIFF
(PID.TID 0001.0001) GMREDI_CHECK: #define GMREDI
(PID.TID 0001.0001) GM_AdvForm =  /* if FALSE => use SkewFlux Form */
(PID.TID 0001.0001)                   F
(PID.TID 0001.0001)     ;
(PID.TID 0001.0001) GM_AdvSeparate = /* Calc Bolus & Euler Adv. separately */
(PID.TID 0001.0001)                   F
(PID.TID 0001.0001)     ;
(PID.TID 0001.0001) GM_ExtraDiag =  /* Tensor Extra Diag (line 1&2) non 0 */
(PID.TID 0001.0001)                   F
(PID.TID 0001.0001)     ;
(PID.TID 0001.0001) GM_isopycK =   /* Background Isopyc. Diffusivity ( m^2/s ) */
(PID.TID 0001.0001)                 8.000000000000000E+02
(PID.TID 0001.0001)     ;
(PID.TID 0001.0001)  GM_skewflx*K =   /* Background GM_SkewFlx Diffusivity ( m^2/s ) */
(PID.TID 0001.0001)                 8.000000000000000E+02
(PID.TID 0001.0001)     ;
(PID.TID 0001.0001)  GM_advec*K =   /* Backg. GM-Advec(=Bolus) Diffusivity ( m^2/s ) */
(PID.TID 0001.0001)                 0.000000000000000E+00
(PID.TID 0001.0001)     ;
(PID.TID 0001.0001)  GM_Visbeck_alpha =   /* Visbeck alpha coeff. ( ) */
(PID.TID 0001.0001)                 0.000000000000000E+00
(PID.TID 0001.0001)     ;
(PID.TID 0001.0001)  Tapering/Cliping : gkw91
(PID.TID 0001.0001)  GM_Small_Number =  /* epsilon used in slope calc */
(PID.TID 0001.0001)                 1.000000000000000E-12
(PID.TID 0001.0001)     ;
(PID.TID 0001.0001)  GM_slopeSqCutoff =  /* Slope^2 cut-off value */
(PID.TID 0001.0001)                 1.000000000000000E+48
(PID.TID 0001.0001)     ;
(PID.TID 0001.0001) %MON fCori_max                    =   1.4535016908525E-04
(PID.TID 0001.0001) %MON fCori_min                    =  -1.4535016908525E-04
(PID.TID 0001.0001) %MON fCori_mean                   =   0.0000000000000E+00
(PID.TID 0001.0001) %MON fCori_sd                     =   8.3972192788621E-05
(PID.TID 0001.0001) %MON fCoriG_max                   =   1.4544410433286E-04
(PID.TID 0001.0001) %MON fCoriG_min                   =  -1.4544410433286E-04
(PID.TID 0001.0001) %MON fCoriG_mean                  =   0.0000000000000E+00
(PID.TID 0001.0001) %MON fCoriG_sd                    =   8.4860812167727E-05
(PID.TID 0001.0001) %MON fCoriCos_max                 =   1.4540341538469E-04
(PID.TID 0001.0001) %MON fCoriCos_min                 =   5.2264550201501E-06
(PID.TID 0001.0001) %MON fCoriCos_mean                =   1.1482595466044E-04
(PID.TID 0001.0001) %MON fCoriCos_sd                  =   3.0292878037194E-05
(PID.TID 0001.0001) INI_CG2D: CG2D normalisation factor =  1.9156564154949553E-04
(PID.TID 0001.0001) INI_CG2D: cg2dTolerance = 5.809016360175293E-07 (Area=3.6388673751E+14)
(PID.TID 0001.0001) 
(PID.TID 0001.0001) CONFIG_CHECK: OK
(PID.TID 0001.0001) // =======================================================
(PID.TID 0001.0001) // Model configuration
(PID.TID 0001.0001) // =======================================================
(PID.TID 0001.0001) //
(PID.TID 0001.0001) // "Physical" paramters ( PARM01 in namelist )
(PID.TID 0001.0001) //
(PID.TID 0001.0001) buoyancyRelation = OCEANIC
(PID.TID 0001.0001) fluidIsAir  =  /* fluid major constituent is Air */
(PID.TID 0001.0001)                   F
(PID.TID 0001.0001)     ;
(PID.TID 0001.0001) fluidIsWater=  /* fluid major constituent is Water */
(PID.TID 0001.0001)                   T
(PID.TID 0001.0001)     ;
(PID.TID 0001.0001) usingPCoords =  /* use p (or p*) vertical coordinate */
(PID.TID 0001.0001)                   F
(PID.TID 0001.0001)     ;
(PID.TID 0001.0001) usingZCoords =  /* use z (or z*) vertical coordinate */
(PID.TID 0001.0001)                   T
(PID.TID 0001.0001)     ;
(PID.TID 0001.0001) tRef =   /* Reference temperature profile ( oC or K ) */
(PID.TID 0001.0001)    15 @  2.000000000000000E+01              /* K =  1: 15 */
(PID.TID 0001.0001)     ;
(PID.TID 0001.0001) sRef =   /* Reference salinity profile ( psu ) */
(PID.TID 0001.0001)    15 @  3.500000000000000E+01              /* K =  1: 15 */
(PID.TID 0001.0001)     ;
(PID.TID 0001.0001) viscAh =   /* Lateral eddy viscosity ( m^2/s ) */
(PID.TID 0001.0001)                 3.000000000000000E+05
(PID.TID 0001.0001)     ;
(PID.TID 0001.0001) viscAhMax =   /* Maximum lateral eddy viscosity ( m^2/s ) */
(PID.TID 0001.0001)                 1.000000000000000E+21
(PID.TID 0001.0001)     ;
(PID.TID 0001.0001) viscAhGrid =   /* Grid dependent lateral eddy viscosity ( non-dim. ) */
(PID.TID 0001.0001)                 0.000000000000000E+00
(PID.TID 0001.0001)     ;
(PID.TID 0001.0001) useFullLeith =   /* Use Full Form of Leith Viscosity on/off flag*/
(PID.TID 0001.0001)                   F
(PID.TID 0001.0001)     ;
(PID.TID 0001.0001) useStrainTensionVisc =   /* Use StrainTension Form of Viscous Operator on/off flag*/
(PID.TID 0001.0001)                   F
(PID.TID 0001.0001)     ;
(PID.TID 0001.0001) useAreaViscLength =   /* Use area for visc length instead of geom. mean*/
(PID.TID 0001.0001)                   F
(PID.TID 0001.0001)     ;
(PID.TID 0001.0001) viscC2leith = /* Leith harmonic visc. factor (on grad(vort),non-dim.) */
(PID.TID 0001.0001)                 0.000000000000000E+00
(PID.TID 0001.0001)     ;
(PID.TID 0001.0001) viscC2leithD = /* Leith harmonic viscosity factor (on grad(div),non-dim.) */
(PID.TID 0001.0001)                 0.000000000000000E+00
(PID.TID 0001.0001)     ;
(PID.TID 0001.0001) viscC2smag =   /* Smagorinsky harmonic viscosity factor (non-dim.) */
(PID.TID 0001.0001)                 0.000000000000000E+00
(PID.TID 0001.0001)     ;
(PID.TID 0001.0001) viscA4 =   /* Lateral biharmonic viscosity ( m^4/s ) */
(PID.TID 0001.0001)                 0.000000000000000E+00
(PID.TID 0001.0001)     ;
(PID.TID 0001.0001) viscA4Max =   /* Maximum biharmonic viscosity ( m^2/s ) */
(PID.TID 0001.0001)                 1.000000000000000E+21
(PID.TID 0001.0001)     ;
(PID.TID 0001.0001) viscA4Grid =   /* Grid dependent biharmonic viscosity ( non-dim. ) */
(PID.TID 0001.0001)                 0.000000000000000E+00
(PID.TID 0001.0001)     ;
(PID.TID 0001.0001) viscC4leith = /* Leith biharm viscosity factor (on grad(vort), non-dim.) */
(PID.TID 0001.0001)                 0.000000000000000E+00
(PID.TID 0001.0001)     ;
(PID.TID 0001.0001) viscC4leithD = /* Leith biharm viscosity factor (on grad(div), non-dim.) */
(PID.TID 0001.0001)                 0.000000000000000E+00
(PID.TID 0001.0001)     ;
(PID.TID 0001.0001) viscC4Smag = /* Smagorinsky biharm viscosity factor (non-dim) */
(PID.TID 0001.0001)                 0.000000000000000E+00
(PID.TID 0001.0001)     ;
(PID.TID 0001.0001) no_slip_sides =  /* Viscous BCs: No-slip sides */
(PID.TID 0001.0001)                   T
(PID.TID 0001.0001)     ;
(PID.TID 0001.0001) sideDragFactor = /* side-drag scaling factor (non-dim) */
(PID.TID 0001.0001)                 2.000000000000000E+00
(PID.TID 0001.0001)     ;
(PID.TID 0001.0001) viscAr =   /* Vertical eddy viscosity ( units of r^2/s ) */
(PID.TID 0001.0001)                 1.000000000000000E-03
(PID.TID 0001.0001)     ;
(PID.TID 0001.0001) no_slip_bottom =  /* Viscous BCs: No-slip bottom */
(PID.TID 0001.0001)                   T
(PID.TID 0001.0001)     ;
(PID.TID 0001.0001) bottomDragLinear = /* linear bottom-drag coefficient ( 1/s ) */
(PID.TID 0001.0001)                 0.000000000000000E+00
(PID.TID 0001.0001)     ;
(PID.TID 0001.0001) bottomDragQuadratic = /* quadratic bottom-drag coeff. ( 1/m ) */
(PID.TID 0001.0001)                 0.000000000000000E+00
(PID.TID 0001.0001)     ;
(PID.TID 0001.0001) diffKhT =   /* Laplacian diffusion of heat laterally ( m^2/s ) */
(PID.TID 0001.0001)                 0.000000000000000E+00
(PID.TID 0001.0001)     ;
(PID.TID 0001.0001) diffK4T =   /* Bihaarmonic diffusion of heat laterally ( m^4/s ) */
(PID.TID 0001.0001)                 0.000000000000000E+00
(PID.TID 0001.0001)     ;
(PID.TID 0001.0001) diffKhS =   /* Laplacian diffusion of salt laterally ( m^2/s ) */
(PID.TID 0001.0001)                 0.000000000000000E+00
(PID.TID 0001.0001)     ;
(PID.TID 0001.0001) diffK4S =   /* Bihaarmonic diffusion of salt laterally ( m^4/s ) */
(PID.TID 0001.0001)                 0.000000000000000E+00
(PID.TID 0001.0001)     ;
(PID.TID 0001.0001) diffKrNrT = /* vertical profile of vertical diffusion of Temp ( m^2/s )*/
(PID.TID 0001.0001)    15 @  3.000000000000000E-05              /* K =  1: 15 */
(PID.TID 0001.0001)     ;
(PID.TID 0001.0001) diffKrNrS = /* vertical profile of vertical diffusion of Salt ( m^2/s )*/
(PID.TID 0001.0001)    15 @  3.000000000000000E-05              /* K =  1: 15 */
(PID.TID 0001.0001)     ;
(PID.TID 0001.0001) diffKrBL79surf =   /* Surface diffusion for Bryan and Lewis 1979 ( m^2/s ) */
(PID.TID 0001.0001)                 0.000000000000000E+00
(PID.TID 0001.0001)     ;
(PID.TID 0001.0001) diffKrBL79deep =   /* Deep diffusion for Bryan and Lewis 1979 ( m^2/s ) */
(PID.TID 0001.0001)                 0.000000000000000E+00
(PID.TID 0001.0001)     ;
(PID.TID 0001.0001) diffKrBL79scl =   /* Depth scale for Bryan and Lewis 1979 ( m ) */
(PID.TID 0001.0001)                 2.000000000000000E+02
(PID.TID 0001.0001)     ;
(PID.TID 0001.0001) diffKrBL79Ho =   /* Turning depth for Bryan and Lewis 1979 ( m ) */
(PID.TID 0001.0001)                -2.000000000000000E+03
(PID.TID 0001.0001)     ;
(PID.TID 0001.0001) Equation of State : eosType = JMD95Z ;
(PID.TID 0001.0001) tAlpha =   /* Linear EOS thermal expansion coefficient ( 1/oC ) */
(PID.TID 0001.0001)                 1.234567000000000E+05
(PID.TID 0001.0001)     ;
(PID.TID 0001.0001) sBeta =   /* Linear EOS haline contraction coefficient ( 1/psu ) */
(PID.TID 0001.0001)                 1.234567000000000E+05
(PID.TID 0001.0001)     ;
(PID.TID 0001.0001) rhonil =   /* Reference density ( kg/m^3 ) */
(PID.TID 0001.0001)                 1.035000000000000E+03
(PID.TID 0001.0001)     ;
(PID.TID 0001.0001) rhoConst =   /* Reference density ( kg/m^3 ) */
(PID.TID 0001.0001)                 1.035000000000000E+03
(PID.TID 0001.0001)     ;
(PID.TID 0001.0001) rhoFacC = /* normalized Reference density @ cell-Center (-) */
(PID.TID 0001.0001)    15 @  1.000000000000000E+00              /* K =  1: 15 */
(PID.TID 0001.0001)     ;
(PID.TID 0001.0001) rhoFacF = /* normalized Reference density @ W-Interface (-) */
(PID.TID 0001.0001)    16 @  1.000000000000000E+00              /* K =  1: 16 */
(PID.TID 0001.0001)     ;
(PID.TID 0001.0001) rhoConstFresh =   /* Reference density ( kg/m^3 ) */
(PID.TID 0001.0001)                 1.000000000000000E+03
(PID.TID 0001.0001)     ;
(PID.TID 0001.0001) gravity =   /* Gravitational acceleration ( m/s^2 ) */
(PID.TID 0001.0001)                 9.810000000000000E+00
(PID.TID 0001.0001)     ;
(PID.TID 0001.0001) gBaro =   /* Barotropic gravity ( m/s^2 ) */
(PID.TID 0001.0001)                 9.810000000000000E+00
(PID.TID 0001.0001)     ;
(PID.TID 0001.0001) rotationPeriod =   /* Rotation Period ( s ) */
(PID.TID 0001.0001)                 8.640000000000000E+04
(PID.TID 0001.0001)     ;
(PID.TID 0001.0001) omega =   /* Angular velocity ( rad/s ) */
(PID.TID 0001.0001)                 7.272205216643040E-05
(PID.TID 0001.0001)     ;
(PID.TID 0001.0001) f0 =   /* Reference coriolis parameter ( 1/s ) */
(PID.TID 0001.0001)                 1.000000000000000E-04
(PID.TID 0001.0001)     ;
(PID.TID 0001.0001) beta =   /* Beta ( 1/(m.s) ) */
(PID.TID 0001.0001)                 9.999999999999999E-12
(PID.TID 0001.0001)     ;
(PID.TID 0001.0001) freeSurfFac =   /* Implicit free surface factor */
(PID.TID 0001.0001)                 1.000000000000000E+00
(PID.TID 0001.0001)     ;
(PID.TID 0001.0001) implicitFreeSurface =   /* Implicit free surface on/off flag */
(PID.TID 0001.0001)                   T
(PID.TID 0001.0001)     ;
(PID.TID 0001.0001) rigidLid =   /* Rigid lid on/off flag */
(PID.TID 0001.0001)                   F
(PID.TID 0001.0001)     ;
(PID.TID 0001.0001) implicSurfPress =   /* Surface Pressure implicit factor (0-1)*/
(PID.TID 0001.0001)                 1.000000000000000E+00
(PID.TID 0001.0001)     ;
(PID.TID 0001.0001) implicDiv2Dflow =   /* Barot. Flow Div. implicit factor (0-1)*/
(PID.TID 0001.0001)                 1.000000000000000E+00
(PID.TID 0001.0001)     ;
(PID.TID 0001.0001) exactConserv =   /* Exact Volume Conservation on/off flag*/
(PID.TID 0001.0001)                   T
(PID.TID 0001.0001)     ;
(PID.TID 0001.0001) linFSConserveTr =   /* Tracer correction for Lin Free Surface on/off flag*/
(PID.TID 0001.0001)                   F
(PID.TID 0001.0001)     ;
(PID.TID 0001.0001) uniformLin_PhiSurf =   /* use uniform Bo_surf on/off flag*/
(PID.TID 0001.0001)                   T
(PID.TID 0001.0001)     ;
(PID.TID 0001.0001) nonlinFreeSurf =   /* Non-linear Free Surf. options (-1,0,1,2,3)*/
(PID.TID 0001.0001)                       4
(PID.TID 0001.0001)     ;
(PID.TID 0001.0001)      -1,0= Off ; 1,2,3= On, 2=+rescale gU,gV, 3=+update cg2d solv.
(PID.TID 0001.0001) hFacInf =   /* lower threshold for hFac (nonlinFreeSurf only)*/
(PID.TID 0001.0001)                 2.000000000000000E-01
(PID.TID 0001.0001)     ;
(PID.TID 0001.0001) hFacSup =   /* upper threshold for hFac (nonlinFreeSurf only)*/
(PID.TID 0001.0001)                 2.000000000000000E+00
(PID.TID 0001.0001)     ;
(PID.TID 0001.0001) select_rStar =   /* r* Coordinate options (not yet implemented)*/
(PID.TID 0001.0001)                       2
(PID.TID 0001.0001)     ;
(PID.TID 0001.0001) useRealFreshWaterFlux =   /* Real Fresh Water Flux on/off flag*/
(PID.TID 0001.0001)                   T
(PID.TID 0001.0001)     ;
(PID.TID 0001.0001) temp_EvPrRn = /* Temp. of Evap/Prec/R (UNSET=use local T)(oC)*/
(PID.TID 0001.0001)                 1.234567000000000E+05
(PID.TID 0001.0001)     ;
(PID.TID 0001.0001) salt_EvPrRn = /* Salin. of Evap/Prec/R (UNSET=use local S)(ppt)*/
(PID.TID 0001.0001)                 0.000000000000000E+00
(PID.TID 0001.0001)     ;
(PID.TID 0001.0001) use3Dsolver = /* use 3-D pressure solver on/off flag */
(PID.TID 0001.0001)                   F
(PID.TID 0001.0001)     ;
(PID.TID 0001.0001) nonHydrostatic =  /* Non-Hydrostatic on/off flag */
(PID.TID 0001.0001)                   F
(PID.TID 0001.0001)     ;
(PID.TID 0001.0001) nh_Am2 = /* Non-Hydrostatic terms scaling factor */
(PID.TID 0001.0001)                 1.000000000000000E+00
(PID.TID 0001.0001)     ;
(PID.TID 0001.0001) quasiHydrostatic = /* Quasi-Hydrostatic on/off flag */
(PID.TID 0001.0001)                   F
(PID.TID 0001.0001)     ;
(PID.TID 0001.0001) momStepping =  /* Momentum equation on/off flag */
(PID.TID 0001.0001)                   T
(PID.TID 0001.0001)     ;
(PID.TID 0001.0001) vectorInvariantMomentum= /* Vector-Invariant Momentum on/off */
(PID.TID 0001.0001)                   T
(PID.TID 0001.0001)     ;
(PID.TID 0001.0001) momAdvection =  /* Momentum advection on/off flag */
(PID.TID 0001.0001)                   T
(PID.TID 0001.0001)     ;
(PID.TID 0001.0001) momViscosity =  /* Momentum viscosity on/off flag */
(PID.TID 0001.0001)                   T
(PID.TID 0001.0001)     ;
(PID.TID 0001.0001) momImplVertAdv =/* Momentum implicit vert. advection on/off*/
(PID.TID 0001.0001)                   F
(PID.TID 0001.0001)     ;
(PID.TID 0001.0001) implicitViscosity = /* Implicit viscosity on/off flag */
(PID.TID 0001.0001)                   F
(PID.TID 0001.0001)     ;
(PID.TID 0001.0001) metricTerms =  /* metric-Terms on/off flag */
(PID.TID 0001.0001)                   F
(PID.TID 0001.0001)     ;
(PID.TID 0001.0001) useNHMTerms = /* Non-Hydrostatic Metric-Terms on/off */
(PID.TID 0001.0001)                   F
(PID.TID 0001.0001)     ;
(PID.TID 0001.0001) useConstantF =  /* use Constant f0 Coriolis flag */
(PID.TID 0001.0001)                   F
(PID.TID 0001.0001)     ;
(PID.TID 0001.0001) useBetaPlaneF = /* use Beta-Plane Coriolis flag */
(PID.TID 0001.0001)                   F
(PID.TID 0001.0001)     ;
(PID.TID 0001.0001) useSphereF  =   /* use Spherical Coriolis flag */
(PID.TID 0001.0001)                   T
(PID.TID 0001.0001)     ;
(PID.TID 0001.0001) use3dCoriolis = /* 3-D Coriolis on/off flag */
(PID.TID 0001.0001)                   F
(PID.TID 0001.0001)     ;
(PID.TID 0001.0001) useCoriolis =  /* Coriolis on/off flag */
(PID.TID 0001.0001)                   T
(PID.TID 0001.0001)     ;
(PID.TID 0001.0001) useCDscheme =  /* CD scheme on/off flag */
(PID.TID 0001.0001)                   F
(PID.TID 0001.0001)     ;
(PID.TID 0001.0001) useJamartWetPoints= /* Coriolis WetPoints method flag */
(PID.TID 0001.0001)                   F
(PID.TID 0001.0001)     ;
(PID.TID 0001.0001) useJamartMomAdv= /* V.I. Non-linear terms Jamart flag */
(PID.TID 0001.0001)                   F
(PID.TID 0001.0001)     ;
(PID.TID 0001.0001) SadournyCoriolis= /* Sadourny Coriolis discr. flag */
(PID.TID 0001.0001)                   F
(PID.TID 0001.0001)     ;
(PID.TID 0001.0001) upwindVorticity= /* Upwind bias vorticity flag */
(PID.TID 0001.0001)                   F
(PID.TID 0001.0001)     ;
(PID.TID 0001.0001) useAbsVorticity= /* Work with f+zeta in Coriolis */
(PID.TID 0001.0001)                   F
(PID.TID 0001.0001)     ;
(PID.TID 0001.0001) highOrderVorticity= /* High order interp. of vort. flag */
(PID.TID 0001.0001)                   F
(PID.TID 0001.0001)     ;
(PID.TID 0001.0001) upwindShear= /* Upwind vertical Shear advection flag */
(PID.TID 0001.0001)                   F
(PID.TID 0001.0001)     ;
(PID.TID 0001.0001) selectKEscheme= /* Kinetic Energy scheme selector */
(PID.TID 0001.0001)                       0
(PID.TID 0001.0001)     ;
(PID.TID 0001.0001) momForcing =  /* Momentum forcing on/off flag */
(PID.TID 0001.0001)                   T
(PID.TID 0001.0001)     ;
(PID.TID 0001.0001) momPressureForcing =  /* Momentum pressure term on/off flag */
(PID.TID 0001.0001)                   T
(PID.TID 0001.0001)     ;
(PID.TID 0001.0001) implicitIntGravWave= /* Implicit Internal Gravity Wave flag */
(PID.TID 0001.0001)                   F
(PID.TID 0001.0001)     ;
(PID.TID 0001.0001) staggerTimeStep =   /* Stagger time stepping on/off flag */
(PID.TID 0001.0001)                   T
(PID.TID 0001.0001)     ;
(PID.TID 0001.0001) multiDimAdvection =   /* enable/disable Multi-Dim Advection */
(PID.TID 0001.0001)                   T
(PID.TID 0001.0001)     ;
(PID.TID 0001.0001) useMultiDimAdvec =   /* Multi-Dim Advection is/is-not used */
(PID.TID 0001.0001)                   F
(PID.TID 0001.0001)     ;
(PID.TID 0001.0001) implicitDiffusion =/* Implicit Diffusion on/off flag */
(PID.TID 0001.0001)                   T
(PID.TID 0001.0001)     ;
(PID.TID 0001.0001) tempStepping =  /* Temperature equation on/off flag */
(PID.TID 0001.0001)                   T
(PID.TID 0001.0001)     ;
(PID.TID 0001.0001) tempAdvection=  /* Temperature advection on/off flag */
(PID.TID 0001.0001)                   T
(PID.TID 0001.0001)     ;
(PID.TID 0001.0001) tempImplVertAdv =/* Temp. implicit vert. advection on/off */
(PID.TID 0001.0001)                   F
(PID.TID 0001.0001)     ;
(PID.TID 0001.0001) tempForcing  =  /* Temperature forcing on/off flag */
(PID.TID 0001.0001)                   T
(PID.TID 0001.0001)     ;
(PID.TID 0001.0001) saltStepping =  /* Salinity equation on/off flag */
(PID.TID 0001.0001)                   T
(PID.TID 0001.0001)     ;
(PID.TID 0001.0001) saltAdvection=  /* Salinity advection on/off flag */
(PID.TID 0001.0001)                   T
(PID.TID 0001.0001)     ;
(PID.TID 0001.0001) saltImplVertAdv =/* Sali. implicit vert. advection on/off */
(PID.TID 0001.0001)                   F
(PID.TID 0001.0001)     ;
(PID.TID 0001.0001) saltForcing  =  /* Salinity forcing on/off flag */
(PID.TID 0001.0001)                   T
(PID.TID 0001.0001)     ;
(PID.TID 0001.0001)  readBinaryPrec = /* Precision used for reading binary files */
(PID.TID 0001.0001)                      64
(PID.TID 0001.0001)     ;
(PID.TID 0001.0001) writeBinaryPrec = /* Precision used for writing binary files */
(PID.TID 0001.0001)                      32
(PID.TID 0001.0001)     ;
(PID.TID 0001.0001)  globalFiles = /* write "global" (=not per tile) files */
(PID.TID 0001.0001)                   F
(PID.TID 0001.0001)     ;
(PID.TID 0001.0001)  useSingleCpuIO = /* only master MPI process does I/O */
(PID.TID 0001.0001)                   F
(PID.TID 0001.0001)     ;
(PID.TID 0001.0001)  debugMode  =  /* Debug Mode on/off flag */
(PID.TID 0001.0001)                   F
(PID.TID 0001.0001)     ;
(PID.TID 0001.0001)    debLevA  =  /* 1rst level of debugging */
(PID.TID 0001.0001)                       1
(PID.TID 0001.0001)     ;
(PID.TID 0001.0001)    debLevB  =  /* 2nd  level of debugging */
(PID.TID 0001.0001)                       2
(PID.TID 0001.0001)     ;
(PID.TID 0001.0001)  debugLevel =  /* select debugging level */
(PID.TID 0001.0001)                       1
(PID.TID 0001.0001)     ;
(PID.TID 0001.0001) //
(PID.TID 0001.0001) // Elliptic solver(s) paramters ( PARM02 in namelist )
(PID.TID 0001.0001) //
(PID.TID 0001.0001) cg2dMaxIters =   /* Upper limit on 2d con. grad iterations  */
(PID.TID 0001.0001)                     200
(PID.TID 0001.0001)     ;
(PID.TID 0001.0001) cg2dChkResFreq =   /* 2d con. grad convergence test frequency */
(PID.TID 0001.0001)                       1
(PID.TID 0001.0001)     ;
(PID.TID 0001.0001) cg2dTargetResidual =   /* 2d con. grad target residual  */
(PID.TID 0001.0001)                 1.000000000000000E-07
(PID.TID 0001.0001)     ;
(PID.TID 0001.0001) cg2dTargetResWunit =   /* CG2d target residual [W units] */
(PID.TID 0001.0001)                 1.000000000000000E-14
(PID.TID 0001.0001)     ;
(PID.TID 0001.0001) cg2dPreCondFreq =   /* Freq. for updating cg2d preconditioner */
(PID.TID 0001.0001)                       1
(PID.TID 0001.0001)     ;
(PID.TID 0001.0001) //
(PID.TID 0001.0001) // Time stepping paramters ( PARM03 in namelist )
(PID.TID 0001.0001) //
(PID.TID 0001.0001) nIter0 =   /* Run starting timestep number  */
(PID.TID 0001.0001)                   72000
(PID.TID 0001.0001)     ;
(PID.TID 0001.0001) nTimeSteps =   /* Number of timesteps */
(PID.TID 0001.0001)                      20
(PID.TID 0001.0001)     ;
(PID.TID 0001.0001) deltaTmom =   /* Momentum equation timestep ( s ) */
(PID.TID 0001.0001)                 1.200000000000000E+03
(PID.TID 0001.0001)     ;
(PID.TID 0001.0001) deltaTfreesurf =   /* FreeSurface equation timestep ( s ) */
(PID.TID 0001.0001)                 8.640000000000000E+04
(PID.TID 0001.0001)     ;
(PID.TID 0001.0001) dTtracerLev =   /* Tracer equation timestep ( s ) */
(PID.TID 0001.0001)    15 @  8.640000000000000E+04              /* K =  1: 15 */
(PID.TID 0001.0001)     ;
(PID.TID 0001.0001) deltaTClock  =   /* Model clock timestep ( s ) */
(PID.TID 0001.0001)                 8.640000000000000E+04
(PID.TID 0001.0001)     ;
(PID.TID 0001.0001) cAdjFreq =   /* Convective adjustment interval ( s ) */
(PID.TID 0001.0001)                 0.000000000000000E+00
(PID.TID 0001.0001)     ;
(PID.TID 0001.0001) momForcingOutAB = /* =1: take Momentum Forcing out of Adams-Bash. stepping */
(PID.TID 0001.0001)                       0
(PID.TID 0001.0001)     ;
(PID.TID 0001.0001) tracForcingOutAB = /* =1: take T,S,pTr Forcing out of Adams-Bash. stepping */
(PID.TID 0001.0001)                       1
(PID.TID 0001.0001)     ;
(PID.TID 0001.0001) momDissip_In_AB = /* put Dissipation Tendency in Adams-Bash. stepping */
(PID.TID 0001.0001)                   T
(PID.TID 0001.0001)     ;
(PID.TID 0001.0001) doAB_onGtGs = /* apply AB on Tendencies (rather than on T,S)*/
(PID.TID 0001.0001)                   T
(PID.TID 0001.0001)     ;
(PID.TID 0001.0001) abEps =   /* Adams-Bashforth-2 stabilizing weight */
(PID.TID 0001.0001)                 1.000000000000000E-01
(PID.TID 0001.0001)     ;
(PID.TID 0001.0001) baseTime =   /* Model base time ( s ). */
(PID.TID 0001.0001)                 0.000000000000000E+00
(PID.TID 0001.0001)     ;
(PID.TID 0001.0001) startTime =   /* Run start time ( s ). */
(PID.TID 0001.0001)                 6.220800000000000E+09
(PID.TID 0001.0001)     ;
(PID.TID 0001.0001) endTime =   /* Integration ending time ( s ). */
(PID.TID 0001.0001)                 6.222528000000000E+09
(PID.TID 0001.0001)     ;
(PID.TID 0001.0001) pChkPtFreq =   /* Permanent restart/checkpoint file interval ( s ). */
(PID.TID 0001.0001)                 1.728000000000000E+06
(PID.TID 0001.0001)     ;
(PID.TID 0001.0001) chkPtFreq =   /* Rolling restart/checkpoint file interval ( s ). */
(PID.TID 0001.0001)                 0.000000000000000E+00
(PID.TID 0001.0001)     ;
(PID.TID 0001.0001) pickup_write_mdsio =   /* Model IO flag. */
(PID.TID 0001.0001)                   T
(PID.TID 0001.0001)     ;
(PID.TID 0001.0001) pickup_read_mdsio =   /* Model IO flag. */
(PID.TID 0001.0001)                   T
(PID.TID 0001.0001)     ;
(PID.TID 0001.0001) pickup_write_immed =   /* Model IO flag. */
(PID.TID 0001.0001)                   F
(PID.TID 0001.0001)     ;
(PID.TID 0001.0001) dumpFreq =   /* Model state write out interval ( s ). */
(PID.TID 0001.0001)                 6.220800000000000E+08
(PID.TID 0001.0001)     ;
(PID.TID 0001.0001) dumpInitAndLast= /* write out Initial & Last iter. model state */
(PID.TID 0001.0001)                   T
(PID.TID 0001.0001)     ;
(PID.TID 0001.0001) snapshot_mdsio =   /* Model IO flag. */
(PID.TID 0001.0001)                   T
(PID.TID 0001.0001)     ;
(PID.TID 0001.0001) monitorFreq =   /* Monitor output interval ( s ). */
(PID.TID 0001.0001)                 1.000000000000000E+00
(PID.TID 0001.0001)     ;
(PID.TID 0001.0001) monitor_stdio =   /* Model IO flag. */
(PID.TID 0001.0001)                   T
(PID.TID 0001.0001)     ;
(PID.TID 0001.0001) externForcingPeriod =   /* forcing period (s) */
(PID.TID 0001.0001)                 2.592000000000000E+06
(PID.TID 0001.0001)     ;
(PID.TID 0001.0001) externForcingCycle =   /* period of the cyle (s). */
(PID.TID 0001.0001)                 3.110400000000000E+07
(PID.TID 0001.0001)     ;
(PID.TID 0001.0001) tauThetaClimRelax =   /* relaxation time scale (s) */
(PID.TID 0001.0001)                 5.184000000000000E+06
(PID.TID 0001.0001)     ;
(PID.TID 0001.0001) tauSaltClimRelax =   /* relaxation time scale (s) */
(PID.TID 0001.0001)                 6.220800000000000E+07
(PID.TID 0001.0001)     ;
(PID.TID 0001.0001) latBandClimRelax =   /* max. Lat. where relaxation */
(PID.TID 0001.0001)                 1.800000000000000E+02
(PID.TID 0001.0001)     ;
(PID.TID 0001.0001) //
(PID.TID 0001.0001) // Gridding paramters ( PARM04 in namelist )
(PID.TID 0001.0001) //
(PID.TID 0001.0001) usingCartesianGrid = /* Cartesian coordinates flag ( True/False ) */
(PID.TID 0001.0001)                   F
(PID.TID 0001.0001)     ;
(PID.TID 0001.0001) usingCylindricalGrid = /* Cylindrical coordinates flag ( True/False ) */
(PID.TID 0001.0001)                   F
(PID.TID 0001.0001)     ;
(PID.TID 0001.0001) usingSphericalPolarGrid = /* Spherical coordinates flag ( True/False ) */
(PID.TID 0001.0001)                   F
(PID.TID 0001.0001)     ;
(PID.TID 0001.0001) usingCurvilinearGrid = /* Curvilinear coordinates flag ( True/False ) */
(PID.TID 0001.0001)                   T
(PID.TID 0001.0001)     ;
(PID.TID 0001.0001) Ro_SeaLevel = /* r(1) ( units of r ) */
(PID.TID 0001.0001)                 0.000000000000000E+00
(PID.TID 0001.0001)     ;
(PID.TID 0001.0001) rkSign =   /* index orientation relative to vertical coordinate */
(PID.TID 0001.0001)                -1.000000000000000E+00
(PID.TID 0001.0001)     ;
(PID.TID 0001.0001) gravitySign = /* gravity orientation relative to vertical coordinate */
(PID.TID 0001.0001)                -1.000000000000000E+00
(PID.TID 0001.0001)     ;
(PID.TID 0001.0001) horiVertRatio =   /* Ratio on units : Horiz - Vertical */
(PID.TID 0001.0001)                 1.000000000000000E+00
(PID.TID 0001.0001)     ;
(PID.TID 0001.0001) drC =   /* C spacing ( units of r ) */
(PID.TID 0001.0001)                 2.500000000000000E+01,      /* K =  1 */
(PID.TID 0001.0001)                 6.000000000000000E+01,      /* K =  2 */
(PID.TID 0001.0001)                 8.500000000000000E+01,      /* K =  3 */
(PID.TID 0001.0001)                 1.200000000000000E+02,      /* K =  4 */
(PID.TID 0001.0001)                 1.650000000000000E+02,      /* K =  5 */
(PID.TID 0001.0001)                 2.150000000000000E+02,      /* K =  6 */
(PID.TID 0001.0001)                 2.650000000000000E+02,      /* K =  7 */
(PID.TID 0001.0001)                 3.150000000000000E+02,      /* K =  8 */
(PID.TID 0001.0001)                 3.650000000000000E+02,      /* K =  9 */
(PID.TID 0001.0001)                 4.150000000000000E+02,      /* K = 10 */
(PID.TID 0001.0001)                 4.650000000000000E+02,      /* K = 11 */
(PID.TID 0001.0001)                 5.150000000000000E+02,      /* K = 12 */
(PID.TID 0001.0001)                 5.650000000000000E+02,      /* K = 13 */
(PID.TID 0001.0001)                 6.150000000000000E+02,      /* K = 14 */
(PID.TID 0001.0001)                 6.650000000000000E+02       /* K = 15 */
(PID.TID 0001.0001)     ;
(PID.TID 0001.0001) drF =   /* W spacing ( units of r ) */
(PID.TID 0001.0001)                 5.000000000000000E+01,      /* K =  1 */
(PID.TID 0001.0001)                 7.000000000000000E+01,      /* K =  2 */
(PID.TID 0001.0001)                 1.000000000000000E+02,      /* K =  3 */
(PID.TID 0001.0001)                 1.400000000000000E+02,      /* K =  4 */
(PID.TID 0001.0001)                 1.900000000000000E+02,      /* K =  5 */
(PID.TID 0001.0001)                 2.400000000000000E+02,      /* K =  6 */
(PID.TID 0001.0001)                 2.900000000000000E+02,      /* K =  7 */
(PID.TID 0001.0001)                 3.400000000000000E+02,      /* K =  8 */
(PID.TID 0001.0001)                 3.900000000000000E+02,      /* K =  9 */
(PID.TID 0001.0001)                 4.400000000000000E+02,      /* K = 10 */
(PID.TID 0001.0001)                 4.900000000000000E+02,      /* K = 11 */
(PID.TID 0001.0001)                 5.400000000000000E+02,      /* K = 12 */
(PID.TID 0001.0001)                 5.900000000000000E+02,      /* K = 13 */
(PID.TID 0001.0001)                 6.400000000000000E+02,      /* K = 14 */
(PID.TID 0001.0001)                 6.900000000000000E+02       /* K = 15 */
(PID.TID 0001.0001)     ;
(PID.TID 0001.0001) delX =   /* U spacing ( m - cartesian, degrees - spherical ) */
(PID.TID 0001.0001)   192 @  1.234567000000000E+05              /* I =  1:192 */
(PID.TID 0001.0001)     ;
(PID.TID 0001.0001) delY =   /* V spacing ( m - cartesian, degrees - spherical ) */
(PID.TID 0001.0001)    32 @  1.234567000000000E+05              /* J =  1: 32 */
(PID.TID 0001.0001)     ;
(PID.TID 0001.0001) phiMin =    /* South edge (ignored - cartesian, degrees - spherical ) */
(PID.TID 0001.0001)                 0.000000000000000E+00
(PID.TID 0001.0001)     ;
(PID.TID 0001.0001) thetaMin =    /* West edge ( ignored - cartesian, degrees - spherical ) */
(PID.TID 0001.0001)                 0.000000000000000E+00
(PID.TID 0001.0001)     ;
(PID.TID 0001.0001) rSphere =  /* Radius ( ignored - cartesian, m - spherical ) */
(PID.TID 0001.0001)                 6.370000000000000E+06
(PID.TID 0001.0001)     ;
(PID.TID 0001.0001) deepAtmosphere = /* Deep/Shallow Atmosphere flag (True/False) */
(PID.TID 0001.0001)                   F
(PID.TID 0001.0001)     ;
(PID.TID 0001.0001) xcoord =   /* P-point X coord ( m - cartesian, degrees - spherical ) */
(PID.TID 0001.0001)                 4.560478005239464E+01,      /* I =  1 */
(PID.TID 0001.0001)                 4.704358727724117E+01,      /* I =  2 */
(PID.TID 0001.0001)                 4.877944446611043E+01,      /* I =  3 */
(PID.TID 0001.0001)                 5.076553711512697E+01,      /* I =  4 */
(PID.TID 0001.0001)                 5.297414841317801E+01,      /* I =  5 */
(PID.TID 0001.0001)                 5.538820632905850E+01,      /* I =  6 */
(PID.TID 0001.0001)                 5.799565430958209E+01,      /* I =  7 */
(PID.TID 0001.0001)                 6.078644034367325E+01,      /* I =  8 */
(PID.TID 0001.0001)                 6.375067776971711E+01,      /* I =  9 */
(PID.TID 0001.0001)                 6.687738749573657E+01,      /* I = 10 */
(PID.TID 0001.0001)                 7.015359282872943E+01,      /* I = 11 */
(PID.TID 0001.0001)                 7.356369199444866E+01,      /* I = 12 */
(PID.TID 0001.0001)                 7.708910193697932E+01,      /* I = 13 */
(PID.TID 0001.0001)                 8.070819219728060E+01,      /* I = 14 */
(PID.TID 0001.0001)                 8.439652466417766E+01,      /* I = 15 */
(PID.TID 0001.0001)                 8.812739148696656E+01,      /* I = 16 */
(PID.TID 0001.0001)                 9.187260851303344E+01,      /* I = 17 */
(PID.TID 0001.0001)                 9.560347533582234E+01,      /* I = 18 */
(PID.TID 0001.0001)                 9.929180780271940E+01,      /* I = 19 */
(PID.TID 0001.0001)                 1.029108980630207E+02,      /* I = 20 */
(PID.TID 0001.0001)                 1.064363080055513E+02,      /* I = 21 */
(PID.TID 0001.0001)                 1.098464071712706E+02,      /* I = 22 */
(PID.TID 0001.0001)                 1.131226125042634E+02,      /* I = 23 */
(PID.TID 0001.0001)                 1.162493222302829E+02,      /* I = 24 */
(PID.TID 0001.0001)                 1.192135596563268E+02,      /* I = 25 */
(PID.TID 0001.0001)                 1.220043456904179E+02,      /* I = 26 */
(PID.TID 0001.0001)                 1.246117936709415E+02,      /* I = 27 */
(PID.TID 0001.0001)                 1.270258515868220E+02,      /* I = 28 */
(PID.TID 0001.0001)                 1.292344628848730E+02,      /* I = 29 */
(PID.TID 0001.0001)                 1.312205555338896E+02,      /* I = 30 */
(PID.TID 0001.0001)                 1.329564127227588E+02,      /* I = 31 */
(PID.TID 0001.0001)                 1.343952199476053E+02       /* I = 32 */
(PID.TID 0001.0001)     ;
(PID.TID 0001.0001) ycoord =   /* P-point Y coord ( m - cartesian, degrees - spherical ) */
(PID.TID 0001.0001)                -3.497677942598243E+01,      /* J =  1 */
(PID.TID 0001.0001)                -3.374005967394886E+01,      /* J =  2 */
(PID.TID 0001.0001)                -3.220655175667454E+01,      /* J =  3 */
(PID.TID 0001.0001)                -3.045756348838641E+01,      /* J =  4 */
(PID.TID 0001.0001)                -2.853728129852918E+01,      /* J =  5 */
(PID.TID 0001.0001)                -2.647426640173173E+01,      /* J =  6 */
(PID.TID 0001.0001)                -2.428936657094636E+01,      /* J =  7 */
(PID.TID 0001.0001)                -2.199915808312262E+01,      /* J =  8 */
(PID.TID 0001.0001)                -1.961768597440146E+01,      /* J =  9 */
(PID.TID 0001.0001)                -1.715743888281371E+01,      /* J = 10 */
(PID.TID 0001.0001)                -1.462993396899330E+01,      /* J = 11 */
(PID.TID 0001.0001)                -1.204608340464756E+01,      /* J = 12 */
(PID.TID 0001.0001)                -9.416429130284818E+00,      /* J = 13 */
(PID.TID 0001.0001)                -6.751293662992216E+00,      /* J = 14 */
(PID.TID 0001.0001)                -4.060875511835959E+00,      /* J = 15 */
(PID.TID 0001.0001)                -1.355307764409121E+00,      /* J = 16 */
(PID.TID 0001.0001)                 1.355307764409121E+00,      /* J = 17 */
(PID.TID 0001.0001)                 4.060875511835959E+00,      /* J = 18 */
(PID.TID 0001.0001)                 6.751293662992216E+00,      /* J = 19 */
(PID.TID 0001.0001)                 9.416429130284818E+00,      /* J = 20 */
(PID.TID 0001.0001)                 1.204608340464756E+01,      /* J = 21 */
(PID.TID 0001.0001)                 1.462993396899330E+01,      /* J = 22 */
(PID.TID 0001.0001)                 1.715743888281371E+01,      /* J = 23 */
(PID.TID 0001.0001)                 1.961768597440146E+01,      /* J = 24 */
(PID.TID 0001.0001)                 2.199915808312262E+01,      /* J = 25 */
(PID.TID 0001.0001)                 2.428936657094636E+01,      /* J = 26 */
(PID.TID 0001.0001)                 2.647426640173173E+01,      /* J = 27 */
(PID.TID 0001.0001)                 2.853728129852918E+01,      /* J = 28 */
(PID.TID 0001.0001)                 3.045756348838641E+01,      /* J = 29 */
(PID.TID 0001.0001)                 3.220655175667454E+01,      /* J = 30 */
(PID.TID 0001.0001)                 3.374005967394886E+01,      /* J = 31 */
(PID.TID 0001.0001)                 3.497677942598243E+01       /* J = 32 */
(PID.TID 0001.0001)     ;
(PID.TID 0001.0001) rcoord =   /* P-point R coordinate (  units of r ) */
(PID.TID 0001.0001)                -2.500000000000000E+01,      /* K =  1 */
(PID.TID 0001.0001)                -8.500000000000000E+01,      /* K =  2 */
(PID.TID 0001.0001)                -1.700000000000000E+02,      /* K =  3 */
(PID.TID 0001.0001)                -2.900000000000000E+02,      /* K =  4 */
(PID.TID 0001.0001)                -4.550000000000000E+02,      /* K =  5 */
(PID.TID 0001.0001)                -6.700000000000000E+02,      /* K =  6 */
(PID.TID 0001.0001)                -9.350000000000000E+02,      /* K =  7 */
(PID.TID 0001.0001)                -1.250000000000000E+03,      /* K =  8 */
(PID.TID 0001.0001)                -1.615000000000000E+03,      /* K =  9 */
(PID.TID 0001.0001)                -2.030000000000000E+03,      /* K = 10 */
(PID.TID 0001.0001)                -2.495000000000000E+03,      /* K = 11 */
(PID.TID 0001.0001)                -3.010000000000000E+03,      /* K = 12 */
(PID.TID 0001.0001)                -3.575000000000000E+03,      /* K = 13 */
(PID.TID 0001.0001)                -4.190000000000000E+03,      /* K = 14 */
(PID.TID 0001.0001)                -4.855000000000000E+03       /* K = 15 */
(PID.TID 0001.0001)     ;
(PID.TID 0001.0001) rF =   /* W-Interf. R coordinate (  units of r ) */
(PID.TID 0001.0001)                 0.000000000000000E+00,      /* K =  1 */
(PID.TID 0001.0001)                -5.000000000000000E+01,      /* K =  2 */
(PID.TID 0001.0001)                -1.200000000000000E+02,      /* K =  3 */
(PID.TID 0001.0001)                -2.200000000000000E+02,      /* K =  4 */
(PID.TID 0001.0001)                -3.600000000000000E+02,      /* K =  5 */
(PID.TID 0001.0001)                -5.500000000000000E+02,      /* K =  6 */
(PID.TID 0001.0001)                -7.900000000000000E+02,      /* K =  7 */
(PID.TID 0001.0001)                -1.080000000000000E+03,      /* K =  8 */
(PID.TID 0001.0001)                -1.420000000000000E+03,      /* K =  9 */
(PID.TID 0001.0001)                -1.810000000000000E+03,      /* K = 10 */
(PID.TID 0001.0001)                -2.250000000000000E+03,      /* K = 11 */
(PID.TID 0001.0001)                -2.740000000000000E+03,      /* K = 12 */
(PID.TID 0001.0001)                -3.280000000000000E+03,      /* K = 13 */
(PID.TID 0001.0001)                -3.870000000000000E+03,      /* K = 14 */
(PID.TID 0001.0001)                -4.510000000000000E+03,      /* K = 15 */
(PID.TID 0001.0001)                -5.200000000000000E+03       /* K = 16 */
(PID.TID 0001.0001)     ;
(PID.TID 0001.0001) deepFacC = /* deep-model grid factor @ cell-Center (-) */
(PID.TID 0001.0001)    15 @  1.000000000000000E+00              /* K =  1: 15 */
(PID.TID 0001.0001)     ;
(PID.TID 0001.0001) deepFacF = /* deep-model grid factor @ W-Interface (-) */
(PID.TID 0001.0001)    16 @  1.000000000000000E+00              /* K =  1: 16 */
(PID.TID 0001.0001)     ;
(PID.TID 0001.0001) dBdrRef = /* Vertical gradient of reference boyancy [(m/s/r)^2)] */
(PID.TID 0001.0001)    15 @  0.000000000000000E+00              /* K =  1: 15 */
(PID.TID 0001.0001)     ;
(PID.TID 0001.0001) dxF =  /* dxF(:,1,:,1) ( units: m ) */
(PID.TID 0001.0001)                 1.202082051331828E+05,      /* I =  1 */
(PID.TID 0001.0001)                 1.563594089971120E+05,      /* I =  2 */
(PID.TID 0001.0001)                 1.835530058121492E+05,      /* I =  3 */
(PID.TID 0001.0001)                 2.045883481718707E+05,      /* I =  4 */
(PID.TID 0001.0001)                 2.218350349844185E+05,      /* I =  5 */
(PID.TID 0001.0001)                 2.364352994647058E+05,      /* I =  6 */
(PID.TID 0001.0001)                 2.490022710862746E+05,      /* I =  7 */
(PID.TID 0001.0001)                 2.598919724358304E+05,      /* I =  8 */
(PID.TID 0001.0001)                 2.693210245495156E+05,      /* I =  9 */
(PID.TID 0001.0001)                 2.774243179696503E+05,      /* I = 10 */
(PID.TID 0001.0001)                 2.842862532064524E+05,      /* I = 11 */
(PID.TID 0001.0001)                 2.899590699694043E+05,      /* I = 12 */
(PID.TID 0001.0001)                 2.944742915095688E+05,      /* I = 13 */
(PID.TID 0001.0001)                 2.978501920522794E+05,      /* I = 14 */
(PID.TID 0001.0001)                 3.000967749619962E+05,      /* I = 15 */
(PID.TID 0001.0001)     2 @  3.012190981969055E+05,             /* I = 16: 17 */
(PID.TID 0001.0001)                 3.000967749619962E+05,      /* I = 18 */
(PID.TID 0001.0001)                 2.978501920522794E+05,      /* I = 19 */
(PID.TID 0001.0001)                 2.944742915095688E+05,      /* I = 20 */
(PID.TID 0001.0001)                 2.899590699694043E+05,      /* I = 21 */
(PID.TID 0001.0001)                 2.842862532064524E+05,      /* I = 22 */
(PID.TID 0001.0001)                 2.774243179696503E+05,      /* I = 23 */
(PID.TID 0001.0001)                 2.693210245495156E+05,      /* I = 24 */
(PID.TID 0001.0001)                 2.598919724358304E+05,      /* I = 25 */
(PID.TID 0001.0001)                 2.490022710862746E+05,      /* I = 26 */
(PID.TID 0001.0001)                 2.364352994647058E+05,      /* I = 27 */
(PID.TID 0001.0001)                 2.218350349844185E+05,      /* I = 28 */
(PID.TID 0001.0001)                 2.045883481718707E+05,      /* I = 29 */
(PID.TID 0001.0001)                 1.835530058121492E+05,      /* I = 30 */
(PID.TID 0001.0001)                 1.563594089971120E+05,      /* I = 31 */
(PID.TID 0001.0001)                 1.202082051331828E+05       /* I = 32 */
(PID.TID 0001.0001)     ;
(PID.TID 0001.0001) dxF =  /* dxF(1,:,1,:) ( units: m ) */
(PID.TID 0001.0001)                 1.202082051331828E+05,      /* J =  1 */
(PID.TID 0001.0001)                 1.572908084538706E+05,      /* J =  2 */
(PID.TID 0001.0001)                 1.840412227747703E+05,      /* J =  3 */
(PID.TID 0001.0001)                 2.048868197919576E+05,      /* J =  4 */
(PID.TID 0001.0001)                 2.220405216043041E+05,      /* J =  5 */
(PID.TID 0001.0001)                 2.365892017348392E+05,      /* J =  6 */
(PID.TID 0001.0001)                 2.491250781852558E+05,      /* J =  7 */
(PID.TID 0001.0001)                 2.599949918261881E+05,      /* J =  8 */
(PID.TID 0001.0001)                 2.694110134598581E+05,      /* J =  9 */
(PID.TID 0001.0001)                 2.775055554645015E+05,      /* J = 10 */
(PID.TID 0001.0001)                 2.843615645344775E+05,      /* J = 11 */
(PID.TID 0001.0001)                 2.900303768613599E+05,      /* J = 12 */
(PID.TID 0001.0001)                 2.945429307892709E+05,      /* J = 13 */
(PID.TID 0001.0001)                 2.979171143158405E+05,      /* J = 14 */
(PID.TID 0001.0001)                 3.001626787528886E+05,      /* J = 15 */
(PID.TID 0001.0001)     2 @  3.012844832048790E+05,             /* J = 16: 17 */
(PID.TID 0001.0001)                 3.001626787528886E+05,      /* J = 18 */
(PID.TID 0001.0001)                 2.979171143158405E+05,      /* J = 19 */
(PID.TID 0001.0001)                 2.945429307892709E+05,      /* J = 20 */
(PID.TID 0001.0001)                 2.900303768613599E+05,      /* J = 21 */
(PID.TID 0001.0001)                 2.843615645344775E+05,      /* J = 22 */
(PID.TID 0001.0001)                 2.775055554645015E+05,      /* J = 23 */
(PID.TID 0001.0001)                 2.694110134598581E+05,      /* J = 24 */
(PID.TID 0001.0001)                 2.599949918261881E+05,      /* J = 25 */
(PID.TID 0001.0001)                 2.491250781852558E+05,      /* J = 26 */
(PID.TID 0001.0001)                 2.365892017348392E+05,      /* J = 27 */
(PID.TID 0001.0001)                 2.220405216043041E+05,      /* J = 28 */
(PID.TID 0001.0001)                 2.048868197919576E+05,      /* J = 29 */
(PID.TID 0001.0001)                 1.840412227747703E+05,      /* J = 30 */
(PID.TID 0001.0001)                 1.572908084538706E+05,      /* J = 31 */
(PID.TID 0001.0001)                 1.202082051331828E+05       /* J = 32 */
(PID.TID 0001.0001)     ;
(PID.TID 0001.0001) dyF =  /* dyF(:,1,:,1) ( units: m ) */
(PID.TID 0001.0001)                 1.202082051331828E+05,      /* I =  1 */
(PID.TID 0001.0001)                 1.572908084538706E+05,      /* I =  2 */
(PID.TID 0001.0001)                 1.840412227747703E+05,      /* I =  3 */
(PID.TID 0001.0001)                 2.048868197919576E+05,      /* I =  4 */
(PID.TID 0001.0001)                 2.220405216043041E+05,      /* I =  5 */
(PID.TID 0001.0001)                 2.365892017348392E+05,      /* I =  6 */
(PID.TID 0001.0001)                 2.491250781852558E+05,      /* I =  7 */
(PID.TID 0001.0001)                 2.599949918261881E+05,      /* I =  8 */
(PID.TID 0001.0001)                 2.694110134598581E+05,      /* I =  9 */
(PID.TID 0001.0001)                 2.775055554645015E+05,      /* I = 10 */
(PID.TID 0001.0001)                 2.843615645344775E+05,      /* I = 11 */
(PID.TID 0001.0001)                 2.900303768613599E+05,      /* I = 12 */
(PID.TID 0001.0001)                 2.945429307892709E+05,      /* I = 13 */
(PID.TID 0001.0001)                 2.979171143158405E+05,      /* I = 14 */
(PID.TID 0001.0001)                 3.001626787528886E+05,      /* I = 15 */
(PID.TID 0001.0001)     2 @  3.012844832048790E+05,             /* I = 16: 17 */
(PID.TID 0001.0001)                 3.001626787528886E+05,      /* I = 18 */
(PID.TID 0001.0001)                 2.979171143158405E+05,      /* I = 19 */
(PID.TID 0001.0001)                 2.945429307892709E+05,      /* I = 20 */
(PID.TID 0001.0001)                 2.900303768613599E+05,      /* I = 21 */
(PID.TID 0001.0001)                 2.843615645344775E+05,      /* I = 22 */
(PID.TID 0001.0001)                 2.775055554645015E+05,      /* I = 23 */
(PID.TID 0001.0001)                 2.694110134598581E+05,      /* I = 24 */
(PID.TID 0001.0001)                 2.599949918261881E+05,      /* I = 25 */
(PID.TID 0001.0001)                 2.491250781852558E+05,      /* I = 26 */
(PID.TID 0001.0001)                 2.365892017348392E+05,      /* I = 27 */
(PID.TID 0001.0001)                 2.220405216043041E+05,      /* I = 28 */
(PID.TID 0001.0001)                 2.048868197919576E+05,      /* I = 29 */
(PID.TID 0001.0001)                 1.840412227747703E+05,      /* I = 30 */
(PID.TID 0001.0001)                 1.572908084538706E+05,      /* I = 31 */
(PID.TID 0001.0001)                 1.202082051331828E+05       /* I = 32 */
(PID.TID 0001.0001)     ;
(PID.TID 0001.0001) dyF =  /* dyF(1,:,1,:) ( units: m ) */
(PID.TID 0001.0001)                 1.202082051331828E+05,      /* J =  1 */
(PID.TID 0001.0001)                 1.563594089971120E+05,      /* J =  2 */
(PID.TID 0001.0001)                 1.835530058121492E+05,      /* J =  3 */
(PID.TID 0001.0001)                 2.045883481718707E+05,      /* J =  4 */
(PID.TID 0001.0001)                 2.218350349844185E+05,      /* J =  5 */
(PID.TID 0001.0001)                 2.364352994647058E+05,      /* J =  6 */
(PID.TID 0001.0001)                 2.490022710862746E+05,      /* J =  7 */
(PID.TID 0001.0001)                 2.598919724358304E+05,      /* J =  8 */
(PID.TID 0001.0001)                 2.693210245495156E+05,      /* J =  9 */
(PID.TID 0001.0001)                 2.774243179696503E+05,      /* J = 10 */
(PID.TID 0001.0001)                 2.842862532064524E+05,      /* J = 11 */
(PID.TID 0001.0001)                 2.899590699694043E+05,      /* J = 12 */
(PID.TID 0001.0001)                 2.944742915095688E+05,      /* J = 13 */
(PID.TID 0001.0001)                 2.978501920522794E+05,      /* J = 14 */
(PID.TID 0001.0001)                 3.000967749619962E+05,      /* J = 15 */
(PID.TID 0001.0001)     2 @  3.012190981969055E+05,             /* J = 16: 17 */
(PID.TID 0001.0001)                 3.000967749619962E+05,      /* J = 18 */
(PID.TID 0001.0001)                 2.978501920522794E+05,      /* J = 19 */
(PID.TID 0001.0001)                 2.944742915095688E+05,      /* J = 20 */
(PID.TID 0001.0001)                 2.899590699694043E+05,      /* J = 21 */
(PID.TID 0001.0001)                 2.842862532064524E+05,      /* J = 22 */
(PID.TID 0001.0001)                 2.774243179696503E+05,      /* J = 23 */
(PID.TID 0001.0001)                 2.693210245495156E+05,      /* J = 24 */
(PID.TID 0001.0001)                 2.598919724358304E+05,      /* J = 25 */
(PID.TID 0001.0001)                 2.490022710862746E+05,      /* J = 26 */
(PID.TID 0001.0001)                 2.364352994647058E+05,      /* J = 27 */
(PID.TID 0001.0001)                 2.218350349844185E+05,      /* J = 28 */
(PID.TID 0001.0001)                 2.045883481718707E+05,      /* J = 29 */
(PID.TID 0001.0001)                 1.835530058121492E+05,      /* J = 30 */
(PID.TID 0001.0001)                 1.563594089971120E+05,      /* J = 31 */
(PID.TID 0001.0001)                 1.202082051331828E+05       /* J = 32 */
(PID.TID 0001.0001)     ;
(PID.TID 0001.0001) dxG =  /* dxG(:,1,:,1) ( units: m ) */
(PID.TID 0001.0001)                 1.009837800879055E+05,      /* I =  1 */
(PID.TID 0001.0001)                 1.534505834330338E+05,      /* I =  2 */
(PID.TID 0001.0001)                 1.823321598773926E+05,      /* I =  3 */
(PID.TID 0001.0001)                 2.038999045536999E+05,      /* I =  4 */
(PID.TID 0001.0001)                 2.213884732245467E+05,      /* I =  5 */
(PID.TID 0001.0001)                 2.361211699596122E+05,      /* I =  6 */
(PID.TID 0001.0001)                 2.487693460283865E+05,      /* I =  7 */
(PID.TID 0001.0001)                 2.597126963772147E+05,      /* I =  8 */
(PID.TID 0001.0001)                 2.691790288994575E+05,      /* I =  9 */
(PID.TID 0001.0001)                 2.773091043277394E+05,      /* I = 10 */
(PID.TID 0001.0001)                 2.841906470085516E+05,      /* I = 11 */
(PID.TID 0001.0001)                 2.898778860929753E+05,      /* I = 12 */
(PID.TID 0001.0001)                 2.944035815526416E+05,      /* I = 13 */
(PID.TID 0001.0001)                 2.977867909042096E+05,      /* I = 14 */
(PID.TID 0001.0001)                 3.000380090330854E+05,      /* I = 15 */
(PID.TID 0001.0001)     2 @  3.011625828699101E+05,             /* I = 16: 17 */
(PID.TID 0001.0001)                 3.000380090330854E+05,      /* I = 18 */
(PID.TID 0001.0001)                 2.977867909042096E+05,      /* I = 19 */
(PID.TID 0001.0001)                 2.944035815526416E+05,      /* I = 20 */
(PID.TID 0001.0001)                 2.898778860929753E+05,      /* I = 21 */
(PID.TID 0001.0001)                 2.841906470085516E+05,      /* I = 22 */
(PID.TID 0001.0001)                 2.773091043277394E+05,      /* I = 23 */
(PID.TID 0001.0001)                 2.691790288994575E+05,      /* I = 24 */
(PID.TID 0001.0001)                 2.597126963772147E+05,      /* I = 25 */
(PID.TID 0001.0001)                 2.487693460283865E+05,      /* I = 26 */
(PID.TID 0001.0001)                 2.361211699596122E+05,      /* I = 27 */
(PID.TID 0001.0001)                 2.213884732245467E+05,      /* I = 28 */
(PID.TID 0001.0001)                 2.038999045536999E+05,      /* I = 29 */
(PID.TID 0001.0001)                 1.823321598773926E+05,      /* I = 30 */
(PID.TID 0001.0001)                 1.534505834330338E+05,      /* I = 31 */
(PID.TID 0001.0001)                 1.009837800879055E+05       /* I = 32 */
(PID.TID 0001.0001)     ;
(PID.TID 0001.0001) dxG =  /* dxG(1,:,1,:) ( units: m ) */
(PID.TID 0001.0001)                 1.009837800879055E+05,      /* J =  1 */
(PID.TID 0001.0001)                 1.403701524205398E+05,      /* J =  2 */
(PID.TID 0001.0001)                 1.716197227386011E+05,      /* J =  3 */
(PID.TID 0001.0001)                 1.950254041626018E+05,      /* J =  4 */
(PID.TID 0001.0001)                 2.138410773065497E+05,      /* J =  5 */
(PID.TID 0001.0001)                 2.295958105911512E+05,      /* J =  6 */
(PID.TID 0001.0001)                 2.430829951739083E+05,      /* J =  7 */
(PID.TID 0001.0001)                 2.547526806712889E+05,      /* J =  8 */
(PID.TID 0001.0001)                 2.648750305193301E+05,      /* J =  9 */
(PID.TID 0001.0001)                 2.736173771018112E+05,      /* J = 10 */
(PID.TID 0001.0001)                 2.810845823202647E+05,      /* J = 11 */
(PID.TID 0001.0001)                 2.873420591008078E+05,      /* J = 12 */
(PID.TID 0001.0001)                 2.924298293668651E+05,      /* J = 13 */
(PID.TID 0001.0001)                 2.963715635865306E+05,      /* J = 14 */
(PID.TID 0001.0001)                 2.991805843171258E+05,      /* J = 15 */
(PID.TID 0001.0001)                 3.008638765647886E+05,      /* J = 16 */
(PID.TID 0001.0001)                 3.014246674484008E+05,      /* J = 17 */
(PID.TID 0001.0001)                 3.008638765647886E+05,      /* J = 18 */
(PID.TID 0001.0001)                 2.991805843171258E+05,      /* J = 19 */
(PID.TID 0001.0001)                 2.963715635865306E+05,      /* J = 20 */
(PID.TID 0001.0001)                 2.924298293668651E+05,      /* J = 21 */
(PID.TID 0001.0001)                 2.873420591008078E+05,      /* J = 22 */
(PID.TID 0001.0001)                 2.810845823202647E+05,      /* J = 23 */
(PID.TID 0001.0001)                 2.736173771018112E+05,      /* J = 24 */
(PID.TID 0001.0001)                 2.648750305193301E+05,      /* J = 25 */
(PID.TID 0001.0001)                 2.547526806712889E+05,      /* J = 26 */
(PID.TID 0001.0001)                 2.430829951739083E+05,      /* J = 27 */
(PID.TID 0001.0001)                 2.295958105911512E+05,      /* J = 28 */
(PID.TID 0001.0001)                 2.138410773065497E+05,      /* J = 29 */
(PID.TID 0001.0001)                 1.950254041626018E+05,      /* J = 30 */
(PID.TID 0001.0001)                 1.716197227386011E+05,      /* J = 31 */
(PID.TID 0001.0001)                 1.403701524205398E+05       /* J = 32 */
(PID.TID 0001.0001)     ;
(PID.TID 0001.0001) dyG =  /* dyG(:,1,:,1) ( units: m ) */
(PID.TID 0001.0001)                 1.009837800879055E+05,      /* I =  1 */
(PID.TID 0001.0001)                 1.403701524205398E+05,      /* I =  2 */
(PID.TID 0001.0001)                 1.716197227386011E+05,      /* I =  3 */
(PID.TID 0001.0001)                 1.950254041626018E+05,      /* I =  4 */
(PID.TID 0001.0001)                 2.138410773065497E+05,      /* I =  5 */
(PID.TID 0001.0001)                 2.295958105911512E+05,      /* I =  6 */
(PID.TID 0001.0001)                 2.430829951739083E+05,      /* I =  7 */
(PID.TID 0001.0001)                 2.547526806712889E+05,      /* I =  8 */
(PID.TID 0001.0001)                 2.648750305193301E+05,      /* I =  9 */
(PID.TID 0001.0001)                 2.736173771018112E+05,      /* I = 10 */
(PID.TID 0001.0001)                 2.810845823202647E+05,      /* I = 11 */
(PID.TID 0001.0001)                 2.873420591008078E+05,      /* I = 12 */
(PID.TID 0001.0001)                 2.924298293668651E+05,      /* I = 13 */
(PID.TID 0001.0001)                 2.963715635865306E+05,      /* I = 14 */
(PID.TID 0001.0001)                 2.991805843171258E+05,      /* I = 15 */
(PID.TID 0001.0001)                 3.008638765647886E+05,      /* I = 16 */
(PID.TID 0001.0001)                 3.014246674484008E+05,      /* I = 17 */
(PID.TID 0001.0001)                 3.008638765647886E+05,      /* I = 18 */
(PID.TID 0001.0001)                 2.991805843171258E+05,      /* I = 19 */
(PID.TID 0001.0001)                 2.963715635865306E+05,      /* I = 20 */
(PID.TID 0001.0001)                 2.924298293668651E+05,      /* I = 21 */
(PID.TID 0001.0001)                 2.873420591008078E+05,      /* I = 22 */
(PID.TID 0001.0001)                 2.810845823202647E+05,      /* I = 23 */
(PID.TID 0001.0001)                 2.736173771018112E+05,      /* I = 24 */
(PID.TID 0001.0001)                 2.648750305193301E+05,      /* I = 25 */
(PID.TID 0001.0001)                 2.547526806712889E+05,      /* I = 26 */
(PID.TID 0001.0001)                 2.430829951739083E+05,      /* I = 27 */
(PID.TID 0001.0001)                 2.295958105911512E+05,      /* I = 28 */
(PID.TID 0001.0001)                 2.138410773065497E+05,      /* I = 29 */
(PID.TID 0001.0001)                 1.950254041626018E+05,      /* I = 30 */
(PID.TID 0001.0001)                 1.716197227386011E+05,      /* I = 31 */
(PID.TID 0001.0001)                 1.403701524205398E+05       /* I = 32 */
(PID.TID 0001.0001)     ;
(PID.TID 0001.0001) dyG =  /* dyG(1,:,1,:) ( units: m ) */
(PID.TID 0001.0001)                 1.009837800879055E+05,      /* J =  1 */
(PID.TID 0001.0001)                 1.534505834330338E+05,      /* J =  2 */
(PID.TID 0001.0001)                 1.823321598773926E+05,      /* J =  3 */
(PID.TID 0001.0001)                 2.038999045536999E+05,      /* J =  4 */
(PID.TID 0001.0001)                 2.213884732245467E+05,      /* J =  5 */
(PID.TID 0001.0001)                 2.361211699596122E+05,      /* J =  6 */
(PID.TID 0001.0001)                 2.487693460283865E+05,      /* J =  7 */
(PID.TID 0001.0001)                 2.597126963772147E+05,      /* J =  8 */
(PID.TID 0001.0001)                 2.691790288994575E+05,      /* J =  9 */
(PID.TID 0001.0001)                 2.773091043277394E+05,      /* J = 10 */
(PID.TID 0001.0001)                 2.841906470085516E+05,      /* J = 11 */
(PID.TID 0001.0001)                 2.898778860929753E+05,      /* J = 12 */
(PID.TID 0001.0001)                 2.944035815526416E+05,      /* J = 13 */
(PID.TID 0001.0001)                 2.977867909042096E+05,      /* J = 14 */
(PID.TID 0001.0001)                 3.000380090330854E+05,      /* J = 15 */
(PID.TID 0001.0001)     2 @  3.011625828699101E+05,             /* J = 16: 17 */
(PID.TID 0001.0001)                 3.000380090330854E+05,      /* J = 18 */
(PID.TID 0001.0001)                 2.977867909042096E+05,      /* J = 19 */
(PID.TID 0001.0001)                 2.944035815526416E+05,      /* J = 20 */
(PID.TID 0001.0001)                 2.898778860929753E+05,      /* J = 21 */
(PID.TID 0001.0001)                 2.841906470085516E+05,      /* J = 22 */
(PID.TID 0001.0001)                 2.773091043277394E+05,      /* J = 23 */
(PID.TID 0001.0001)                 2.691790288994575E+05,      /* J = 24 */
(PID.TID 0001.0001)                 2.597126963772147E+05,      /* J = 25 */
(PID.TID 0001.0001)                 2.487693460283865E+05,      /* J = 26 */
(PID.TID 0001.0001)                 2.361211699596122E+05,      /* J = 27 */
(PID.TID 0001.0001)                 2.213884732245467E+05,      /* J = 28 */
(PID.TID 0001.0001)                 2.038999045536999E+05,      /* J = 29 */
(PID.TID 0001.0001)                 1.823321598773926E+05,      /* J = 30 */
(PID.TID 0001.0001)                 1.534505834330338E+05,      /* J = 31 */
(PID.TID 0001.0001)                 1.009837800879055E+05       /* J = 32 */
(PID.TID 0001.0001)     ;
(PID.TID 0001.0001) dxC =  /* dxC(:,1,:,1) ( units: m ) */
(PID.TID 0001.0001)                 1.114203141013064E+05,      /* I =  1 */
(PID.TID 0001.0001)                 1.391343389937106E+05,      /* I =  2 */
(PID.TID 0001.0001)                 1.709574999026266E+05,      /* I =  3 */
(PID.TID 0001.0001)                 1.946503699269892E+05,      /* I =  4 */
(PID.TID 0001.0001)                 2.135964483342134E+05,      /* I =  5 */
(PID.TID 0001.0001)                 2.294195678257306E+05,      /* I =  6 */
(PID.TID 0001.0001)                 2.429464709770498E+05,      /* I =  7 */
(PID.TID 0001.0001)                 2.546408290696998E+05,      /* I =  8 */
(PID.TID 0001.0001)                 2.647791839299727E+05,      /* I =  9 */
(PID.TID 0001.0001)                 2.735321911346108E+05,      /* I = 10 */
(PID.TID 0001.0001)                 2.810065951609633E+05,      /* I = 11 */
(PID.TID 0001.0001)                 2.872689479506990E+05,      /* I = 12 */
(PID.TID 0001.0001)                 2.923599955312932E+05,      /* I = 13 */
(PID.TID 0001.0001)                 2.963038832565530E+05,      /* I = 14 */
(PID.TID 0001.0001)                 2.991142470004740E+05,      /* I = 15 */
(PID.TID 0001.0001)                 3.007982711627968E+05,      /* I = 16 */
(PID.TID 0001.0001)                 3.013593857228136E+05,      /* I = 17 */
(PID.TID 0001.0001)                 3.007982711627968E+05,      /* I = 18 */
(PID.TID 0001.0001)                 2.991142470004740E+05,      /* I = 19 */
(PID.TID 0001.0001)                 2.963038832565530E+05,      /* I = 20 */
(PID.TID 0001.0001)                 2.923599955312932E+05,      /* I = 21 */
(PID.TID 0001.0001)                 2.872689479506990E+05,      /* I = 22 */
(PID.TID 0001.0001)                 2.810065951609633E+05,      /* I = 23 */
(PID.TID 0001.0001)                 2.735321911346108E+05,      /* I = 24 */
(PID.TID 0001.0001)                 2.647791839299727E+05,      /* I = 25 */
(PID.TID 0001.0001)                 2.546408290696998E+05,      /* I = 26 */
(PID.TID 0001.0001)                 2.429464709770498E+05,      /* I = 27 */
(PID.TID 0001.0001)                 2.294195678257306E+05,      /* I = 28 */
(PID.TID 0001.0001)                 2.135964483342134E+05,      /* I = 29 */
(PID.TID 0001.0001)                 1.946503699269892E+05,      /* I = 30 */
(PID.TID 0001.0001)                 1.709574999026266E+05,      /* I = 31 */
(PID.TID 0001.0001)                 1.391343389937106E+05       /* I = 32 */
(PID.TID 0001.0001)     ;
(PID.TID 0001.0001) dxC =  /* dxC(1,:,1,:) ( units: m ) */
(PID.TID 0001.0001)                 1.114203141013064E+05,      /* J =  1 */
(PID.TID 0001.0001)                 1.549545757850771E+05,      /* J =  2 */
(PID.TID 0001.0001)                 1.829777599966776E+05,      /* J =  3 */
(PID.TID 0001.0001)                 2.042717761866506E+05,      /* J =  4 */
(PID.TID 0001.0001)                 2.216367828252819E+05,      /* J =  5 */
(PID.TID 0001.0001)                 2.363029564123586E+05,      /* J =  6 */
(PID.TID 0001.0001)                 2.489113743322025E+05,      /* J =  7 */
(PID.TID 0001.0001)                 2.598293319150326E+05,      /* J =  8 */
(PID.TID 0001.0001)                 2.692787333338535E+05,      /* J =  9 */
(PID.TID 0001.0001)                 2.773972106720365E+05,      /* J = 10 */
(PID.TID 0001.0001)                 2.842706922224557E+05,      /* J = 11 */
(PID.TID 0001.0001)                 2.899523122489403E+05,      /* J = 12 */
(PID.TID 0001.0001)                 2.944741346384699E+05,      /* J = 13 */
(PID.TID 0001.0001)                 2.978547649292580E+05,      /* J = 14 */
(PID.TID 0001.0001)                 3.001044073506459E+05,      /* J = 15 */
(PID.TID 0001.0001)     2 @  3.012281885409289E+05,             /* J = 16: 17 */
(PID.TID 0001.0001)                 3.001044073506459E+05,      /* J = 18 */
(PID.TID 0001.0001)                 2.978547649292580E+05,      /* J = 19 */
(PID.TID 0001.0001)                 2.944741346384699E+05,      /* J = 20 */
(PID.TID 0001.0001)                 2.899523122489403E+05,      /* J = 21 */
(PID.TID 0001.0001)                 2.842706922224557E+05,      /* J = 22 */
(PID.TID 0001.0001)                 2.773972106720365E+05,      /* J = 23 */
(PID.TID 0001.0001)                 2.692787333338535E+05,      /* J = 24 */
(PID.TID 0001.0001)                 2.598293319150326E+05,      /* J = 25 */
(PID.TID 0001.0001)                 2.489113743322025E+05,      /* J = 26 */
(PID.TID 0001.0001)                 2.363029564123586E+05,      /* J = 27 */
(PID.TID 0001.0001)                 2.216367828252819E+05,      /* J = 28 */
(PID.TID 0001.0001)                 2.042717761866506E+05,      /* J = 29 */
(PID.TID 0001.0001)                 1.829777599966776E+05,      /* J = 30 */
(PID.TID 0001.0001)                 1.549545757850771E+05,      /* J = 31 */
(PID.TID 0001.0001)                 1.114203141013064E+05       /* J = 32 */
(PID.TID 0001.0001)     ;
(PID.TID 0001.0001) dyC =  /* dyC(:,1,:,1) ( units: m ) */
(PID.TID 0001.0001)                 1.114203141013064E+05,      /* I =  1 */
(PID.TID 0001.0001)                 1.549545757850771E+05,      /* I =  2 */
(PID.TID 0001.0001)                 1.829777599966776E+05,      /* I =  3 */
(PID.TID 0001.0001)                 2.042717761866506E+05,      /* I =  4 */
(PID.TID 0001.0001)                 2.216367828252819E+05,      /* I =  5 */
(PID.TID 0001.0001)                 2.363029564123586E+05,      /* I =  6 */
(PID.TID 0001.0001)                 2.489113743322025E+05,      /* I =  7 */
(PID.TID 0001.0001)                 2.598293319150326E+05,      /* I =  8 */
(PID.TID 0001.0001)                 2.692787333338535E+05,      /* I =  9 */
(PID.TID 0001.0001)                 2.773972106720365E+05,      /* I = 10 */
(PID.TID 0001.0001)                 2.842706922224557E+05,      /* I = 11 */
(PID.TID 0001.0001)                 2.899523122489403E+05,      /* I = 12 */
(PID.TID 0001.0001)                 2.944741346384699E+05,      /* I = 13 */
(PID.TID 0001.0001)                 2.978547649292580E+05,      /* I = 14 */
(PID.TID 0001.0001)                 3.001044073506459E+05,      /* I = 15 */
(PID.TID 0001.0001)     2 @  3.012281885409289E+05,             /* I = 16: 17 */
(PID.TID 0001.0001)                 3.001044073506459E+05,      /* I = 18 */
(PID.TID 0001.0001)                 2.978547649292580E+05,      /* I = 19 */
(PID.TID 0001.0001)                 2.944741346384699E+05,      /* I = 20 */
(PID.TID 0001.0001)                 2.899523122489403E+05,      /* I = 21 */
(PID.TID 0001.0001)                 2.842706922224557E+05,      /* I = 22 */
(PID.TID 0001.0001)                 2.773972106720365E+05,      /* I = 23 */
(PID.TID 0001.0001)                 2.692787333338535E+05,      /* I = 24 */
(PID.TID 0001.0001)                 2.598293319150326E+05,      /* I = 25 */
(PID.TID 0001.0001)                 2.489113743322025E+05,      /* I = 26 */
(PID.TID 0001.0001)                 2.363029564123586E+05,      /* I = 27 */
(PID.TID 0001.0001)                 2.216367828252819E+05,      /* I = 28 */
(PID.TID 0001.0001)                 2.042717761866506E+05,      /* I = 29 */
(PID.TID 0001.0001)                 1.829777599966776E+05,      /* I = 30 */
(PID.TID 0001.0001)                 1.549545757850771E+05,      /* I = 31 */
(PID.TID 0001.0001)                 1.114203141013064E+05       /* I = 32 */
(PID.TID 0001.0001)     ;
(PID.TID 0001.0001) dyC =  /* dyC(1,:,1,:) ( units: m ) */
(PID.TID 0001.0001)                 1.114203141013064E+05,      /* J =  1 */
(PID.TID 0001.0001)                 1.391343389937106E+05,      /* J =  2 */
(PID.TID 0001.0001)                 1.709574999026266E+05,      /* J =  3 */
(PID.TID 0001.0001)                 1.946503699269892E+05,      /* J =  4 */
(PID.TID 0001.0001)                 2.135964483342134E+05,      /* J =  5 */
(PID.TID 0001.0001)                 2.294195678257306E+05,      /* J =  6 */
(PID.TID 0001.0001)                 2.429464709770498E+05,      /* J =  7 */
(PID.TID 0001.0001)                 2.546408290696998E+05,      /* J =  8 */
(PID.TID 0001.0001)                 2.647791839299727E+05,      /* J =  9 */
(PID.TID 0001.0001)                 2.735321911346108E+05,      /* J = 10 */
(PID.TID 0001.0001)                 2.810065951609633E+05,      /* J = 11 */
(PID.TID 0001.0001)                 2.872689479506990E+05,      /* J = 12 */
(PID.TID 0001.0001)                 2.923599955312932E+05,      /* J = 13 */
(PID.TID 0001.0001)                 2.963038832565530E+05,      /* J = 14 */
(PID.TID 0001.0001)                 2.991142470004740E+05,      /* J = 15 */
(PID.TID 0001.0001)                 3.007982711627968E+05,      /* J = 16 */
(PID.TID 0001.0001)                 3.013593857228136E+05,      /* J = 17 */
(PID.TID 0001.0001)                 3.007982711627968E+05,      /* J = 18 */
(PID.TID 0001.0001)                 2.991142470004740E+05,      /* J = 19 */
(PID.TID 0001.0001)                 2.963038832565530E+05,      /* J = 20 */
(PID.TID 0001.0001)                 2.923599955312932E+05,      /* J = 21 */
(PID.TID 0001.0001)                 2.872689479506990E+05,      /* J = 22 */
(PID.TID 0001.0001)                 2.810065951609633E+05,      /* J = 23 */
(PID.TID 0001.0001)                 2.735321911346108E+05,      /* J = 24 */
(PID.TID 0001.0001)                 2.647791839299727E+05,      /* J = 25 */
(PID.TID 0001.0001)                 2.546408290696998E+05,      /* J = 26 */
(PID.TID 0001.0001)                 2.429464709770498E+05,      /* J = 27 */
(PID.TID 0001.0001)                 2.294195678257306E+05,      /* J = 28 */
(PID.TID 0001.0001)                 2.135964483342134E+05,      /* J = 29 */
(PID.TID 0001.0001)                 1.946503699269892E+05,      /* J = 30 */
(PID.TID 0001.0001)                 1.709574999026266E+05,      /* J = 31 */
(PID.TID 0001.0001)                 1.391343389937106E+05       /* J = 32 */
(PID.TID 0001.0001)     ;
(PID.TID 0001.0001) dxV =  /* dxV(:,1,:,1) ( units: m ) */
(PID.TID 0001.0001)                 8.015229982413632E+04,      /* I =  1 */
(PID.TID 0001.0001)                 1.333130744933864E+05,      /* I =  2 */
(PID.TID 0001.0001)                 1.691744868129062E+05,      /* I =  3 */
(PID.TID 0001.0001)                 1.937548202849060E+05,      /* I =  4 */
(PID.TID 0001.0001)                 2.130490056267208E+05,      /* I =  5 */
(PID.TID 0001.0001)                 2.290479919481738E+05,      /* I =  6 */
(PID.TID 0001.0001)                 2.426774358027003E+05,      /* I =  7 */
(PID.TID 0001.0001)                 2.544372984215561E+05,      /* I =  8 */
(PID.TID 0001.0001)                 2.646201463834826E+05,      /* I =  9 */
(PID.TID 0001.0001)                 2.734046499619031E+05,      /* I = 10 */
(PID.TID 0001.0001)                 2.809019351693761E+05,      /* I = 11 */
(PID.TID 0001.0001)                 2.871811105274442E+05,      /* I = 12 */
(PID.TID 0001.0001)                 2.922844849381675E+05,      /* I = 13 */
(PID.TID 0001.0001)                 2.962371870847826E+05,      /* I = 14 */
(PID.TID 0001.0001)                 2.990534755671296E+05,      /* I = 15 */
(PID.TID 0001.0001)                 3.007409169495504E+05,      /* I = 16 */
(PID.TID 0001.0001)                 3.013031486919771E+05,      /* I = 17 */
(PID.TID 0001.0001)                 3.007409169495504E+05,      /* I = 18 */
(PID.TID 0001.0001)                 2.990534755671296E+05,      /* I = 19 */
(PID.TID 0001.0001)                 2.962371870847826E+05,      /* I = 20 */
(PID.TID 0001.0001)                 2.922844849381675E+05,      /* I = 21 */
(PID.TID 0001.0001)                 2.871811105274442E+05,      /* I = 22 */
(PID.TID 0001.0001)                 2.809019351693761E+05,      /* I = 23 */
(PID.TID 0001.0001)                 2.734046499619031E+05,      /* I = 24 */
(PID.TID 0001.0001)                 2.646201463834826E+05,      /* I = 25 */
(PID.TID 0001.0001)                 2.544372984215561E+05,      /* I = 26 */
(PID.TID 0001.0001)                 2.426774358027003E+05,      /* I = 27 */
(PID.TID 0001.0001)                 2.290479919481738E+05,      /* I = 28 */
(PID.TID 0001.0001)                 2.130490056267208E+05,      /* I = 29 */
(PID.TID 0001.0001)                 1.937548202849060E+05,      /* I = 30 */
(PID.TID 0001.0001)                 1.691744868129062E+05,      /* I = 31 */
(PID.TID 0001.0001)                 1.333130744933864E+05       /* I = 32 */
(PID.TID 0001.0001)     ;
(PID.TID 0001.0001) dxV =  /* dxV(1,:,1,:) ( units: m ) */
(PID.TID 0001.0001)                 8.015229982413632E+04,      /* J =  1 */
(PID.TID 0001.0001)                 1.362652340208229E+05,      /* J =  2 */
(PID.TID 0001.0001)                 1.701080315742101E+05,      /* J =  3 */
(PID.TID 0001.0001)                 1.942331448101592E+05,      /* J =  4 */
(PID.TID 0001.0001)                 2.133486626971531E+05,      /* J =  5 */
(PID.TID 0001.0001)                 2.292584591272880E+05,      /* J =  6 */
(PID.TID 0001.0001)                 2.428369969078989E+05,      /* J =  7 */
(PID.TID 0001.0001)                 2.545652950875683E+05,      /* J =  8 */
(PID.TID 0001.0001)                 2.647274964828301E+05,      /* J =  9 */
(PID.TID 0001.0001)                 2.734980225206389E+05,      /* J = 10 */
(PID.TID 0001.0001)                 2.809856491525217E+05,      /* J = 11 */
(PID.TID 0001.0001)                 2.872580915202295E+05,      /* J = 12 */
(PID.TID 0001.0001)                 2.923567890694162E+05,      /* J = 13 */
(PID.TID 0001.0001)                 2.963063101754721E+05,      /* J = 14 */
(PID.TID 0001.0001)                 2.991205495886625E+05,      /* J = 15 */
(PID.TID 0001.0001)                 3.008068453676764E+05,      /* J = 16 */
(PID.TID 0001.0001)                 3.013686170436881E+05,      /* J = 17 */
(PID.TID 0001.0001)                 3.008068453676764E+05,      /* J = 18 */
(PID.TID 0001.0001)                 2.991205495886625E+05,      /* J = 19 */
(PID.TID 0001.0001)                 2.963063101754721E+05,      /* J = 20 */
(PID.TID 0001.0001)                 2.923567890694162E+05,      /* J = 21 */
(PID.TID 0001.0001)                 2.872580915202295E+05,      /* J = 22 */
(PID.TID 0001.0001)                 2.809856491525217E+05,      /* J = 23 */
(PID.TID 0001.0001)                 2.734980225206389E+05,      /* J = 24 */
(PID.TID 0001.0001)                 2.647274964828301E+05,      /* J = 25 */
(PID.TID 0001.0001)                 2.545652950875683E+05,      /* J = 26 */
(PID.TID 0001.0001)                 2.428369969078989E+05,      /* J = 27 */
(PID.TID 0001.0001)                 2.292584591272880E+05,      /* J = 28 */
(PID.TID 0001.0001)                 2.133486626971531E+05,      /* J = 29 */
(PID.TID 0001.0001)                 1.942331448101592E+05,      /* J = 30 */
(PID.TID 0001.0001)                 1.701080315742101E+05,      /* J = 31 */
(PID.TID 0001.0001)                 1.362652340208229E+05       /* J = 32 */
(PID.TID 0001.0001)     ;
(PID.TID 0001.0001) dyU =  /* dyU(:,1,:,1) ( units: m ) */
(PID.TID 0001.0001)                 8.015229982413632E+04,      /* I =  1 */
(PID.TID 0001.0001)                 1.362652340208229E+05,      /* I =  2 */
(PID.TID 0001.0001)                 1.701080315742101E+05,      /* I =  3 */
(PID.TID 0001.0001)                 1.942331448101592E+05,      /* I =  4 */
(PID.TID 0001.0001)                 2.133486626971531E+05,      /* I =  5 */
(PID.TID 0001.0001)                 2.292584591272880E+05,      /* I =  6 */
(PID.TID 0001.0001)                 2.428369969078989E+05,      /* I =  7 */
(PID.TID 0001.0001)                 2.545652950875683E+05,      /* I =  8 */
(PID.TID 0001.0001)                 2.647274964828301E+05,      /* I =  9 */
(PID.TID 0001.0001)                 2.734980225206389E+05,      /* I = 10 */
(PID.TID 0001.0001)                 2.809856491525217E+05,      /* I = 11 */
(PID.TID 0001.0001)                 2.872580915202295E+05,      /* I = 12 */
(PID.TID 0001.0001)                 2.923567890694162E+05,      /* I = 13 */
(PID.TID 0001.0001)                 2.963063101754721E+05,      /* I = 14 */
(PID.TID 0001.0001)                 2.991205495886625E+05,      /* I = 15 */
(PID.TID 0001.0001)                 3.008068453676764E+05,      /* I = 16 */
(PID.TID 0001.0001)                 3.013686170436881E+05,      /* I = 17 */
(PID.TID 0001.0001)                 3.008068453676764E+05,      /* I = 18 */
(PID.TID 0001.0001)                 2.991205495886625E+05,      /* I = 19 */
(PID.TID 0001.0001)                 2.963063101754721E+05,      /* I = 20 */
(PID.TID 0001.0001)                 2.923567890694162E+05,      /* I = 21 */
(PID.TID 0001.0001)                 2.872580915202295E+05,      /* I = 22 */
(PID.TID 0001.0001)                 2.809856491525217E+05,      /* I = 23 */
(PID.TID 0001.0001)                 2.734980225206389E+05,      /* I = 24 */
(PID.TID 0001.0001)                 2.647274964828301E+05,      /* I = 25 */
(PID.TID 0001.0001)                 2.545652950875683E+05,      /* I = 26 */
(PID.TID 0001.0001)                 2.428369969078989E+05,      /* I = 27 */
(PID.TID 0001.0001)                 2.292584591272880E+05,      /* I = 28 */
(PID.TID 0001.0001)                 2.133486626971531E+05,      /* I = 29 */
(PID.TID 0001.0001)                 1.942331448101592E+05,      /* I = 30 */
(PID.TID 0001.0001)                 1.701080315742101E+05,      /* I = 31 */
(PID.TID 0001.0001)                 1.362652340208229E+05       /* I = 32 */
(PID.TID 0001.0001)     ;
(PID.TID 0001.0001) dyU =  /* dyU(1,:,1,:) ( units: m ) */
(PID.TID 0001.0001)                 8.015229982413632E+04,      /* J =  1 */
(PID.TID 0001.0001)                 1.333130744933864E+05,      /* J =  2 */
(PID.TID 0001.0001)                 1.691744868129062E+05,      /* J =  3 */
(PID.TID 0001.0001)                 1.937548202849060E+05,      /* J =  4 */
(PID.TID 0001.0001)                 2.130490056267208E+05,      /* J =  5 */
(PID.TID 0001.0001)                 2.290479919481738E+05,      /* J =  6 */
(PID.TID 0001.0001)                 2.426774358027003E+05,      /* J =  7 */
(PID.TID 0001.0001)                 2.544372984215561E+05,      /* J =  8 */
(PID.TID 0001.0001)                 2.646201463834826E+05,      /* J =  9 */
(PID.TID 0001.0001)                 2.734046499619031E+05,      /* J = 10 */
(PID.TID 0001.0001)                 2.809019351693761E+05,      /* J = 11 */
(PID.TID 0001.0001)                 2.871811105274442E+05,      /* J = 12 */
(PID.TID 0001.0001)                 2.922844849381675E+05,      /* J = 13 */
(PID.TID 0001.0001)                 2.962371870847826E+05,      /* J = 14 */
(PID.TID 0001.0001)                 2.990534755671296E+05,      /* J = 15 */
(PID.TID 0001.0001)                 3.007409169495504E+05,      /* J = 16 */
(PID.TID 0001.0001)                 3.013031486919771E+05,      /* J = 17 */
(PID.TID 0001.0001)                 3.007409169495504E+05,      /* J = 18 */
(PID.TID 0001.0001)                 2.990534755671296E+05,      /* J = 19 */
(PID.TID 0001.0001)                 2.962371870847826E+05,      /* J = 20 */
(PID.TID 0001.0001)                 2.922844849381675E+05,      /* J = 21 */
(PID.TID 0001.0001)                 2.871811105274442E+05,      /* J = 22 */
(PID.TID 0001.0001)                 2.809019351693761E+05,      /* J = 23 */
(PID.TID 0001.0001)                 2.734046499619031E+05,      /* J = 24 */
(PID.TID 0001.0001)                 2.646201463834826E+05,      /* J = 25 */
(PID.TID 0001.0001)                 2.544372984215561E+05,      /* J = 26 */
(PID.TID 0001.0001)                 2.426774358027003E+05,      /* J = 27 */
(PID.TID 0001.0001)                 2.290479919481738E+05,      /* J = 28 */
(PID.TID 0001.0001)                 2.130490056267208E+05,      /* J = 29 */
(PID.TID 0001.0001)                 1.937548202849060E+05,      /* J = 30 */
(PID.TID 0001.0001)                 1.691744868129062E+05,      /* J = 31 */
(PID.TID 0001.0001)                 1.333130744933864E+05       /* J = 32 */
(PID.TID 0001.0001)     ;
(PID.TID 0001.0001) rA  =  /* rA (:,1,:,1) ( units: m^2 ) */
(PID.TID 0001.0001)                 1.401900702255611E+10,      /* I =  1 */
(PID.TID 0001.0001)                 2.459906945574446E+10,      /* I =  2 */
(PID.TID 0001.0001)                 3.378518544307869E+10,      /* I =  3 */
(PID.TID 0001.0001)                 4.192037169898667E+10,      /* I =  4 */
(PID.TID 0001.0001)                 4.925938996118163E+10,      /* I =  5 */
(PID.TID 0001.0001)                 5.594154126607553E+10,      /* I =  6 */
(PID.TID 0001.0001)                 6.203683527772523E+10,      /* I =  7 */
(PID.TID 0001.0001)                 6.757541173817516E+10,      /* I =  8 */
(PID.TID 0001.0001)                 7.256353271748119E+10,      /* I =  9 */
(PID.TID 0001.0001)                 7.699293007098555E+10,      /* I = 10 */
(PID.TID 0001.0001)                 8.084683449728902E+10,      /* I = 11 */
(PID.TID 0001.0001)                 8.410423102796223E+10,      /* I = 12 */
(PID.TID 0001.0001)                 8.674306976737517E+10,      /* I = 13 */
(PID.TID 0001.0001)                 8.874277443041928E+10,      /* I = 14 */
(PID.TID 0001.0001)                 9.008620045350865E+10,      /* I = 15 */
(PID.TID 0001.0001)                 9.076111290418457E+10,      /* I = 16 */
(PID.TID 0001.0001)                 9.076111290422060E+10,      /* I = 17 */
(PID.TID 0001.0001)                 9.008620045354469E+10,      /* I = 18 */
(PID.TID 0001.0001)                 8.874277443041928E+10,      /* I = 19 */
(PID.TID 0001.0001)                 8.674306976741121E+10,      /* I = 20 */
(PID.TID 0001.0001)                 8.410423102799828E+10,      /* I = 21 */
(PID.TID 0001.0001)                 8.084683449728902E+10,      /* I = 22 */
(PID.TID 0001.0001)                 7.699293007098555E+10,      /* I = 23 */
(PID.TID 0001.0001)                 7.256353271748119E+10,      /* I = 24 */
(PID.TID 0001.0001)                 6.757541173817516E+10,      /* I = 25 */
(PID.TID 0001.0001)                 6.203683527772523E+10,      /* I = 26 */
(PID.TID 0001.0001)                 5.594154126611156E+10,      /* I = 27 */
(PID.TID 0001.0001)                 4.925938996118163E+10,      /* I = 28 */
(PID.TID 0001.0001)                 4.192037169898667E+10,      /* I = 29 */
(PID.TID 0001.0001)                 3.378518544304265E+10,      /* I = 30 */
(PID.TID 0001.0001)                 2.459906945574446E+10,      /* I = 31 */
(PID.TID 0001.0001)                 1.401900702259215E+10       /* I = 32 */
(PID.TID 0001.0001)     ;
(PID.TID 0001.0001) rA  =  /* rA (1,:,1,:) ( units: m^2 ) */
(PID.TID 0001.0001)                 1.401900702255611E+10,      /* J =  1 */
(PID.TID 0001.0001)                 2.459906945574446E+10,      /* J =  2 */
(PID.TID 0001.0001)                 3.378518544307869E+10,      /* J =  3 */
(PID.TID 0001.0001)                 4.192037169898667E+10,      /* J =  4 */
(PID.TID 0001.0001)                 4.925938996118163E+10,      /* J =  5 */
(PID.TID 0001.0001)                 5.594154126607553E+10,      /* J =  6 */
(PID.TID 0001.0001)                 6.203683527776127E+10,      /* J =  7 */
(PID.TID 0001.0001)                 6.757541173817516E+10,      /* J =  8 */
(PID.TID 0001.0001)                 7.256353271748119E+10,      /* J =  9 */
(PID.TID 0001.0001)                 7.699293007098555E+10,      /* J = 10 */
(PID.TID 0001.0001)                 8.084683449728902E+10,      /* J = 11 */
(PID.TID 0001.0001)                 8.410423102799828E+10,      /* J = 12 */
(PID.TID 0001.0001)                 8.674306976737517E+10,      /* J = 13 */
(PID.TID 0001.0001)                 8.874277443041928E+10,      /* J = 14 */
(PID.TID 0001.0001)                 9.008620045350865E+10,      /* J = 15 */
(PID.TID 0001.0001)                 9.076111290418457E+10,      /* J = 16 */
(PID.TID 0001.0001)                 9.076111290422060E+10,      /* J = 17 */
(PID.TID 0001.0001)                 9.008620045354469E+10,      /* J = 18 */
(PID.TID 0001.0001)                 8.874277443041928E+10,      /* J = 19 */
(PID.TID 0001.0001)                 8.674306976737517E+10,      /* J = 20 */
(PID.TID 0001.0001)                 8.410423102799828E+10,      /* J = 21 */
(PID.TID 0001.0001)                 8.084683449728902E+10,      /* J = 22 */
(PID.TID 0001.0001)                 7.699293007098555E+10,      /* J = 23 */
(PID.TID 0001.0001)                 7.256353271748119E+10,      /* J = 24 */
(PID.TID 0001.0001)                 6.757541173817516E+10,      /* J = 25 */
(PID.TID 0001.0001)                 6.203683527772523E+10,      /* J = 26 */
(PID.TID 0001.0001)                 5.594154126607553E+10,      /* J = 27 */
(PID.TID 0001.0001)                 4.925938996118163E+10,      /* J = 28 */
(PID.TID 0001.0001)                 4.192037169898667E+10,      /* J = 29 */
(PID.TID 0001.0001)                 3.378518544307869E+10,      /* J = 30 */
(PID.TID 0001.0001)                 2.459906945574446E+10,      /* J = 31 */
(PID.TID 0001.0001)                 1.401900702259215E+10       /* J = 32 */
(PID.TID 0001.0001)     ;
(PID.TID 0001.0001) rAw =  /* rAw(:,1,:,1) ( units: m^2 ) */
(PID.TID 0001.0001)                 1.216690346714270E+10,      /* I =  1 */
(PID.TID 0001.0001)                 1.974052138506315E+10,      /* I =  2 */
(PID.TID 0001.0001)                 2.943712825252015E+10,      /* I =  3 */
(PID.TID 0001.0001)                 3.801790263324359E+10,      /* I =  4 */
(PID.TID 0001.0001)                 4.571243814189866E+10,      /* I =  5 */
(PID.TID 0001.0001)                 5.269930713599979E+10,      /* I =  6 */
(PID.TID 0001.0001)                 5.907428494299063E+10,      /* I =  7 */
(PID.TID 0001.0001)                 6.488320895111514E+10,      /* I =  8 */
(PID.TID 0001.0001)                 7.014205907741882E+10,      /* I =  9 */
(PID.TID 0001.0001)                 7.484854821847499E+10,      /* I = 10 */
(PID.TID 0001.0001)                 7.898934631431560E+10,      /* I = 11 */
(PID.TID 0001.0001)                 8.254500894894537E+10,      /* I = 12 */
(PID.TID 0001.0001)                 8.549360686473492E+10,      /* I = 13 */
(PID.TID 0001.0001)                 8.781353403175085E+10,      /* I = 14 */
(PID.TID 0001.0001)                 8.948571540392021E+10,      /* I = 15 */
(PID.TID 0001.0001)                 9.049530583086168E+10,      /* I = 16 */
(PID.TID 0001.0001)                 9.083293515008307E+10,      /* I = 17 */
(PID.TID 0001.0001)                 9.049530583087070E+10,      /* I = 18 */
(PID.TID 0001.0001)                 8.948571540391121E+10,      /* I = 19 */
(PID.TID 0001.0001)                 8.781353403174185E+10,      /* I = 20 */
(PID.TID 0001.0001)                 8.549360686467184E+10,      /* I = 21 */
(PID.TID 0001.0001)                 8.254500894890933E+10,      /* I = 22 */
(PID.TID 0001.0001)                 7.898934631434262E+10,      /* I = 23 */
(PID.TID 0001.0001)                 7.484854821844795E+10,      /* I = 24 */
(PID.TID 0001.0001)                 7.014205907742783E+10,      /* I = 25 */
(PID.TID 0001.0001)                 6.488320895111514E+10,      /* I = 26 */
(PID.TID 0001.0001)                 5.907428494299063E+10,      /* I = 27 */
(PID.TID 0001.0001)                 5.269930713599078E+10,      /* I = 28 */
(PID.TID 0001.0001)                 4.571243814190767E+10,      /* I = 29 */
(PID.TID 0001.0001)                 3.801790263325260E+10,      /* I = 30 */
(PID.TID 0001.0001)                 2.943712825251114E+10,      /* I = 31 */
(PID.TID 0001.0001)                 1.974052138509018E+10       /* I = 32 */
(PID.TID 0001.0001)     ;
(PID.TID 0001.0001) rAw =  /* rAw(1,:,1,:) ( units: m^2 ) */
(PID.TID 0001.0001)                 1.216690346714270E+10,      /* J =  1 */
(PID.TID 0001.0001)                 2.390126200743558E+10,      /* J =  2 */
(PID.TID 0001.0001)                 3.341968103208270E+10,      /* J =  3 */
(PID.TID 0001.0001)                 4.168532893152940E+10,      /* J =  4 */
(PID.TID 0001.0001)                 4.909074590409593E+10,      /* J =  5 */
(PID.TID 0001.0001)                 5.581203765722643E+10,      /* J =  6 */
(PID.TID 0001.0001)                 6.193257577506788E+10,      /* J =  7 */
(PID.TID 0001.0001)                 6.748840226738273E+10,      /* J =  8 */
(PID.TID 0001.0001)                 7.248875782324815E+10,      /* J =  9 */
(PID.TID 0001.0001)                 7.692702995909871E+10,      /* J = 10 */
(PID.TID 0001.0001)                 8.078743937057304E+10,      /* J = 11 */
(PID.TID 0001.0001)                 8.404959656062837E+10,      /* J = 12 */
(PID.TID 0001.0001)                 8.669186205742538E+10,      /* J = 13 */
(PID.TID 0001.0001)                 8.869393350723613E+10,      /* J = 14 */
(PID.TID 0001.0001)                 9.003884657168852E+10,      /* J = 15 */
(PID.TID 0001.0001)     2 @  9.071447638299399E+10,             /* J = 16: 17 */
(PID.TID 0001.0001)                 9.003884657168852E+10,      /* J = 18 */
(PID.TID 0001.0001)                 8.869393350723613E+10,      /* J = 19 */
(PID.TID 0001.0001)                 8.669186205742538E+10,      /* J = 20 */
(PID.TID 0001.0001)                 8.404959656062837E+10,      /* J = 21 */
(PID.TID 0001.0001)                 8.078743937057304E+10,      /* J = 22 */
(PID.TID 0001.0001)                 7.692702995909871E+10,      /* J = 23 */
(PID.TID 0001.0001)                 7.248875782324815E+10,      /* J = 24 */
(PID.TID 0001.0001)                 6.748840226738273E+10,      /* J = 25 */
(PID.TID 0001.0001)                 6.193257577506788E+10,      /* J = 26 */
(PID.TID 0001.0001)                 5.581203765722643E+10,      /* J = 27 */
(PID.TID 0001.0001)                 4.909074590409593E+10,      /* J = 28 */
(PID.TID 0001.0001)                 4.168532893152940E+10,      /* J = 29 */
(PID.TID 0001.0001)                 3.341968103208270E+10,      /* J = 30 */
(PID.TID 0001.0001)                 2.390126200743558E+10,      /* J = 31 */
(PID.TID 0001.0001)                 1.216690346714270E+10       /* J = 32 */
(PID.TID 0001.0001)     ;
(PID.TID 0001.0001) rAs =  /* rAs(:,1,:,1) ( units: m^2 ) */
(PID.TID 0001.0001)                 1.216690346714270E+10,      /* I =  1 */
(PID.TID 0001.0001)                 2.390126200743558E+10,      /* I =  2 */
(PID.TID 0001.0001)                 3.341968103208270E+10,      /* I =  3 */
(PID.TID 0001.0001)                 4.168532893152940E+10,      /* I =  4 */
(PID.TID 0001.0001)                 4.909074590409593E+10,      /* I =  5 */
(PID.TID 0001.0001)                 5.581203765722643E+10,      /* I =  6 */
(PID.TID 0001.0001)                 6.193257577506788E+10,      /* I =  7 */
(PID.TID 0001.0001)                 6.748840226738273E+10,      /* I =  8 */
(PID.TID 0001.0001)                 7.248875782324815E+10,      /* I =  9 */
(PID.TID 0001.0001)                 7.692702995909871E+10,      /* I = 10 */
(PID.TID 0001.0001)                 8.078743937057304E+10,      /* I = 11 */
(PID.TID 0001.0001)                 8.404959656062837E+10,      /* I = 12 */
(PID.TID 0001.0001)                 8.669186205742538E+10,      /* I = 13 */
(PID.TID 0001.0001)                 8.869393350723613E+10,      /* I = 14 */
(PID.TID 0001.0001)                 9.003884657168852E+10,      /* I = 15 */
(PID.TID 0001.0001)     2 @  9.071447638299399E+10,             /* I = 16: 17 */
(PID.TID 0001.0001)                 9.003884657168852E+10,      /* I = 18 */
(PID.TID 0001.0001)                 8.869393350723613E+10,      /* I = 19 */
(PID.TID 0001.0001)                 8.669186205742538E+10,      /* I = 20 */
(PID.TID 0001.0001)                 8.404959656062837E+10,      /* I = 21 */
(PID.TID 0001.0001)                 8.078743937057304E+10,      /* I = 22 */
(PID.TID 0001.0001)                 7.692702995909871E+10,      /* I = 23 */
(PID.TID 0001.0001)                 7.248875782324815E+10,      /* I = 24 */
(PID.TID 0001.0001)                 6.748840226738273E+10,      /* I = 25 */
(PID.TID 0001.0001)                 6.193257577506788E+10,      /* I = 26 */
(PID.TID 0001.0001)                 5.581203765722643E+10,      /* I = 27 */
(PID.TID 0001.0001)                 4.909074590409593E+10,      /* I = 28 */
(PID.TID 0001.0001)                 4.168532893152940E+10,      /* I = 29 */
(PID.TID 0001.0001)                 3.341968103208270E+10,      /* I = 30 */
(PID.TID 0001.0001)                 2.390126200743558E+10,      /* I = 31 */
(PID.TID 0001.0001)                 1.216690346714270E+10       /* I = 32 */
(PID.TID 0001.0001)     ;
(PID.TID 0001.0001) rAs =  /* rAs(1,:,1,:) ( units: m^2 ) */
(PID.TID 0001.0001)                 1.216690346714270E+10,      /* J =  1 */
(PID.TID 0001.0001)                 1.974052138506315E+10,      /* J =  2 */
(PID.TID 0001.0001)                 2.943712825252015E+10,      /* J =  3 */
(PID.TID 0001.0001)                 3.801790263324359E+10,      /* J =  4 */
(PID.TID 0001.0001)                 4.571243814189866E+10,      /* J =  5 */
(PID.TID 0001.0001)                 5.269930713599979E+10,      /* J =  6 */
(PID.TID 0001.0001)                 5.907428494299063E+10,      /* J =  7 */
(PID.TID 0001.0001)                 6.488320895111514E+10,      /* J =  8 */
(PID.TID 0001.0001)                 7.014205907741882E+10,      /* J =  9 */
(PID.TID 0001.0001)                 7.484854821847499E+10,      /* J = 10 */
(PID.TID 0001.0001)                 7.898934631431560E+10,      /* J = 11 */
(PID.TID 0001.0001)                 8.254500894894537E+10,      /* J = 12 */
(PID.TID 0001.0001)                 8.549360686473492E+10,      /* J = 13 */
(PID.TID 0001.0001)                 8.781353403175085E+10,      /* J = 14 */
(PID.TID 0001.0001)                 8.948571540392021E+10,      /* J = 15 */
(PID.TID 0001.0001)                 9.049530583086168E+10,      /* J = 16 */
(PID.TID 0001.0001)                 9.083293515008307E+10,      /* J = 17 */
(PID.TID 0001.0001)                 9.049530583087070E+10,      /* J = 18 */
(PID.TID 0001.0001)                 8.948571540391121E+10,      /* J = 19 */
(PID.TID 0001.0001)                 8.781353403174185E+10,      /* J = 20 */
(PID.TID 0001.0001)                 8.549360686467184E+10,      /* J = 21 */
(PID.TID 0001.0001)                 8.254500894890933E+10,      /* J = 22 */
(PID.TID 0001.0001)                 7.898934631434262E+10,      /* J = 23 */
(PID.TID 0001.0001)                 7.484854821844795E+10,      /* J = 24 */
(PID.TID 0001.0001)                 7.014205907742783E+10,      /* J = 25 */
(PID.TID 0001.0001)                 6.488320895111514E+10,      /* J = 26 */
(PID.TID 0001.0001)                 5.907428494299063E+10,      /* J = 27 */
(PID.TID 0001.0001)                 5.269930713599078E+10,      /* J = 28 */
(PID.TID 0001.0001)                 4.571243814190767E+10,      /* J = 29 */
(PID.TID 0001.0001)                 3.801790263325260E+10,      /* J = 30 */
(PID.TID 0001.0001)                 2.943712825251114E+10,      /* J = 31 */
(PID.TID 0001.0001)                 1.974052138509018E+10       /* J = 32 */
(PID.TID 0001.0001)     ;
(PID.TID 0001.0001) globalArea = /* Integrated horizontal Area (m^2) */
(PID.TID 0001.0001)                 3.638867375081598E+14
(PID.TID 0001.0001)     ;
(PID.TID 0001.0001) // =======================================================
(PID.TID 0001.0001) // End of Model config. summary
(PID.TID 0001.0001) // =======================================================
(PID.TID 0001.0001) 
(PID.TID 0001.0001)  MDS_READ_FIELD: opening global file: pickup.0000072000
(PID.TID 0001.0001)  MDS_READ_FIELD: opening global file: pickup.0000072000
(PID.TID 0001.0001)  MDS_READ_FIELD: opening global file: pickup.0000072000
(PID.TID 0001.0001)  MDS_READ_FIELD: opening global file: pickup.0000072000
(PID.TID 0001.0001)  MDS_READ_FIELD: opening global file: pickup.0000072000
(PID.TID 0001.0001)  MDS_READ_FIELD: opening global file: pickup.0000072000
(PID.TID 0001.0001)  MDS_READ_FIELD: opening global file: pickup.0000072000
(PID.TID 0001.0001)  MDS_READ_FIELD: opening global file: pickup.0000072000
(PID.TID 0001.0001)  MDS_READ_FIELD: opening global file: pickup.0000072000
(PID.TID 0001.0001)  MDS_READ_FIELD: opening global file: pickup.0000072000
(PID.TID 0001.0001)  MDS_READ_FIELD: opening global file: pickup.0000072000
(PID.TID 0001.0001)  MDS_READ_FIELD: opening global file: trenberth_taux.bin
(PID.TID 0001.0001)  MDS_READ_FIELD: opening global file: trenberth_tauy.bin
(PID.TID 0001.0001)  MDS_READ_FIELD: opening global file: shiQnet_cs32.bin
(PID.TID 0001.0001)  MDS_READ_FIELD: opening global file: shiEmPR_cs32.bin
(PID.TID 0001.0001)  MDS_READ_FIELD: opening global file: lev_surfT_cs_12m.bin
(PID.TID 0001.0001)  MDS_READ_FIELD: opening global file: lev_surfS_cs_12m.bin
(PID.TID 0001.0001) // =======================================================
(PID.TID 0001.0001) // Model current state
(PID.TID 0001.0001) // =======================================================
(PID.TID 0001.0001) 
 DRIVER_GET_EXPORT_STATE_3D:MASK. This code is stubbed!
 DRIVER_SET_IMPORT_STATE_3D:SWHEAT. This code is stubbed!
S/R EXTERNAL_FIELDS_LOAD: Reading new data:   12    1     72000  6.220800000000E+09
(PID.TID 0001.0001)  MDS_READ_FIELD: opening global file: trenberth_taux.bin
(PID.TID 0001.0001)  MDS_READ_FIELD: opening global file: trenberth_taux.bin
(PID.TID 0001.0001)  MDS_READ_FIELD: opening global file: trenberth_tauy.bin
(PID.TID 0001.0001)  MDS_READ_FIELD: opening global file: trenberth_tauy.bin
(PID.TID 0001.0001)  MDS_READ_FIELD: opening global file: shiQnet_cs32.bin
(PID.TID 0001.0001)  MDS_READ_FIELD: opening global file: shiQnet_cs32.bin
(PID.TID 0001.0001)  MDS_READ_FIELD: opening global file: shiEmPR_cs32.bin
(PID.TID 0001.0001)  MDS_READ_FIELD: opening global file: shiEmPR_cs32.bin
(PID.TID 0001.0001)  MDS_READ_FIELD: opening global file: lev_surfT_cs_12m.bin
(PID.TID 0001.0001)  MDS_READ_FIELD: opening global file: lev_surfT_cs_12m.bin
(PID.TID 0001.0001)  MDS_READ_FIELD: opening global file: lev_surfS_cs_12m.bin
(PID.TID 0001.0001)  MDS_READ_FIELD: opening global file: lev_surfS_cs_12m.bin
 cg2d: Sum(rhs),rhsMax =  -9.66338120633736E-12  1.35345574570764E+00
(PID.TID 0001.0001)                    cg2d_init_res =    1.49488312919748E-01
(PID.TID 0001.0001)                       cg2d_iters =    62
(PID.TID 0001.0001)                         cg2d_res =    4.72177254799658E-07
(PID.TID 0001.0001) // =======================================================
(PID.TID 0001.0001) // Begin MONITOR dynamic field statistics
(PID.TID 0001.0001) // =======================================================
(PID.TID 0001.0001) %MON time_tsnumber                =                 72001
(PID.TID 0001.0001) %MON time_secondsf                =   6.2208864000000E+09
(PID.TID 0001.0001) %MON dynstat_eta_max              =   9.2074069935470E-01
(PID.TID 0001.0001) %MON dynstat_eta_min              =  -1.6177434055552E+00
(PID.TID 0001.0001) %MON dynstat_eta_mean             =   1.4235198665035E-14
(PID.TID 0001.0001) %MON dynstat_eta_sd               =   5.9896523301313E-01
(PID.TID 0001.0001) %MON dynstat_eta_del2             =   1.1252089921907E-02
(PID.TID 0001.0001) %MON dynstat_uvel_max             =   1.8678724393268E-01
(PID.TID 0001.0001) %MON dynstat_uvel_min             =  -2.8776620863423E-01
(PID.TID 0001.0001) %MON dynstat_uvel_mean            =  -4.8905815832028E-04
(PID.TID 0001.0001) %MON dynstat_uvel_sd              =   1.2021174048412E-02
(PID.TID 0001.0001) %MON dynstat_uvel_del2            =   1.5673963930972E-03
(PID.TID 0001.0001) %MON dynstat_vvel_max             =   1.7373037967178E-01
(PID.TID 0001.0001) %MON dynstat_vvel_min             =  -2.2518068582006E-01
(PID.TID 0001.0001) %MON dynstat_vvel_mean            =  -4.0395158140020E-04
(PID.TID 0001.0001) %MON dynstat_vvel_sd              =   1.2641235876446E-02
(PID.TID 0001.0001) %MON dynstat_vvel_del2            =   1.5939380725146E-03
(PID.TID 0001.0001) %MON dynstat_wvel_max             =   1.0319095854851E-04
(PID.TID 0001.0001) %MON dynstat_wvel_min             =  -2.0436889854636E-04
(PID.TID 0001.0001) %MON dynstat_wvel_mean            =   1.4894379070776E-10
(PID.TID 0001.0001) %MON dynstat_wvel_sd              =   3.8359777362128E-06
(PID.TID 0001.0001) %MON dynstat_wvel_del2            =   8.3874806195964E-07
(PID.TID 0001.0001) %MON dynstat_theta_max            =   3.0941374392791E+01
(PID.TID 0001.0001) %MON dynstat_theta_min            =  -3.0330033726151E+00
(PID.TID 0001.0001) %MON dynstat_theta_mean           =   3.9091878123630E+00
(PID.TID 0001.0001) %MON dynstat_theta_sd             =   4.5711611800290E+00
(PID.TID 0001.0001) %MON dynstat_theta_del2           =   8.7672412846909E-02
(PID.TID 0001.0001) %MON dynstat_salt_max             =   4.1386888211404E+01
(PID.TID 0001.0001) %MON dynstat_salt_min             =   1.8383695190146E+01
(PID.TID 0001.0001) %MON dynstat_salt_mean            =   3.4772068989043E+01
(PID.TID 0001.0001) %MON dynstat_salt_sd              =   5.3145417320052E-01
(PID.TID 0001.0001) %MON dynstat_salt_del2            =   1.8680582045578E-02
(PID.TID 0001.0001) %MON dynstat_sst_max              =   3.0941374392791E+01
(PID.TID 0001.0001) %MON dynstat_sst_min              =  -1.9660820961799E+00
(PID.TID 0001.0001) %MON dynstat_sst_mean             =   1.8123192106175E+01
(PID.TID 0001.0001) %MON dynstat_sst_sd               =   9.7921197621432E+00
(PID.TID 0001.0001) %MON dynstat_sst_del2             =   2.0269370127777E-01
(PID.TID 0001.0001) %MON dynstat_sss_max              =   4.1386888211404E+01
(PID.TID 0001.0001) %MON dynstat_sss_min              =   1.8383695190146E+01
(PID.TID 0001.0001) %MON dynstat_sss_mean             =   3.4632089909517E+01
(PID.TID 0001.0001) %MON dynstat_sss_sd               =   1.4674055787503E+00
(PID.TID 0001.0001) %MON dynstat_sss_del2             =   7.8358568983681E-02
(PID.TID 0001.0001) %MON extforcing_qnet_max          =   4.5344826813507E+02
(PID.TID 0001.0001) %MON extforcing_qnet_min          =  -2.1502574251756E+02
(PID.TID 0001.0001) %MON extforcing_qnet_mean         =  -1.2145822391644E+01
(PID.TID 0001.0001) %MON extforcing_qnet_sd           =   1.1565376981455E+02
(PID.TID 0001.0001) %MON extforcing_qnet_del2         =   5.1057787979107E+00
(PID.TID 0001.0001) %MON extforcing_qsw_max           =   0.0000000000000E+00
(PID.TID 0001.0001) %MON extforcing_qsw_min           =   0.0000000000000E+00
(PID.TID 0001.0001) %MON extforcing_qsw_mean          =   0.0000000000000E+00
(PID.TID 0001.0001) %MON extforcing_qsw_sd            =   0.0000000000000E+00
(PID.TID 0001.0001) %MON extforcing_qsw_del2          =   0.0000000000000E+00
(PID.TID 0001.0001) %MON extforcing_empmr_max         =   7.6494447208479E-08
(PID.TID 0001.0001) %MON extforcing_empmr_min         =  -1.5362614137596E-07
(PID.TID 0001.0001) %MON extforcing_empmr_mean        =  -2.0474999028391E-24
(PID.TID 0001.0001) %MON extforcing_empmr_sd          =   2.4051723601802E-08
(PID.TID 0001.0001) %MON extforcing_empmr_del2        =   1.2835223797615E-09
(PID.TID 0001.0001) %MON extforcing_fu_max            =   2.4760613571392E-01
(PID.TID 0001.0001) %MON extforcing_fu_min            =  -2.0293190974520E-01
(PID.TID 0001.0001) %MON extforcing_fu_mean           =  -4.5508455517373E-03
(PID.TID 0001.0001) %MON extforcing_fu_sd             =   6.3932903370477E-02
(PID.TID 0001.0001) %MON extforcing_fu_del2           =   2.8378850351201E-03
(PID.TID 0001.0001) %MON extforcing_fv_max            =   2.5281098043587E-01
(PID.TID 0001.0001) %MON extforcing_fv_min            =  -3.2691992401999E-01
(PID.TID 0001.0001) %MON extforcing_fv_mean           =  -1.3687274543638E-02
(PID.TID 0001.0001) %MON extforcing_fv_sd             =   7.5146369305778E-02
(PID.TID 0001.0001) %MON extforcing_fv_del2           =   3.0827684831322E-03
(PID.TID 0001.0001) %MON advcfl_uvel_max              =   8.1615955315669E-02
(PID.TID 0001.0001) %MON advcfl_vvel_max              =   7.5726624948128E-02
(PID.TID 0001.0001) %MON advcfl_wvel_max              =   6.6631972960021E-02
(PID.TID 0001.0001) %MON advcfl_W_hf_max              =   1.2114295890510E-01
(PID.TID 0001.0001) %MON pe_b_mean                    =   4.7793375200296E-04
(PID.TID 0001.0001) %MON ke_max                       =   4.0598780468888E-02
(PID.TID 0001.0001) %MON ke_mean                      =   1.4070998506276E-04
(PID.TID 0001.0001) %MON ke_vol                       =   1.3398024453628E+18
(PID.TID 0001.0001) %MON vort_r_min                   =  -1.1880315723982E-06
(PID.TID 0001.0001) %MON vort_r_max                   =   1.2157035676301E-06
(PID.TID 0001.0001) %MON vort_a_mean                  =  -2.0493733748264E-05
(PID.TID 0001.0001) %MON vort_a_sd                    =   7.5053947713390E-05
(PID.TID 0001.0001) %MON vort_p_mean                  =  -2.4715773632851E-05
(PID.TID 0001.0001) %MON vort_p_sd                    =   1.2777077744462E-04
(PID.TID 0001.0001) %MON surfExpan_theta_mean         =   4.6784940601574E-08
(PID.TID 0001.0001) %MON surfExpan_salt_mean          =   1.3951912651833E-08
(PID.TID 0001.0001) // =======================================================
(PID.TID 0001.0001) // End MONITOR dynamic field statistics
(PID.TID 0001.0001) // =======================================================
 DRIVER_GET_EXPORT_STATE_3D:MASK. This code is stubbed!
 DRIVER_SET_IMPORT_STATE_3D:SWHEAT. This code is stubbed!
 cg2d: Sum(rhs),rhsMax =  -9.54969436861575E-12  1.35380594584861E+00
(PID.TID 0001.0001)                    cg2d_init_res =    1.48205094654025E-01
(PID.TID 0001.0001)                       cg2d_iters =    61
(PID.TID 0001.0001)                         cg2d_res =    5.64719287116482E-07
(PID.TID 0001.0001) // =======================================================
(PID.TID 0001.0001) // Begin MONITOR dynamic field statistics
(PID.TID 0001.0001) // =======================================================
(PID.TID 0001.0001) %MON time_tsnumber                =                 72002
(PID.TID 0001.0001) %MON time_secondsf                =   6.2209728000000E+09
(PID.TID 0001.0001) %MON dynstat_eta_max              =   9.1895872176717E-01
(PID.TID 0001.0001) %MON dynstat_eta_min              =  -1.6171655144370E+00
(PID.TID 0001.0001) %MON dynstat_eta_mean             =   1.4510009450074E-14
(PID.TID 0001.0001) %MON dynstat_eta_sd               =   5.9885568671547E-01
(PID.TID 0001.0001) %MON dynstat_eta_del2             =   1.1250433059413E-02
(PID.TID 0001.0001) %MON dynstat_uvel_max             =   1.8712220523968E-01
(PID.TID 0001.0001) %MON dynstat_uvel_min             =  -2.8748357916241E-01
(PID.TID 0001.0001) %MON dynstat_uvel_mean            =  -4.8887504376031E-04
(PID.TID 0001.0001) %MON dynstat_uvel_sd              =   1.2020742756300E-02
(PID.TID 0001.0001) %MON dynstat_uvel_del2            =   1.5673099952904E-03
(PID.TID 0001.0001) %MON dynstat_vvel_max             =   1.7397171001562E-01
(PID.TID 0001.0001) %MON dynstat_vvel_min             =  -2.2515839227052E-01
(PID.TID 0001.0001) %MON dynstat_vvel_mean            =  -4.0388997932483E-04
(PID.TID 0001.0001) %MON dynstat_vvel_sd              =   1.2644149346944E-02
(PID.TID 0001.0001) %MON dynstat_vvel_del2            =   1.5932679434047E-03
(PID.TID 0001.0001) %MON dynstat_wvel_max             =   1.0331069687110E-04
(PID.TID 0001.0001) %MON dynstat_wvel_min             =  -2.0464303806279E-04
(PID.TID 0001.0001) %MON dynstat_wvel_mean            =   1.4042801785946E-10
(PID.TID 0001.0001) %MON dynstat_wvel_sd              =   3.8339453802564E-06
(PID.TID 0001.0001) %MON dynstat_wvel_del2            =   8.3834747736970E-07
(PID.TID 0001.0001) %MON dynstat_theta_max            =   3.0956247740807E+01
(PID.TID 0001.0001) %MON dynstat_theta_min            =  -3.0488625347942E+00
(PID.TID 0001.0001) %MON dynstat_theta_mean           =   3.9092454901712E+00
(PID.TID 0001.0001) %MON dynstat_theta_sd             =   4.5711837312830E+00
(PID.TID 0001.0001) %MON dynstat_theta_del2           =   8.7655131331820E-02
(PID.TID 0001.0001) %MON dynstat_salt_max             =   4.1387502387208E+01
(PID.TID 0001.0001) %MON dynstat_salt_min             =   1.8383986586267E+01
(PID.TID 0001.0001) %MON dynstat_salt_mean            =   3.4772069369650E+01
(PID.TID 0001.0001) %MON dynstat_salt_sd              =   5.3145527497052E-01
(PID.TID 0001.0001) %MON dynstat_salt_del2            =   1.8677720614826E-02
(PID.TID 0001.0001) %MON dynstat_sst_max              =   3.0956247740807E+01
(PID.TID 0001.0001) %MON dynstat_sst_min              =  -1.9672506147457E+00
(PID.TID 0001.0001) %MON dynstat_sst_mean             =   1.8126819667300E+01
(PID.TID 0001.0001) %MON dynstat_sst_sd               =   9.7886127828533E+00
(PID.TID 0001.0001) %MON dynstat_sst_del2             =   2.0275836558339E-01
(PID.TID 0001.0001) %MON dynstat_sss_max              =   4.1387502387208E+01
(PID.TID 0001.0001) %MON dynstat_sss_min              =   1.8383986586267E+01
(PID.TID 0001.0001) %MON dynstat_sss_mean             =   3.4631751925571E+01
(PID.TID 0001.0001) %MON dynstat_sss_sd               =   1.4672323860637E+00
(PID.TID 0001.0001) %MON dynstat_sss_del2             =   7.8352633180793E-02
(PID.TID 0001.0001) %MON extforcing_qnet_max          =   4.5335380716717E+02
(PID.TID 0001.0001) %MON extforcing_qnet_min          =  -2.1405338853096E+02
(PID.TID 0001.0001) %MON extforcing_qnet_mean         =  -1.2158050760287E+01
(PID.TID 0001.0001) %MON extforcing_qnet_sd           =   1.1544877109799E+02
(PID.TID 0001.0001) %MON extforcing_qnet_del2         =   5.1115713537206E+00
(PID.TID 0001.0001) %MON extforcing_qsw_max           =   0.0000000000000E+00
(PID.TID 0001.0001) %MON extforcing_qsw_min           =   0.0000000000000E+00
(PID.TID 0001.0001) %MON extforcing_qsw_mean          =   0.0000000000000E+00
(PID.TID 0001.0001) %MON extforcing_qsw_sd            =   0.0000000000000E+00
(PID.TID 0001.0001) %MON extforcing_qsw_del2          =   0.0000000000000E+00
(PID.TID 0001.0001) %MON extforcing_empmr_max         =   7.6494447208479E-08
(PID.TID 0001.0001) %MON extforcing_empmr_min         =  -1.5362614137596E-07
(PID.TID 0001.0001) %MON extforcing_empmr_mean        =  -2.4569998834069E-24
(PID.TID 0001.0001) %MON extforcing_empmr_sd          =   2.4051723601802E-08
(PID.TID 0001.0001) %MON extforcing_empmr_del2        =   1.2835223797615E-09
(PID.TID 0001.0001) %MON extforcing_fu_max            =   2.4755808644372E-01
(PID.TID 0001.0001) %MON extforcing_fu_min            =  -2.0607770640355E-01
(PID.TID 0001.0001) %MON extforcing_fu_mean           =  -4.5075328685842E-03
(PID.TID 0001.0001) %MON extforcing_fu_sd             =   6.3942737181529E-02
(PID.TID 0001.0001) %MON extforcing_fu_del2           =   2.8383260280897E-03
(PID.TID 0001.0001) %MON extforcing_fv_max            =   2.5549422200851E-01
(PID.TID 0001.0001) %MON extforcing_fv_min            =  -3.2770782795392E-01
(PID.TID 0001.0001) %MON extforcing_fv_mean           =  -1.3691213779679E-02
(PID.TID 0001.0001) %MON extforcing_fv_sd             =   7.5185765160514E-02
(PID.TID 0001.0001) %MON extforcing_fv_del2           =   3.0820781007919E-03
(PID.TID 0001.0001) %MON advcfl_uvel_max              =   8.1535796236350E-02
(PID.TID 0001.0001) %MON advcfl_vvel_max              =   7.5831817445095E-02
(PID.TID 0001.0001) %MON advcfl_wvel_max              =   6.6721352787264E-02
(PID.TID 0001.0001) %MON advcfl_W_hf_max              =   1.2068778212500E-01
(PID.TID 0001.0001) %MON pe_b_mean                    =   4.7775894691438E-04
(PID.TID 0001.0001) %MON ke_max                       =   4.0493518552749E-02
(PID.TID 0001.0001) %MON ke_mean                      =   1.4073928802304E-04
(PID.TID 0001.0001) %MON ke_vol                       =   1.3398024453628E+18
(PID.TID 0001.0001) %MON vort_r_min                   =  -1.1920039300507E-06
(PID.TID 0001.0001) %MON vort_r_max                   =   1.2168561171602E-06
(PID.TID 0001.0001) %MON vort_a_mean                  =  -2.0493733748264E-05
(PID.TID 0001.0001) %MON vort_a_sd                    =   7.5053947528014E-05
(PID.TID 0001.0001) %MON vort_p_mean                  =  -2.4715773637998E-05
(PID.TID 0001.0001) %MON vort_p_sd                    =   1.2777077233227E-04
(PID.TID 0001.0001) %MON surfExpan_theta_mean         =   4.6600178292065E-08
(PID.TID 0001.0001) %MON surfExpan_salt_mean          =   1.3994564414706E-08
(PID.TID 0001.0001) // =======================================================
(PID.TID 0001.0001) // End MONITOR dynamic field statistics
(PID.TID 0001.0001) // =======================================================
 DRIVER_GET_EXPORT_STATE_3D:MASK. This code is stubbed!
 DRIVER_SET_IMPORT_STATE_3D:SWHEAT. This code is stubbed!
 cg2d: Sum(rhs),rhsMax =  -1.02886588138063E-11  1.35427281782286E+00
(PID.TID 0001.0001)                    cg2d_init_res =    1.48309541267158E-01
(PID.TID 0001.0001)                       cg2d_iters =    61
(PID.TID 0001.0001)                         cg2d_res =    5.71612237964281E-07
(PID.TID 0001.0001) // =======================================================
(PID.TID 0001.0001) // Begin MONITOR dynamic field statistics
(PID.TID 0001.0001) // =======================================================
(PID.TID 0001.0001) %MON time_tsnumber                =                 72003
(PID.TID 0001.0001) %MON time_secondsf                =   6.2210592000000E+09
(PID.TID 0001.0001) %MON dynstat_eta_max              =   9.1727471815720E-01
(PID.TID 0001.0001) %MON dynstat_eta_min              =  -1.6166098398602E+00
(PID.TID 0001.0001) %MON dynstat_eta_mean             =   1.4674895921098E-14
(PID.TID 0001.0001) %MON dynstat_eta_sd               =   5.9875183274621E-01
(PID.TID 0001.0001) %MON dynstat_eta_del2             =   1.1248548143006E-02
(PID.TID 0001.0001) %MON dynstat_uvel_max             =   1.8739605731013E-01
(PID.TID 0001.0001) %MON dynstat_uvel_min             =  -2.8718707241934E-01
(PID.TID 0001.0001) %MON dynstat_uvel_mean            =  -4.8861855746239E-04
(PID.TID 0001.0001) %MON dynstat_uvel_sd              =   1.2020120974257E-02
(PID.TID 0001.0001) %MON dynstat_uvel_del2            =   1.5672605249604E-03
(PID.TID 0001.0001) %MON dynstat_vvel_max             =   1.7418512553286E-01
(PID.TID 0001.0001) %MON dynstat_vvel_min             =  -2.2512783680770E-01
(PID.TID 0001.0001) %MON dynstat_vvel_mean            =  -4.0379090995037E-04
(PID.TID 0001.0001) %MON dynstat_vvel_sd              =   1.2647063858420E-02
(PID.TID 0001.0001) %MON dynstat_vvel_del2            =   1.5925994731111E-03
(PID.TID 0001.0001) %MON dynstat_wvel_max             =   1.0349498096569E-04
(PID.TID 0001.0001) %MON dynstat_wvel_min             =  -2.0486587381335E-04
(PID.TID 0001.0001) %MON dynstat_wvel_mean            =   1.3546817042520E-10
(PID.TID 0001.0001) %MON dynstat_wvel_sd              =   3.8316808229518E-06
(PID.TID 0001.0001) %MON dynstat_wvel_del2            =   8.3784746713620E-07
(PID.TID 0001.0001) %MON dynstat_theta_max            =   3.0970605065706E+01
(PID.TID 0001.0001) %MON dynstat_theta_min            =  -3.0651017508836E+00
(PID.TID 0001.0001) %MON dynstat_theta_mean           =   3.9093032893780E+00
(PID.TID 0001.0001) %MON dynstat_theta_sd             =   4.5712092990232E+00
(PID.TID 0001.0001) %MON dynstat_theta_del2           =   8.7634431087060E-02
(PID.TID 0001.0001) %MON dynstat_salt_max             =   4.1388108458306E+01
(PID.TID 0001.0001) %MON dynstat_salt_min             =   1.8384284639831E+01
(PID.TID 0001.0001) %MON dynstat_salt_mean            =   3.4772069766607E+01
(PID.TID 0001.0001) %MON dynstat_salt_sd              =   5.3145390854595E-01
(PID.TID 0001.0001) %MON dynstat_salt_del2            =   1.8692047867728E-02
(PID.TID 0001.0001) %MON dynstat_sst_max              =   3.0970605065706E+01
(PID.TID 0001.0001) %MON dynstat_sst_min              =  -1.9684546252842E+00
(PID.TID 0001.0001) %MON dynstat_sst_mean             =   1.8130455014164E+01
(PID.TID 0001.0001) %MON dynstat_sst_sd               =   9.7851187584204E+00
(PID.TID 0001.0001) %MON dynstat_sst_del2             =   2.0301693561702E-01
(PID.TID 0001.0001) %MON dynstat_sss_max              =   4.1388108458306E+01
(PID.TID 0001.0001) %MON dynstat_sss_min              =   1.8384284639831E+01
(PID.TID 0001.0001) %MON dynstat_sss_mean             =   3.4631377306069E+01
(PID.TID 0001.0001) %MON dynstat_sss_sd               =   1.4668793657487E+00
(PID.TID 0001.0001) %MON dynstat_sss_del2             =   7.8502959388548E-02
(PID.TID 0001.0001) %MON extforcing_qnet_max          =   4.5325934619927E+02
(PID.TID 0001.0001) %MON extforcing_qnet_min          =  -2.1308103454435E+02
(PID.TID 0001.0001) %MON extforcing_qnet_mean         =  -1.2170279128930E+01
(PID.TID 0001.0001) %MON extforcing_qnet_sd           =   1.1525031618572E+02
(PID.TID 0001.0001) %MON extforcing_qnet_del2         =   5.1194495540515E+00
(PID.TID 0001.0001) %MON extforcing_qsw_max           =   0.0000000000000E+00
(PID.TID 0001.0001) %MON extforcing_qsw_min           =   0.0000000000000E+00
(PID.TID 0001.0001) %MON extforcing_qsw_mean          =   0.0000000000000E+00
(PID.TID 0001.0001) %MON extforcing_qsw_sd            =   0.0000000000000E+00
(PID.TID 0001.0001) %MON extforcing_qsw_del2          =   0.0000000000000E+00
(PID.TID 0001.0001) %MON extforcing_empmr_max         =   7.6494447208479E-08
(PID.TID 0001.0001) %MON extforcing_empmr_min         =  -1.5362614137596E-07
(PID.TID 0001.0001) %MON extforcing_empmr_mean        =  -2.0474999028391E-24
(PID.TID 0001.0001) %MON extforcing_empmr_sd          =   2.4051723601802E-08
(PID.TID 0001.0001) %MON extforcing_empmr_del2        =   1.2835223797615E-09
(PID.TID 0001.0001) %MON extforcing_fu_max            =   2.4751003717351E-01
(PID.TID 0001.0001) %MON extforcing_fu_min            =  -2.0922350306190E-01
(PID.TID 0001.0001) %MON extforcing_fu_mean           =  -4.4642242207916E-03
(PID.TID 0001.0001) %MON extforcing_fu_sd             =   6.3966032760183E-02
(PID.TID 0001.0001) %MON extforcing_fu_del2           =   2.8413771071512E-03
(PID.TID 0001.0001) %MON extforcing_fv_max            =   2.5817746358114E-01
(PID.TID 0001.0001) %MON extforcing_fv_min            =  -3.2849573188785E-01
(PID.TID 0001.0001) %MON extforcing_fv_mean           =  -1.3695155273351E-02
(PID.TID 0001.0001) %MON extforcing_fv_sd             =   7.5235505490859E-02
(PID.TID 0001.0001) %MON extforcing_fv_del2           =   3.0842129712231E-03
(PID.TID 0001.0001) %MON advcfl_uvel_max              =   8.1451701299672E-02
(PID.TID 0001.0001) %MON advcfl_vvel_max              =   7.5924842262418E-02
(PID.TID 0001.0001) %MON advcfl_wvel_max              =   6.6794005650842E-02
(PID.TID 0001.0001) %MON advcfl_W_hf_max              =   1.2015268361024E-01
(PID.TID 0001.0001) %MON pe_b_mean                    =   4.7759325470584E-04
(PID.TID 0001.0001) %MON ke_max                       =   4.0384893196298E-02
(PID.TID 0001.0001) %MON ke_mean                      =   1.4076646313310E-04
(PID.TID 0001.0001) %MON ke_vol                       =   1.3398024453628E+18
(PID.TID 0001.0001) %MON vort_r_min                   =  -1.1962822202313E-06
(PID.TID 0001.0001) %MON vort_r_max                   =   1.2182731781099E-06
(PID.TID 0001.0001) %MON vort_a_mean                  =  -2.0493733748264E-05
(PID.TID 0001.0001) %MON vort_a_sd                    =   7.5053947361798E-05
(PID.TID 0001.0001) %MON vort_p_mean                  =  -2.4715773634515E-05
(PID.TID 0001.0001) %MON vort_p_sd                    =   1.2777076780190E-04
(PID.TID 0001.0001) %MON surfExpan_theta_mean         =   4.6742431825176E-08
(PID.TID 0001.0001) %MON surfExpan_salt_mean          =   1.4053524646822E-08
(PID.TID 0001.0001) // =======================================================
(PID.TID 0001.0001) // End MONITOR dynamic field statistics
(PID.TID 0001.0001) // =======================================================
 DRIVER_GET_EXPORT_STATE_3D:MASK. This code is stubbed!
 DRIVER_SET_IMPORT_STATE_3D:SWHEAT. This code is stubbed!
 cg2d: Sum(rhs),rhsMax =  -9.37916411203332E-12  1.35495519290734E+00
(PID.TID 0001.0001)                    cg2d_init_res =    1.74860953193125E-01
(PID.TID 0001.0001)                       cg2d_iters =    62
(PID.TID 0001.0001)                         cg2d_res =    5.00264070853381E-07
(PID.TID 0001.0001) // =======================================================
(PID.TID 0001.0001) // Begin MONITOR dynamic field statistics
(PID.TID 0001.0001) // =======================================================
(PID.TID 0001.0001) %MON time_tsnumber                =                 72004
(PID.TID 0001.0001) %MON time_secondsf                =   6.2211456000000E+09
(PID.TID 0001.0001) %MON dynstat_eta_max              =   9.1566664526715E-01
(PID.TID 0001.0001) %MON dynstat_eta_min              =  -1.6160863300502E+00
(PID.TID 0001.0001) %MON dynstat_eta_mean             =   1.3987868958499E-14
(PID.TID 0001.0001) %MON dynstat_eta_sd               =   5.9865142687298E-01
(PID.TID 0001.0001) %MON dynstat_eta_del2             =   1.1246919989803E-02
(PID.TID 0001.0001) %MON dynstat_uvel_max             =   1.8760566802704E-01
(PID.TID 0001.0001) %MON dynstat_uvel_min             =  -2.8687660696946E-01
(PID.TID 0001.0001) %MON dynstat_uvel_mean            =  -4.8831807878974E-04
(PID.TID 0001.0001) %MON dynstat_uvel_sd              =   1.2019361714301E-02
(PID.TID 0001.0001) %MON dynstat_uvel_del2            =   1.5672091889250E-03
(PID.TID 0001.0001) %MON dynstat_vvel_max             =   1.7436971808771E-01
(PID.TID 0001.0001) %MON dynstat_vvel_min             =  -2.2508931364984E-01
(PID.TID 0001.0001) %MON dynstat_vvel_mean            =  -4.0364635316110E-04
(PID.TID 0001.0001) %MON dynstat_vvel_sd              =   1.2649915764380E-02
(PID.TID 0001.0001) %MON dynstat_vvel_del2            =   1.5919809714418E-03
(PID.TID 0001.0001) %MON dynstat_wvel_max             =   1.0373917668082E-04
(PID.TID 0001.0001) %MON dynstat_wvel_min             =  -2.0503507417804E-04
(PID.TID 0001.0001) %MON dynstat_wvel_mean            =   1.2621557756892E-10
(PID.TID 0001.0001) %MON dynstat_wvel_sd              =   3.8292403673204E-06
(PID.TID 0001.0001) %MON dynstat_wvel_del2            =   8.3728177405055E-07
(PID.TID 0001.0001) %MON dynstat_theta_max            =   3.0984465449382E+01
(PID.TID 0001.0001) %MON dynstat_theta_min            =  -3.0816965449073E+00
(PID.TID 0001.0001) %MON dynstat_theta_mean           =   3.9093612252640E+00
(PID.TID 0001.0001) %MON dynstat_theta_sd             =   4.5712447782433E+00
(PID.TID 0001.0001) %MON dynstat_theta_del2           =   8.7711685748056E-02
(PID.TID 0001.0001) %MON dynstat_salt_max             =   4.1388706397961E+01
(PID.TID 0001.0001) %MON dynstat_salt_min             =   1.8384589169229E+01
(PID.TID 0001.0001) %MON dynstat_salt_mean            =   3.4772070181575E+01
(PID.TID 0001.0001) %MON dynstat_salt_sd              =   5.3145434448975E-01
(PID.TID 0001.0001) %MON dynstat_salt_del2            =   1.8718846159205E-02
(PID.TID 0001.0001) %MON dynstat_sst_max              =   3.0984465449382E+01
(PID.TID 0001.0001) %MON dynstat_sst_min              =  -1.9696734675694E+00
(PID.TID 0001.0001) %MON dynstat_sst_mean             =   1.8134484172677E+01
(PID.TID 0001.0001) %MON dynstat_sst_sd               =   9.7818240482260E+00
(PID.TID 0001.0001) %MON dynstat_sst_del2             =   2.0384406929998E-01
(PID.TID 0001.0001) %MON dynstat_sss_max              =   4.1388706397961E+01
(PID.TID 0001.0001) %MON dynstat_sss_min              =   1.8384589169229E+01
(PID.TID 0001.0001) %MON dynstat_sss_mean             =   3.4631118460336E+01
(PID.TID 0001.0001) %MON dynstat_sss_sd               =   1.4667125334419E+00
(PID.TID 0001.0001) %MON dynstat_sss_del2             =   7.8753505839594E-02
(PID.TID 0001.0001) %MON extforcing_qnet_max          =   4.5316488523137E+02
(PID.TID 0001.0001) %MON extforcing_qnet_min          =  -2.1210868055774E+02
(PID.TID 0001.0001) %MON extforcing_qnet_mean         =  -1.2182507497573E+01
(PID.TID 0001.0001) %MON extforcing_qnet_sd           =   1.1505843893838E+02
(PID.TID 0001.0001) %MON extforcing_qnet_del2         =   5.1293808993812E+00
(PID.TID 0001.0001) %MON extforcing_qsw_max           =   0.0000000000000E+00
(PID.TID 0001.0001) %MON extforcing_qsw_min           =   0.0000000000000E+00
(PID.TID 0001.0001) %MON extforcing_qsw_mean          =   0.0000000000000E+00
(PID.TID 0001.0001) %MON extforcing_qsw_sd            =   0.0000000000000E+00
(PID.TID 0001.0001) %MON extforcing_qsw_del2          =   0.0000000000000E+00
(PID.TID 0001.0001) %MON extforcing_empmr_max         =   7.6494447208479E-08
(PID.TID 0001.0001) %MON extforcing_empmr_min         =  -1.5362614137596E-07
(PID.TID 0001.0001) %MON extforcing_empmr_mean        =  -2.0474999028391E-24
(PID.TID 0001.0001) %MON extforcing_empmr_sd          =   2.4051723601802E-08
(PID.TID 0001.0001) %MON extforcing_empmr_del2        =   1.2835223797615E-09
(PID.TID 0001.0001) %MON extforcing_fu_max            =   2.4746198790331E-01
(PID.TID 0001.0001) %MON extforcing_fu_min            =  -2.1236929972025E-01
(PID.TID 0001.0001) %MON extforcing_fu_mean           =  -4.4209184640315E-03
(PID.TID 0001.0001) %MON extforcing_fu_sd             =   6.4002775349040E-02
(PID.TID 0001.0001) %MON extforcing_fu_del2           =   2.8474768836472E-03
(PID.TID 0001.0001) %MON extforcing_fv_max            =   2.6086070515377E-01
(PID.TID 0001.0001) %MON extforcing_fv_min            =  -3.2928363582178E-01
(PID.TID 0001.0001) %MON extforcing_fv_mean           =  -1.3699097790606E-02
(PID.TID 0001.0001) %MON extforcing_fv_sd             =   7.5295569039883E-02
(PID.TID 0001.0001) %MON extforcing_fv_del2           =   3.0893222039660E-03
(PID.TID 0001.0001) %MON advcfl_uvel_max              =   8.1363647408966E-02
(PID.TID 0001.0001) %MON advcfl_vvel_max              =   7.6005303556495E-02
(PID.TID 0001.0001) %MON advcfl_wvel_max              =   6.6849171354651E-02
(PID.TID 0001.0001) %MON advcfl_W_hf_max              =   1.1953833969845E-01
(PID.TID 0001.0001) %MON pe_b_mean                    =   4.7743309103038E-04
(PID.TID 0001.0001) %MON ke_max                       =   4.0272963422708E-02
(PID.TID 0001.0001) %MON ke_mean                      =   1.4079135917150E-04
(PID.TID 0001.0001) %MON ke_vol                       =   1.3398024453628E+18
(PID.TID 0001.0001) %MON vort_r_min                   =  -1.2008389812804E-06
(PID.TID 0001.0001) %MON vort_r_max                   =   1.2199250089169E-06
(PID.TID 0001.0001) %MON vort_a_mean                  =  -2.0493733748264E-05
(PID.TID 0001.0001) %MON vort_a_sd                    =   7.5053947216148E-05
(PID.TID 0001.0001) %MON vort_p_mean                  =  -2.4715773626040E-05
(PID.TID 0001.0001) %MON vort_p_sd                    =   1.2777076367160E-04
(PID.TID 0001.0001) %MON surfExpan_theta_mean         =   4.6891348153077E-08
(PID.TID 0001.0001) %MON surfExpan_salt_mean          =   1.4108626894529E-08
(PID.TID 0001.0001) // =======================================================
(PID.TID 0001.0001) // End MONITOR dynamic field statistics
(PID.TID 0001.0001) // =======================================================
 DRIVER_GET_EXPORT_STATE_3D:MASK. This code is stubbed!
 DRIVER_SET_IMPORT_STATE_3D:SWHEAT. This code is stubbed!
 cg2d: Sum(rhs),rhsMax =  -1.00897068477934E-11  1.35575482605274E+00
(PID.TID 0001.0001)                    cg2d_init_res =    1.51707652932733E-01
(PID.TID 0001.0001)                       cg2d_iters =    62
(PID.TID 0001.0001)                         cg2d_res =    4.75379894146841E-07
(PID.TID 0001.0001) // =======================================================
(PID.TID 0001.0001) // Begin MONITOR dynamic field statistics
(PID.TID 0001.0001) // =======================================================
(PID.TID 0001.0001) %MON time_tsnumber                =                 72005
(PID.TID 0001.0001) %MON time_secondsf                =   6.2212320000000E+09
(PID.TID 0001.0001) %MON dynstat_eta_max              =   9.1410269755235E-01
(PID.TID 0001.0001) %MON dynstat_eta_min              =  -1.6155862544899E+00
(PID.TID 0001.0001) %MON dynstat_eta_mean             =   1.4125274351019E-14
(PID.TID 0001.0001) %MON dynstat_eta_sd               =   5.9855136016162E-01
(PID.TID 0001.0001) %MON dynstat_eta_del2             =   1.1246044875754E-02
(PID.TID 0001.0001) %MON dynstat_uvel_max             =   1.8774880750393E-01
(PID.TID 0001.0001) %MON dynstat_uvel_min             =  -2.8655210947063E-01
(PID.TID 0001.0001) %MON dynstat_uvel_mean            =  -4.8799357633989E-04
(PID.TID 0001.0001) %MON dynstat_uvel_sd              =   1.2018525676161E-02
(PID.TID 0001.0001) %MON dynstat_uvel_del2            =   1.5672002857815E-03
(PID.TID 0001.0001) %MON dynstat_vvel_max             =   1.7452426843252E-01
(PID.TID 0001.0001) %MON dynstat_vvel_min             =  -2.2504309058885E-01
(PID.TID 0001.0001) %MON dynstat_vvel_mean            =  -4.0344356135892E-04
(PID.TID 0001.0001) %MON dynstat_vvel_sd              =   1.2652634216333E-02
(PID.TID 0001.0001) %MON dynstat_vvel_del2            =   1.5913617361826E-03
(PID.TID 0001.0001) %MON dynstat_wvel_max             =   1.0403839814342E-04
(PID.TID 0001.0001) %MON dynstat_wvel_min             =  -2.0514922745894E-04
(PID.TID 0001.0001) %MON dynstat_wvel_mean            =   1.1385399074446E-10
(PID.TID 0001.0001) %MON dynstat_wvel_sd              =   3.8266841165518E-06
(PID.TID 0001.0001) %MON dynstat_wvel_del2            =   8.3663117599099E-07
(PID.TID 0001.0001) %MON dynstat_theta_max            =   3.0997846674252E+01
(PID.TID 0001.0001) %MON dynstat_theta_min            =  -3.0986216649120E+00
(PID.TID 0001.0001) %MON dynstat_theta_mean           =   3.9094192253556E+00
(PID.TID 0001.0001) %MON dynstat_theta_sd             =   4.5712879127858E+00
(PID.TID 0001.0001) %MON dynstat_theta_del2           =   8.7703310542653E-02
(PID.TID 0001.0001) %MON dynstat_salt_max             =   4.1389296479390E+01
(PID.TID 0001.0001) %MON dynstat_salt_min             =   1.8384900011016E+01
(PID.TID 0001.0001) %MON dynstat_salt_mean            =   3.4772070612607E+01
(PID.TID 0001.0001) %MON dynstat_salt_sd              =   5.3145547313005E-01
(PID.TID 0001.0001) %MON dynstat_salt_del2            =   1.8719321537730E-02
(PID.TID 0001.0001) %MON dynstat_sst_max              =   3.0997846674252E+01
(PID.TID 0001.0001) %MON dynstat_sst_min              =  -1.9709038218850E+00
(PID.TID 0001.0001) %MON dynstat_sst_mean             =   1.8138377051973E+01
(PID.TID 0001.0001) %MON dynstat_sst_sd               =   9.7789050732754E+00
(PID.TID 0001.0001) %MON dynstat_sst_del2             =   2.0410773214451E-01
(PID.TID 0001.0001) %MON dynstat_sss_max              =   4.1389296479390E+01
(PID.TID 0001.0001) %MON dynstat_sss_min              =   1.8384900011016E+01
(PID.TID 0001.0001) %MON dynstat_sss_mean             =   3.4630832016215E+01
(PID.TID 0001.0001) %MON dynstat_sss_sd               =   1.4665876507782E+00
(PID.TID 0001.0001) %MON dynstat_sss_del2             =   7.8780580126128E-02
(PID.TID 0001.0001) %MON extforcing_qnet_max          =   4.5307042426348E+02
(PID.TID 0001.0001) %MON extforcing_qnet_min          =  -2.1113632657113E+02
(PID.TID 0001.0001) %MON extforcing_qnet_mean         =  -1.2194735866216E+01
(PID.TID 0001.0001) %MON extforcing_qnet_sd           =   1.1487317231679E+02
(PID.TID 0001.0001) %MON extforcing_qnet_del2         =   5.1410592208337E+00
(PID.TID 0001.0001) %MON extforcing_qsw_max           =   0.0000000000000E+00
(PID.TID 0001.0001) %MON extforcing_qsw_min           =   0.0000000000000E+00
(PID.TID 0001.0001) %MON extforcing_qsw_mean          =   0.0000000000000E+00
(PID.TID 0001.0001) %MON extforcing_qsw_sd            =   0.0000000000000E+00
(PID.TID 0001.0001) %MON extforcing_qsw_del2          =   0.0000000000000E+00
(PID.TID 0001.0001) %MON extforcing_empmr_max         =   7.6494447208479E-08
(PID.TID 0001.0001) %MON extforcing_empmr_min         =  -1.5362614137596E-07
(PID.TID 0001.0001) %MON extforcing_empmr_mean        =  -1.2284999417034E-24
(PID.TID 0001.0001) %MON extforcing_empmr_sd          =   2.4051723601802E-08
(PID.TID 0001.0001) %MON extforcing_empmr_del2        =   1.2835223797615E-09
(PID.TID 0001.0001) %MON extforcing_fu_max            =   2.4741393863310E-01
(PID.TID 0001.0001) %MON extforcing_fu_min            =  -2.1551509637860E-01
(PID.TID 0001.0001) %MON extforcing_fu_mean           =  -4.3776146953145E-03
(PID.TID 0001.0001) %MON extforcing_fu_sd             =   6.4052942197041E-02
(PID.TID 0001.0001) %MON extforcing_fu_del2           =   2.8569921846899E-03
(PID.TID 0001.0001) %MON extforcing_fv_max            =   2.6354394672640E-01
(PID.TID 0001.0001) %MON extforcing_fv_min            =  -3.3007153975572E-01
(PID.TID 0001.0001) %MON extforcing_fv_mean           =  -1.3703040232921E-02
(PID.TID 0001.0001) %MON extforcing_fv_sd             =   7.5365931184747E-02
(PID.TID 0001.0001) %MON extforcing_fv_del2           =   3.0974698346221E-03
(PID.TID 0001.0001) %MON advcfl_uvel_max              =   8.1271613763006E-02
(PID.TID 0001.0001) %MON advcfl_vvel_max              =   7.6072669874460E-02
(PID.TID 0001.0001) %MON advcfl_wvel_max              =   6.6886389631896E-02
(PID.TID 0001.0001) %MON advcfl_W_hf_max              =   1.1884618518348E-01
(PID.TID 0001.0001) %MON pe_b_mean                    =   4.7727349509767E-04
(PID.TID 0001.0001) %MON ke_max                       =   4.0157792075135E-02
(PID.TID 0001.0001) %MON ke_mean                      =   1.4081381852480E-04
(PID.TID 0001.0001) %MON ke_vol                       =   1.3398024453628E+18
(PID.TID 0001.0001) %MON vort_r_min                   =  -1.2056443437332E-06
(PID.TID 0001.0001) %MON vort_r_max                   =   1.2217837158566E-06
(PID.TID 0001.0001) %MON vort_a_mean                  =  -2.0493733748264E-05
(PID.TID 0001.0001) %MON vort_a_sd                    =   7.5053947089418E-05
(PID.TID 0001.0001) %MON vort_p_mean                  =  -2.4715773614181E-05
(PID.TID 0001.0001) %MON vort_p_sd                    =   1.2777075984019E-04
(PID.TID 0001.0001) %MON surfExpan_theta_mean         =   4.6999546719135E-08
(PID.TID 0001.0001) %MON surfExpan_salt_mean          =   1.4148849444738E-08
(PID.TID 0001.0001) // =======================================================
(PID.TID 0001.0001) // End MONITOR dynamic field statistics
(PID.TID 0001.0001) // =======================================================
 DRIVER_GET_EXPORT_STATE_3D:MASK. This code is stubbed!
 DRIVER_SET_IMPORT_STATE_3D:SWHEAT. This code is stubbed!
 cg2d: Sum(rhs),rhsMax =  -9.69180291576777E-12  1.35679229555640E+00
(PID.TID 0001.0001)                    cg2d_init_res =    1.47645780973682E-01
(PID.TID 0001.0001)                       cg2d_iters =    62
(PID.TID 0001.0001)                         cg2d_res =    4.76399187732264E-07
(PID.TID 0001.0001) // =======================================================
(PID.TID 0001.0001) // Begin MONITOR dynamic field statistics
(PID.TID 0001.0001) // =======================================================
(PID.TID 0001.0001) %MON time_tsnumber                =                 72006
(PID.TID 0001.0001) %MON time_secondsf                =   6.2213184000000E+09
(PID.TID 0001.0001) %MON dynstat_eta_max              =   9.1257896979599E-01
(PID.TID 0001.0001) %MON dynstat_eta_min              =  -1.6151030464976E+00
(PID.TID 0001.0001) %MON dynstat_eta_mean             =   1.4180236508027E-14
(PID.TID 0001.0001) %MON dynstat_eta_sd               =   5.9845085992905E-01
(PID.TID 0001.0001) %MON dynstat_eta_del2             =   1.1245871136332E-02
(PID.TID 0001.0001) %MON dynstat_uvel_max             =   1.8782425621489E-01
(PID.TID 0001.0001) %MON dynstat_uvel_min             =  -2.8621350266828E-01
(PID.TID 0001.0001) %MON dynstat_uvel_mean            =  -4.8764634386710E-04
(PID.TID 0001.0001) %MON dynstat_uvel_sd              =   1.2017676133470E-02
(PID.TID 0001.0001) %MON dynstat_uvel_del2            =   1.5670837411077E-03
(PID.TID 0001.0001) %MON dynstat_vvel_max             =   1.7464794411065E-01
(PID.TID 0001.0001) %MON dynstat_vvel_min             =  -2.2498944510790E-01
(PID.TID 0001.0001) %MON dynstat_vvel_mean            =  -4.0317913725334E-04
(PID.TID 0001.0001) %MON dynstat_vvel_sd              =   1.2655146952380E-02
(PID.TID 0001.0001) %MON dynstat_vvel_del2            =   1.5907762120287E-03
(PID.TID 0001.0001) %MON dynstat_wvel_max             =   1.0438677674565E-04
(PID.TID 0001.0001) %MON dynstat_wvel_min             =  -2.0520796991118E-04
(PID.TID 0001.0001) %MON dynstat_wvel_mean            =   1.0334030410417E-10
(PID.TID 0001.0001) %MON dynstat_wvel_sd              =   3.8240663051028E-06
(PID.TID 0001.0001) %MON dynstat_wvel_del2            =   8.3598349986007E-07
(PID.TID 0001.0001) %MON dynstat_theta_max            =   3.1010765689035E+01
(PID.TID 0001.0001) %MON dynstat_theta_min            =  -3.1158504173634E+00
(PID.TID 0001.0001) %MON dynstat_theta_mean           =   3.9094772955623E+00
(PID.TID 0001.0001) %MON dynstat_theta_sd             =   4.5713369694756E+00
(PID.TID 0001.0001) %MON dynstat_theta_del2           =   8.7706536472367E-02
(PID.TID 0001.0001) %MON dynstat_salt_max             =   4.1389879299858E+01
(PID.TID 0001.0001) %MON dynstat_salt_min             =   1.8385217019039E+01
(PID.TID 0001.0001) %MON dynstat_salt_mean            =   3.4772071060093E+01
(PID.TID 0001.0001) %MON dynstat_salt_sd              =   5.3145602618204E-01
(PID.TID 0001.0001) %MON dynstat_salt_del2            =   1.8721073638385E-02
(PID.TID 0001.0001) %MON dynstat_sst_max              =   3.1010765689035E+01
(PID.TID 0001.0001) %MON dynstat_sst_min              =  -1.9726522048653E+00
(PID.TID 0001.0001) %MON dynstat_sst_mean             =   1.8142175771950E+01
(PID.TID 0001.0001) %MON dynstat_sst_sd               =   9.7761218855078E+00
(PID.TID 0001.0001) %MON dynstat_sst_del2             =   2.0441448436578E-01
(PID.TID 0001.0001) %MON dynstat_sss_max              =   4.1389879299858E+01
(PID.TID 0001.0001) %MON dynstat_sss_min              =   1.8385217019039E+01
(PID.TID 0001.0001) %MON dynstat_sss_mean             =   3.4630497758281E+01
(PID.TID 0001.0001) %MON dynstat_sss_sd               =   1.4663917619794E+00
(PID.TID 0001.0001) %MON dynstat_sss_del2             =   7.8800920323088E-02
(PID.TID 0001.0001) %MON extforcing_qnet_max          =   4.5297596329558E+02
(PID.TID 0001.0001) %MON extforcing_qnet_min          =  -2.1016397258453E+02
(PID.TID 0001.0001) %MON extforcing_qnet_mean         =  -1.2206964234860E+01
(PID.TID 0001.0001) %MON extforcing_qnet_sd           =   1.1469454835547E+02
(PID.TID 0001.0001) %MON extforcing_qnet_del2         =   5.1545071276621E+00
(PID.TID 0001.0001) %MON extforcing_qsw_max           =   0.0000000000000E+00
(PID.TID 0001.0001) %MON extforcing_qsw_min           =   0.0000000000000E+00
(PID.TID 0001.0001) %MON extforcing_qsw_mean          =   0.0000000000000E+00
(PID.TID 0001.0001) %MON extforcing_qsw_sd            =   0.0000000000000E+00
(PID.TID 0001.0001) %MON extforcing_qsw_del2          =   0.0000000000000E+00
(PID.TID 0001.0001) %MON extforcing_empmr_max         =   7.6494447208479E-08
(PID.TID 0001.0001) %MON extforcing_empmr_min         =  -1.5362614137596E-07
(PID.TID 0001.0001) %MON extforcing_empmr_mean        =  -2.0474999028391E-24
(PID.TID 0001.0001) %MON extforcing_empmr_sd          =   2.4051723601802E-08
(PID.TID 0001.0001) %MON extforcing_empmr_del2        =   1.2835223797615E-09
(PID.TID 0001.0001) %MON extforcing_fu_max            =   2.4736588936290E-01
(PID.TID 0001.0001) %MON extforcing_fu_min            =  -2.1866089303695E-01
(PID.TID 0001.0001) %MON extforcing_fu_mean           =  -4.3343115069977E-03
(PID.TID 0001.0001) %MON extforcing_fu_sd             =   6.4116502211485E-02
(PID.TID 0001.0001) %MON extforcing_fu_del2           =   2.8698392188247E-03
(PID.TID 0001.0001) %MON extforcing_fv_max            =   2.6622718829904E-01
(PID.TID 0001.0001) %MON extforcing_fv_min            =  -3.3085944368965E-01
(PID.TID 0001.0001) %MON extforcing_fv_mean           =  -1.3706982304712E-02
(PID.TID 0001.0001) %MON extforcing_fv_sd             =   7.5446563278070E-02
(PID.TID 0001.0001) %MON extforcing_fv_del2           =   3.1081795597654E-03
(PID.TID 0001.0001) %MON advcfl_uvel_max              =   8.1175578450933E-02
(PID.TID 0001.0001) %MON advcfl_vvel_max              =   7.6126578360189E-02
(PID.TID 0001.0001) %MON advcfl_wvel_max              =   6.6905541888021E-02
(PID.TID 0001.0001) %MON advcfl_W_hf_max              =   1.1807746865737E-01
(PID.TID 0001.0001) %MON pe_b_mean                    =   4.7711323459689E-04
(PID.TID 0001.0001) %MON ke_max                       =   4.0039438322768E-02
(PID.TID 0001.0001) %MON ke_mean                      =   1.4083368970804E-04
(PID.TID 0001.0001) %MON ke_vol                       =   1.3398024453628E+18
(PID.TID 0001.0001) %MON vort_r_min                   =  -1.2106669763976E-06
(PID.TID 0001.0001) %MON vort_r_max                   =   1.2238134611910E-06
(PID.TID 0001.0001) %MON vort_a_mean                  =  -2.0493733748264E-05
(PID.TID 0001.0001) %MON vort_a_sd                    =   7.5053946978930E-05
(PID.TID 0001.0001) %MON vort_p_mean                  =  -2.4715773599747E-05
(PID.TID 0001.0001) %MON vort_p_sd                    =   1.2777075625772E-04
(PID.TID 0001.0001) %MON surfExpan_theta_mean         =   4.7136295435361E-08
(PID.TID 0001.0001) %MON surfExpan_salt_mean          =   1.4177963864033E-08
(PID.TID 0001.0001) // =======================================================
(PID.TID 0001.0001) // End MONITOR dynamic field statistics
(PID.TID 0001.0001) // =======================================================
 DRIVER_GET_EXPORT_STATE_3D:MASK. This code is stubbed!
 DRIVER_SET_IMPORT_STATE_3D:SWHEAT. This code is stubbed!
 cg2d: Sum(rhs),rhsMax =  -9.40758582146373E-12  1.35785799724231E+00
(PID.TID 0001.0001)                    cg2d_init_res =    1.47496229593626E-01
(PID.TID 0001.0001)                       cg2d_iters =    62
(PID.TID 0001.0001)                         cg2d_res =    4.81222999011396E-07
(PID.TID 0001.0001) // =======================================================
(PID.TID 0001.0001) // Begin MONITOR dynamic field statistics
(PID.TID 0001.0001) // =======================================================
(PID.TID 0001.0001) %MON time_tsnumber                =                 72007
(PID.TID 0001.0001) %MON time_secondsf                =   6.2214048000000E+09
(PID.TID 0001.0001) %MON dynstat_eta_max              =   9.1111192616009E-01
(PID.TID 0001.0001) %MON dynstat_eta_min              =  -1.6146314193533E+00
(PID.TID 0001.0001) %MON dynstat_eta_mean             =   1.4564971607082E-14
(PID.TID 0001.0001) %MON dynstat_eta_sd               =   5.9835068013916E-01
(PID.TID 0001.0001) %MON dynstat_eta_del2             =   1.1246153222113E-02
(PID.TID 0001.0001) %MON dynstat_uvel_max             =   1.8783173164451E-01
(PID.TID 0001.0001) %MON dynstat_uvel_min             =  -2.8586067945559E-01
(PID.TID 0001.0001) %MON dynstat_uvel_mean            =  -4.8727009379638E-04
(PID.TID 0001.0001) %MON dynstat_uvel_sd              =   1.2016874638290E-02
(PID.TID 0001.0001) %MON dynstat_uvel_del2            =   1.5669233643247E-03
(PID.TID 0001.0001) %MON dynstat_vvel_max             =   1.7473987248926E-01
(PID.TID 0001.0001) %MON dynstat_vvel_min             =  -2.2492870335985E-01
(PID.TID 0001.0001) %MON dynstat_vvel_mean            =  -4.0285959864705E-04
(PID.TID 0001.0001) %MON dynstat_vvel_sd              =   1.2657384693324E-02
(PID.TID 0001.0001) %MON dynstat_vvel_del2            =   1.5902258805421E-03
(PID.TID 0001.0001) %MON dynstat_wvel_max             =   1.0477739207449E-04
(PID.TID 0001.0001) %MON dynstat_wvel_min             =  -2.0521143384640E-04
(PID.TID 0001.0001) %MON dynstat_wvel_mean            =   9.6791754036867E-11
(PID.TID 0001.0001) %MON dynstat_wvel_sd              =   3.8214353369685E-06
(PID.TID 0001.0001) %MON dynstat_wvel_del2            =   8.3543886518933E-07
(PID.TID 0001.0001) %MON dynstat_theta_max            =   3.1023238565112E+01
(PID.TID 0001.0001) %MON dynstat_theta_min            =  -3.1333562827375E+00
(PID.TID 0001.0001) %MON dynstat_theta_mean           =   3.9095354559607E+00
(PID.TID 0001.0001) %MON dynstat_theta_sd             =   4.5713914372246E+00
(PID.TID 0001.0001) %MON dynstat_theta_del2           =   8.7771293288825E-02
(PID.TID 0001.0001) %MON dynstat_salt_max             =   4.1390455844270E+01
(PID.TID 0001.0001) %MON dynstat_salt_min             =   1.8385540064962E+01
(PID.TID 0001.0001) %MON dynstat_salt_mean            =   3.4772071524658E+01
(PID.TID 0001.0001) %MON dynstat_salt_sd              =   5.3145557838003E-01
(PID.TID 0001.0001) %MON dynstat_salt_del2            =   1.8739144076836E-02
(PID.TID 0001.0001) %MON dynstat_sst_max              =   3.1023238565112E+01
(PID.TID 0001.0001) %MON dynstat_sst_min              =  -1.9748882148886E+00
(PID.TID 0001.0001) %MON dynstat_sst_mean             =   1.8146010403546E+01
(PID.TID 0001.0001) %MON dynstat_sst_sd               =   9.7734574081834E+00
(PID.TID 0001.0001) %MON dynstat_sst_del2             =   2.0512640052771E-01
(PID.TID 0001.0001) %MON dynstat_sss_max              =   4.1390455844270E+01
(PID.TID 0001.0001) %MON dynstat_sss_min              =   1.8385540064962E+01
(PID.TID 0001.0001) %MON dynstat_sss_mean             =   3.4630151893409E+01
(PID.TID 0001.0001) %MON dynstat_sss_sd               =   1.4662052950479E+00
(PID.TID 0001.0001) %MON dynstat_sss_del2             =   7.8942350832499E-02
(PID.TID 0001.0001) %MON extforcing_qnet_max          =   4.5288150232768E+02
(PID.TID 0001.0001) %MON extforcing_qnet_min          =  -2.0919161859792E+02
(PID.TID 0001.0001) %MON extforcing_qnet_mean         =  -1.2219192603503E+01
(PID.TID 0001.0001) %MON extforcing_qnet_sd           =   1.1452259813662E+02
(PID.TID 0001.0001) %MON extforcing_qnet_del2         =   5.1695089074038E+00
(PID.TID 0001.0001) %MON extforcing_qsw_max           =   0.0000000000000E+00
(PID.TID 0001.0001) %MON extforcing_qsw_min           =   0.0000000000000E+00
(PID.TID 0001.0001) %MON extforcing_qsw_mean          =   0.0000000000000E+00
(PID.TID 0001.0001) %MON extforcing_qsw_sd            =   0.0000000000000E+00
(PID.TID 0001.0001) %MON extforcing_qsw_del2          =   0.0000000000000E+00
(PID.TID 0001.0001) %MON extforcing_empmr_max         =   7.6494447208479E-08
(PID.TID 0001.0001) %MON extforcing_empmr_min         =  -1.5362614137596E-07
(PID.TID 0001.0001) %MON extforcing_empmr_mean        =  -2.4569998834069E-24
(PID.TID 0001.0001) %MON extforcing_empmr_sd          =   2.4051723601802E-08
(PID.TID 0001.0001) %MON extforcing_empmr_del2        =   1.2835223797615E-09
(PID.TID 0001.0001) %MON extforcing_fu_max            =   2.4731784009269E-01
(PID.TID 0001.0001) %MON extforcing_fu_min            =  -2.2180668969530E-01
(PID.TID 0001.0001) %MON extforcing_fu_mean           =  -4.2910072286703E-03
(PID.TID 0001.0001) %MON extforcing_fu_sd             =   6.4193415972630E-02
(PID.TID 0001.0001) %MON extforcing_fu_del2           =   2.8853598314048E-03
(PID.TID 0001.0001) %MON extforcing_fv_max            =   2.6891042987167E-01
(PID.TID 0001.0001) %MON extforcing_fv_min            =  -3.3164734762358E-01
(PID.TID 0001.0001) %MON extforcing_fv_mean           =  -1.3710924401185E-02
(PID.TID 0001.0001) %MON extforcing_fv_sd             =   7.5537432625065E-02
(PID.TID 0001.0001) %MON extforcing_fv_del2           =   3.1208426426516E-03
(PID.TID 0001.0001) %MON advcfl_uvel_max              =   8.1075511095221E-02
(PID.TID 0001.0001) %MON advcfl_vvel_max              =   7.6166648645317E-02
(PID.TID 0001.0001) %MON advcfl_wvel_max              =   6.6906671261619E-02
(PID.TID 0001.0001) %MON advcfl_W_hf_max              =   1.1723376298636E-01
(PID.TID 0001.0001) %MON pe_b_mean                    =   4.7695351186537E-04
(PID.TID 0001.0001) %MON ke_max                       =   3.9917948770025E-02
(PID.TID 0001.0001) %MON ke_mean                      =   1.4085083678252E-04
(PID.TID 0001.0001) %MON ke_vol                       =   1.3398024453628E+18
(PID.TID 0001.0001) %MON vort_r_min                   =  -1.2158750553322E-06
(PID.TID 0001.0001) %MON vort_r_max                   =   1.2259843225970E-06
(PID.TID 0001.0001) %MON vort_a_mean                  =  -2.0493733748264E-05
(PID.TID 0001.0001) %MON vort_a_sd                    =   7.5053946880955E-05
(PID.TID 0001.0001) %MON vort_p_mean                  =  -2.4715773583416E-05
(PID.TID 0001.0001) %MON vort_p_sd                    =   1.2777075291804E-04
(PID.TID 0001.0001) %MON surfExpan_theta_mean         =   4.7325180102088E-08
(PID.TID 0001.0001) %MON surfExpan_salt_mean          =   1.4202790357839E-08
(PID.TID 0001.0001) // =======================================================
(PID.TID 0001.0001) // End MONITOR dynamic field statistics
(PID.TID 0001.0001) // =======================================================
 DRIVER_GET_EXPORT_STATE_3D:MASK. This code is stubbed!
 DRIVER_SET_IMPORT_STATE_3D:SWHEAT. This code is stubbed!
 cg2d: Sum(rhs),rhsMax =  -9.72022462519817E-12  1.35915828898946E+00
(PID.TID 0001.0001)                    cg2d_init_res =    1.48359566324286E-01
(PID.TID 0001.0001)                       cg2d_iters =    62
(PID.TID 0001.0001)                         cg2d_res =    4.83509712404694E-07
(PID.TID 0001.0001) // =======================================================
(PID.TID 0001.0001) // Begin MONITOR dynamic field statistics
(PID.TID 0001.0001) // =======================================================
(PID.TID 0001.0001) %MON time_tsnumber                =                 72008
(PID.TID 0001.0001) %MON time_secondsf                =   6.2214912000000E+09
(PID.TID 0001.0001) %MON dynstat_eta_max              =   9.0967701044049E-01
(PID.TID 0001.0001) %MON dynstat_eta_min              =  -1.6141668643426E+00
(PID.TID 0001.0001) %MON dynstat_eta_mean             =   1.4510009450074E-14
(PID.TID 0001.0001) %MON dynstat_eta_sd               =   5.9825199755043E-01
(PID.TID 0001.0001) %MON dynstat_eta_del2             =   1.1246806834511E-02
(PID.TID 0001.0001) %MON dynstat_uvel_max             =   1.8777186409164E-01
(PID.TID 0001.0001) %MON dynstat_uvel_min             =  -2.8549349543018E-01
(PID.TID 0001.0001) %MON dynstat_uvel_mean            =  -4.8685708739649E-04
(PID.TID 0001.0001) %MON dynstat_uvel_sd              =   1.2016176264265E-02
(PID.TID 0001.0001) %MON dynstat_uvel_del2            =   1.5666555744836E-03
(PID.TID 0001.0001) %MON dynstat_vvel_max             =   1.7479933108586E-01
(PID.TID 0001.0001) %MON dynstat_vvel_min             =  -2.2486124326183E-01
(PID.TID 0001.0001) %MON dynstat_vvel_mean            =  -4.0249817451013E-04
(PID.TID 0001.0001) %MON dynstat_vvel_sd              =   1.2659286510450E-02
(PID.TID 0001.0001) %MON dynstat_vvel_del2            =   1.5897480569498E-03
(PID.TID 0001.0001) %MON dynstat_wvel_max             =   1.0520244778803E-04
(PID.TID 0001.0001) %MON dynstat_wvel_min             =  -2.0516002404678E-04
(PID.TID 0001.0001) %MON dynstat_wvel_mean            =   9.3423323129633E-11
(PID.TID 0001.0001) %MON dynstat_wvel_sd              =   3.8188320687441E-06
(PID.TID 0001.0001) %MON dynstat_wvel_del2            =   8.3501412832799E-07
(PID.TID 0001.0001) %MON dynstat_theta_max            =   3.1035280435649E+01
(PID.TID 0001.0001) %MON dynstat_theta_min            =  -3.1511127339667E+00
(PID.TID 0001.0001) %MON dynstat_theta_mean           =   3.9095937001319E+00
(PID.TID 0001.0001) %MON dynstat_theta_sd             =   4.5714533114831E+00
(PID.TID 0001.0001) %MON dynstat_theta_del2           =   8.7787457588397E-02
(PID.TID 0001.0001) %MON dynstat_salt_max             =   4.1391027417006E+01
(PID.TID 0001.0001) %MON dynstat_salt_min             =   1.8385868953863E+01
(PID.TID 0001.0001) %MON dynstat_salt_mean            =   3.4772072006315E+01
(PID.TID 0001.0001) %MON dynstat_salt_sd              =   5.3145585284567E-01
(PID.TID 0001.0001) %MON dynstat_salt_del2            =   1.8744068098325E-02
(PID.TID 0001.0001) %MON dynstat_sst_max              =   3.1035280435649E+01
(PID.TID 0001.0001) %MON dynstat_sst_min              =  -1.9771511500520E+00
(PID.TID 0001.0001) %MON dynstat_sst_mean             =   1.8149776963209E+01
(PID.TID 0001.0001) %MON dynstat_sst_sd               =   9.7710920618161E+00
(PID.TID 0001.0001) %MON dynstat_sst_del2             =   2.0540948273872E-01
(PID.TID 0001.0001) %MON dynstat_sss_max              =   4.1391027417006E+01
(PID.TID 0001.0001) %MON dynstat_sss_min              =   1.8385868953863E+01
(PID.TID 0001.0001) %MON dynstat_sss_mean             =   3.4629786782379E+01
(PID.TID 0001.0001) %MON dynstat_sss_sd               =   1.4659980187333E+00
(PID.TID 0001.0001) %MON dynstat_sss_del2             =   7.8963417370005E-02
(PID.TID 0001.0001) %MON extforcing_qnet_max          =   4.5278704135979E+02
(PID.TID 0001.0001) %MON extforcing_qnet_min          =  -2.0821926461131E+02
(PID.TID 0001.0001) %MON extforcing_qnet_mean         =  -1.2231420972146E+01
(PID.TID 0001.0001) %MON extforcing_qnet_sd           =   1.1435735176461E+02
(PID.TID 0001.0001) %MON extforcing_qnet_del2         =   5.1860981905024E+00
(PID.TID 0001.0001) %MON extforcing_qsw_max           =   0.0000000000000E+00
(PID.TID 0001.0001) %MON extforcing_qsw_min           =   0.0000000000000E+00
(PID.TID 0001.0001) %MON extforcing_qsw_mean          =   0.0000000000000E+00
(PID.TID 0001.0001) %MON extforcing_qsw_sd            =   0.0000000000000E+00
(PID.TID 0001.0001) %MON extforcing_qsw_del2          =   0.0000000000000E+00
(PID.TID 0001.0001) %MON extforcing_empmr_max         =   7.6494447208479E-08
(PID.TID 0001.0001) %MON extforcing_empmr_min         =  -1.5362614137596E-07
(PID.TID 0001.0001) %MON extforcing_empmr_mean        =  -2.0474999028391E-24
(PID.TID 0001.0001) %MON extforcing_empmr_sd          =   2.4051723601802E-08
(PID.TID 0001.0001) %MON extforcing_empmr_del2        =   1.2835223797615E-09
(PID.TID 0001.0001) %MON extforcing_fu_max            =   2.4726979082249E-01
(PID.TID 0001.0001) %MON extforcing_fu_min            =  -2.2495248635365E-01
(PID.TID 0001.0001) %MON extforcing_fu_mean           =  -4.2477003517959E-03
(PID.TID 0001.0001) %MON extforcing_fu_sd             =   6.4283635884264E-02
(PID.TID 0001.0001) %MON extforcing_fu_del2           =   2.9037002388747E-03
(PID.TID 0001.0001) %MON extforcing_fv_max            =   2.7159367144430E-01
(PID.TID 0001.0001) %MON extforcing_fv_min            =  -3.3243525155752E-01
(PID.TID 0001.0001) %MON extforcing_fv_mean           =  -1.3714867102427E-02
(PID.TID 0001.0001) %MON extforcing_fv_sd             =   7.5638502347231E-02
(PID.TID 0001.0001) %MON extforcing_fv_del2           =   3.1366984352921E-03
(PID.TID 0001.0001) %MON advcfl_uvel_max              =   8.0971370740616E-02
(PID.TID 0001.0001) %MON advcfl_vvel_max              =   7.6192565809909E-02
(PID.TID 0001.0001) %MON advcfl_wvel_max              =   6.6889909726950E-02
(PID.TID 0001.0001) %MON advcfl_W_hf_max              =   1.1631672063941E-01
(PID.TID 0001.0001) %MON pe_b_mean                    =   4.7679620235585E-04
(PID.TID 0001.0001) %MON ke_max                       =   3.9793355521884E-02
(PID.TID 0001.0001) %MON ke_mean                      =   1.4086515165958E-04
(PID.TID 0001.0001) %MON ke_vol                       =   1.3398024453628E+18
(PID.TID 0001.0001) %MON vort_r_min                   =  -1.2212368122103E-06
(PID.TID 0001.0001) %MON vort_r_max                   =   1.2282577547686E-06
(PID.TID 0001.0001) %MON vort_a_mean                  =  -2.0493733748264E-05
(PID.TID 0001.0001) %MON vort_a_sd                    =   7.5053946791388E-05
(PID.TID 0001.0001) %MON vort_p_mean                  =  -2.4715773566282E-05
(PID.TID 0001.0001) %MON vort_p_sd                    =   1.2777074984209E-04
(PID.TID 0001.0001) %MON surfExpan_theta_mean         =   4.7547405959946E-08
(PID.TID 0001.0001) %MON surfExpan_salt_mean          =   1.4233163939761E-08
(PID.TID 0001.0001) // =======================================================
(PID.TID 0001.0001) // End MONITOR dynamic field statistics
(PID.TID 0001.0001) // =======================================================
 DRIVER_GET_EXPORT_STATE_3D:MASK. This code is stubbed!
 DRIVER_SET_IMPORT_STATE_3D:SWHEAT. This code is stubbed!
 cg2d: Sum(rhs),rhsMax =  -9.37916411203332E-12  1.36038099314461E+00
(PID.TID 0001.0001)                    cg2d_init_res =    1.47101804032280E-01
(PID.TID 0001.0001)                       cg2d_iters =    62
(PID.TID 0001.0001)                         cg2d_res =    4.79974305095588E-07
(PID.TID 0001.0001) // =======================================================
(PID.TID 0001.0001) // Begin MONITOR dynamic field statistics
(PID.TID 0001.0001) // =======================================================
(PID.TID 0001.0001) %MON time_tsnumber                =                 72009
(PID.TID 0001.0001) %MON time_secondsf                =   6.2215776000000E+09
(PID.TID 0001.0001) %MON dynstat_eta_max              =   9.0826543052131E-01
(PID.TID 0001.0001) %MON dynstat_eta_min              =  -1.6137054566224E+00
(PID.TID 0001.0001) %MON dynstat_eta_mean             =   1.4235198665035E-14
(PID.TID 0001.0001) %MON dynstat_eta_sd               =   5.9815578815967E-01
(PID.TID 0001.0001) %MON dynstat_eta_del2             =   1.1247722894243E-02
(PID.TID 0001.0001) %MON dynstat_uvel_max             =   1.8764619150379E-01
(PID.TID 0001.0001) %MON dynstat_uvel_min             =  -2.8511178341554E-01
(PID.TID 0001.0001) %MON dynstat_uvel_mean            =  -4.8640097284712E-04
(PID.TID 0001.0001) %MON dynstat_uvel_sd              =   1.2015626848582E-02
(PID.TID 0001.0001) %MON dynstat_uvel_del2            =   1.5662903178634E-03
(PID.TID 0001.0001) %MON dynstat_vvel_max             =   1.7482565597958E-01
(PID.TID 0001.0001) %MON dynstat_vvel_min             =  -2.2478746880450E-01
(PID.TID 0001.0001) %MON dynstat_vvel_mean            =  -4.0211023995718E-04
(PID.TID 0001.0001) %MON dynstat_vvel_sd              =   1.2660802220499E-02
(PID.TID 0001.0001) %MON dynstat_vvel_del2            =   1.5892991330079E-03
(PID.TID 0001.0001) %MON dynstat_wvel_max             =   1.0565350689334E-04
(PID.TID 0001.0001) %MON dynstat_wvel_min             =  -2.0505453497603E-04
(PID.TID 0001.0001) %MON dynstat_wvel_mean            =   9.1442153270949E-11
(PID.TID 0001.0001) %MON dynstat_wvel_sd              =   3.8162893465379E-06
(PID.TID 0001.0001) %MON dynstat_wvel_del2            =   8.3461373148020E-07
(PID.TID 0001.0001) %MON dynstat_theta_max            =   3.1046905449872E+01
(PID.TID 0001.0001) %MON dynstat_theta_min            =  -3.1690941172888E+00
(PID.TID 0001.0001) %MON dynstat_theta_mean           =   3.9096520448298E+00
(PID.TID 0001.0001) %MON dynstat_theta_sd             =   4.5715205480743E+00
(PID.TID 0001.0001) %MON dynstat_theta_del2           =   8.7801542493846E-02
(PID.TID 0001.0001) %MON dynstat_salt_max             =   4.1391595023682E+01
(PID.TID 0001.0001) %MON dynstat_salt_min             =   1.8386203491242E+01
(PID.TID 0001.0001) %MON dynstat_salt_mean            =   3.4772072505222E+01
(PID.TID 0001.0001) %MON dynstat_salt_sd              =   5.3145532338218E-01
(PID.TID 0001.0001) %MON dynstat_salt_del2            =   1.8744487793001E-02
(PID.TID 0001.0001) %MON dynstat_sst_max              =   3.1046905449872E+01
(PID.TID 0001.0001) %MON dynstat_sst_min              =  -1.9792715426393E+00
(PID.TID 0001.0001) %MON dynstat_sst_mean             =   1.8153282621013E+01
(PID.TID 0001.0001) %MON dynstat_sst_sd               =   9.7689305749461E+00
(PID.TID 0001.0001) %MON dynstat_sst_del2             =   2.0577158095047E-01
(PID.TID 0001.0001) %MON dynstat_sss_max              =   4.1391595023682E+01
(PID.TID 0001.0001) %MON dynstat_sss_min              =   1.8386203491242E+01
(PID.TID 0001.0001) %MON dynstat_sss_mean             =   3.4629334139008E+01
(PID.TID 0001.0001) %MON dynstat_sss_sd               =   1.4657057665360E+00
(PID.TID 0001.0001) %MON dynstat_sss_del2             =   7.8989453373445E-02
(PID.TID 0001.0001) %MON extforcing_qnet_max          =   4.5269258039189E+02
(PID.TID 0001.0001) %MON extforcing_qnet_min          =  -2.0724691062470E+02
(PID.TID 0001.0001) %MON extforcing_qnet_mean         =  -1.2243649340789E+01
(PID.TID 0001.0001) %MON extforcing_qnet_sd           =   1.1419883834096E+02
(PID.TID 0001.0001) %MON extforcing_qnet_del2         =   5.2043145100996E+00
(PID.TID 0001.0001) %MON extforcing_qsw_max           =   0.0000000000000E+00
(PID.TID 0001.0001) %MON extforcing_qsw_min           =   0.0000000000000E+00
(PID.TID 0001.0001) %MON extforcing_qsw_mean          =   0.0000000000000E+00
(PID.TID 0001.0001) %MON extforcing_qsw_sd            =   0.0000000000000E+00
(PID.TID 0001.0001) %MON extforcing_qsw_del2          =   0.0000000000000E+00
(PID.TID 0001.0001) %MON extforcing_empmr_max         =   7.6494447208479E-08
(PID.TID 0001.0001) %MON extforcing_empmr_min         =  -1.5362614137596E-07
(PID.TID 0001.0001) %MON extforcing_empmr_mean        =  -2.0474999028391E-24
(PID.TID 0001.0001) %MON extforcing_empmr_sd          =   2.4051723601802E-08
(PID.TID 0001.0001) %MON extforcing_empmr_del2        =   1.2835223797615E-09
(PID.TID 0001.0001) %MON extforcing_fu_max            =   2.4722174155228E-01
(PID.TID 0001.0001) %MON extforcing_fu_min            =  -2.2809828301201E-01
(PID.TID 0001.0001) %MON extforcing_fu_mean           =  -4.2043898444263E-03
(PID.TID 0001.0001) %MON extforcing_fu_sd             =   6.4387106344864E-02
(PID.TID 0001.0001) %MON extforcing_fu_del2           =   2.9244427634377E-03
(PID.TID 0001.0001) %MON extforcing_fv_max            =   2.7427691301694E-01
(PID.TID 0001.0001) %MON extforcing_fv_min            =  -3.3322315549145E-01
(PID.TID 0001.0001) %MON extforcing_fv_mean           =  -1.3718810908760E-02
(PID.TID 0001.0001) %MON extforcing_fv_sd             =   7.5749731503217E-02
(PID.TID 0001.0001) %MON extforcing_fv_del2           =   3.1550918837147E-03
(PID.TID 0001.0001) %MON advcfl_uvel_max              =   8.0863109972689E-02
(PID.TID 0001.0001) %MON advcfl_vvel_max              =   7.6204040460212E-02
(PID.TID 0001.0001) %MON advcfl_wvel_max              =   6.6855516309166E-02
(PID.TID 0001.0001) %MON advcfl_W_hf_max              =   1.1532813261412E-01
(PID.TID 0001.0001) %MON pe_b_mean                    =   4.7664286034011E-04
(PID.TID 0001.0001) %MON ke_max                       =   3.9665680676138E-02
(PID.TID 0001.0001) %MON ke_mean                      =   1.4087655166031E-04
(PID.TID 0001.0001) %MON ke_vol                       =   1.3398024453628E+18
(PID.TID 0001.0001) %MON vort_r_min                   =  -1.2267207758784E-06
(PID.TID 0001.0001) %MON vort_r_max                   =   1.2306037999943E-06
(PID.TID 0001.0001) %MON vort_a_mean                  =  -2.0493733748264E-05
(PID.TID 0001.0001) %MON vort_a_sd                    =   7.5053946706680E-05
(PID.TID 0001.0001) %MON vort_p_mean                  =  -2.4715773549124E-05
(PID.TID 0001.0001) %MON vort_p_sd                    =   1.2777074705064E-04
(PID.TID 0001.0001) %MON surfExpan_theta_mean         =   4.7748248748072E-08
(PID.TID 0001.0001) %MON surfExpan_salt_mean          =   1.4270296255769E-08
(PID.TID 0001.0001) // =======================================================
(PID.TID 0001.0001) // End MONITOR dynamic field statistics
(PID.TID 0001.0001) // =======================================================
 DRIVER_GET_EXPORT_STATE_3D:MASK. This code is stubbed!
 DRIVER_SET_IMPORT_STATE_3D:SWHEAT. This code is stubbed!
 cg2d: Sum(rhs),rhsMax =  -9.37916411203332E-12  1.36177199129824E+00
(PID.TID 0001.0001)                    cg2d_init_res =    1.46717102861609E-01
(PID.TID 0001.0001)                       cg2d_iters =    62
(PID.TID 0001.0001)                         cg2d_res =    4.75244422806052E-07
(PID.TID 0001.0001) // =======================================================
(PID.TID 0001.0001) // Begin MONITOR dynamic field statistics
(PID.TID 0001.0001) // =======================================================
(PID.TID 0001.0001) %MON time_tsnumber                =                 72010
(PID.TID 0001.0001) %MON time_secondsf                =   6.2216640000000E+09
(PID.TID 0001.0001) %MON dynstat_eta_max              =   9.0687654862482E-01
(PID.TID 0001.0001) %MON dynstat_eta_min              =  -1.6132431841163E+00
(PID.TID 0001.0001) %MON dynstat_eta_mean             =   1.4482528371570E-14
(PID.TID 0001.0001) %MON dynstat_eta_sd               =   5.9806230762463E-01
(PID.TID 0001.0001) %MON dynstat_eta_del2             =   1.1248727424406E-02
(PID.TID 0001.0001) %MON dynstat_uvel_max             =   1.8745713918272E-01
(PID.TID 0001.0001) %MON dynstat_uvel_min             =  -2.8471537239746E-01
(PID.TID 0001.0001) %MON dynstat_uvel_mean            =  -4.8589744501434E-04
(PID.TID 0001.0001) %MON dynstat_uvel_sd              =   1.2015260903774E-02
(PID.TID 0001.0001) %MON dynstat_uvel_del2            =   1.5658993835062E-03
(PID.TID 0001.0001) %MON dynstat_vvel_max             =   1.7481828347479E-01
(PID.TID 0001.0001) %MON dynstat_vvel_min             =  -2.2470778037951E-01
(PID.TID 0001.0001) %MON dynstat_vvel_mean            =  -4.0171124370485E-04
(PID.TID 0001.0001) %MON dynstat_vvel_sd              =   1.2661895424890E-02
(PID.TID 0001.0001) %MON dynstat_vvel_del2            =   1.5887888862463E-03
(PID.TID 0001.0001) %MON dynstat_wvel_max             =   1.0612164206924E-04
(PID.TID 0001.0001) %MON dynstat_wvel_min             =  -2.0489618003024E-04
(PID.TID 0001.0001) %MON dynstat_wvel_mean            =   8.8836805984468E-11
(PID.TID 0001.0001) %MON dynstat_wvel_sd              =   3.8138305374822E-06
(PID.TID 0001.0001) %MON dynstat_wvel_del2            =   8.3439243969298E-07
(PID.TID 0001.0001) %MON dynstat_theta_max            =   3.1058126752055E+01
(PID.TID 0001.0001) %MON dynstat_theta_min            =  -3.1872752498754E+00
(PID.TID 0001.0001) %MON dynstat_theta_mean           =   3.9097105502924E+00
(PID.TID 0001.0001) %MON dynstat_theta_sd             =   4.5715944465717E+00
(PID.TID 0001.0001) %MON dynstat_theta_del2           =   8.7815769274904E-02
(PID.TID 0001.0001) %MON dynstat_salt_max             =   4.1392158840263E+01
(PID.TID 0001.0001) %MON dynstat_salt_min             =   1.8386543563705E+01
(PID.TID 0001.0001) %MON dynstat_salt_mean            =   3.4772073023066E+01
(PID.TID 0001.0001) %MON dynstat_salt_sd              =   5.3145483181036E-01
(PID.TID 0001.0001) %MON dynstat_salt_del2            =   1.8744477729675E-02
(PID.TID 0001.0001) %MON dynstat_sst_max              =   3.1058126752055E+01
(PID.TID 0001.0001) %MON dynstat_sst_min              =  -1.9803570672603E+00
(PID.TID 0001.0001) %MON dynstat_sst_mean             =   1.8156968178102E+01
(PID.TID 0001.0001) %MON dynstat_sst_sd               =   9.7668975386556E+00
(PID.TID 0001.0001) %MON dynstat_sst_del2             =   2.0593408426424E-01
(PID.TID 0001.0001) %MON dynstat_sss_max              =   4.1392158840263E+01
(PID.TID 0001.0001) %MON dynstat_sss_min              =   1.8386543563705E+01
(PID.TID 0001.0001) %MON dynstat_sss_mean             =   3.4628910505984E+01
(PID.TID 0001.0001) %MON dynstat_sss_sd               =   1.4654432764327E+00
(PID.TID 0001.0001) %MON dynstat_sss_del2             =   7.9020357298583E-02
(PID.TID 0001.0001) %MON extforcing_qnet_max          =   4.5259811942399E+02
(PID.TID 0001.0001) %MON extforcing_qnet_min          =  -2.0627455663810E+02
(PID.TID 0001.0001) %MON extforcing_qnet_mean         =  -1.2255877709432E+01
(PID.TID 0001.0001) %MON extforcing_qnet_sd           =   1.1404708593992E+02
(PID.TID 0001.0001) %MON extforcing_qnet_del2         =   5.2241850533735E+00
(PID.TID 0001.0001) %MON extforcing_qsw_max           =   0.0000000000000E+00
(PID.TID 0001.0001) %MON extforcing_qsw_min           =   0.0000000000000E+00
(PID.TID 0001.0001) %MON extforcing_qsw_mean          =   0.0000000000000E+00
(PID.TID 0001.0001) %MON extforcing_qsw_sd            =   0.0000000000000E+00
(PID.TID 0001.0001) %MON extforcing_qsw_del2          =   0.0000000000000E+00
(PID.TID 0001.0001) %MON extforcing_empmr_max         =   7.6494447208479E-08
(PID.TID 0001.0001) %MON extforcing_empmr_min         =  -1.5362614137596E-07
(PID.TID 0001.0001) %MON extforcing_empmr_mean        =  -2.0474999028391E-24
(PID.TID 0001.0001) %MON extforcing_empmr_sd          =   2.4051723601802E-08
(PID.TID 0001.0001) %MON extforcing_empmr_del2        =   1.2835223797615E-09
(PID.TID 0001.0001) %MON extforcing_fu_max            =   2.4734156444157E-01
(PID.TID 0001.0001) %MON extforcing_fu_min            =  -2.3124407967036E-01
(PID.TID 0001.0001) %MON extforcing_fu_mean           =  -4.1610752296208E-03
(PID.TID 0001.0001) %MON extforcing_fu_sd             =   6.4503763910952E-02
(PID.TID 0001.0001) %MON extforcing_fu_del2           =   2.9481834895043E-03
(PID.TID 0001.0001) %MON extforcing_fv_max            =   2.7696015458957E-01
(PID.TID 0001.0001) %MON extforcing_fv_min            =  -3.3401105942538E-01
(PID.TID 0001.0001) %MON extforcing_fv_mean           =  -1.3722756071298E-02
(PID.TID 0001.0001) %MON extforcing_fv_sd             =   7.5871075229986E-02
(PID.TID 0001.0001) %MON extforcing_fv_del2           =   3.1753772533366E-03
(PID.TID 0001.0001) %MON advcfl_uvel_max              =   8.0750680288566E-02
(PID.TID 0001.0001) %MON advcfl_vvel_max              =   7.6200826889240E-02
(PID.TID 0001.0001) %MON advcfl_wvel_max              =   6.6803886621180E-02
(PID.TID 0001.0001) %MON advcfl_W_hf_max              =   1.1426988955422E-01
(PID.TID 0001.0001) %MON pe_b_mean                    =   4.7649389129629E-04
(PID.TID 0001.0001) %MON ke_max                       =   3.9534941510922E-02
(PID.TID 0001.0001) %MON ke_mean                      =   1.4088499204145E-04
(PID.TID 0001.0001) %MON ke_vol                       =   1.3398024453628E+18
(PID.TID 0001.0001) %MON vort_r_min                   =  -1.2322959159546E-06
(PID.TID 0001.0001) %MON vort_r_max                   =   1.2329783241618E-06
(PID.TID 0001.0001) %MON vort_a_mean                  =  -2.0493733748264E-05
(PID.TID 0001.0001) %MON vort_a_sd                    =   7.5053946624006E-05
(PID.TID 0001.0001) %MON vort_p_mean                  =  -2.4715773532078E-05
(PID.TID 0001.0001) %MON vort_p_sd                    =   1.2777074455380E-04
(PID.TID 0001.0001) %MON surfExpan_theta_mean         =   4.7886943223052E-08
(PID.TID 0001.0001) %MON surfExpan_salt_mean          =   1.4315226381247E-08
(PID.TID 0001.0001) // =======================================================
(PID.TID 0001.0001) // End MONITOR dynamic field statistics
(PID.TID 0001.0001) // =======================================================
 DRIVER_GET_EXPORT_STATE_3D:MASK. This code is stubbed!
 DRIVER_SET_IMPORT_STATE_3D:SWHEAT. This code is stubbed!
 cg2d: Sum(rhs),rhsMax =  -9.66338120633736E-12  1.36304365256493E+00
(PID.TID 0001.0001)                    cg2d_init_res =    1.46512539530251E-01
(PID.TID 0001.0001)                       cg2d_iters =    62
(PID.TID 0001.0001)                         cg2d_res =    4.73416099669091E-07
(PID.TID 0001.0001) // =======================================================
(PID.TID 0001.0001) // Begin MONITOR dynamic field statistics
(PID.TID 0001.0001) // =======================================================
(PID.TID 0001.0001) %MON time_tsnumber                =                 72011
(PID.TID 0001.0001) %MON time_secondsf                =   6.2217504000000E+09
(PID.TID 0001.0001) %MON dynstat_eta_max              =   9.0551172639231E-01
(PID.TID 0001.0001) %MON dynstat_eta_min              =  -1.6127756955361E+00
(PID.TID 0001.0001) %MON dynstat_eta_mean             =   1.4427566214562E-14
(PID.TID 0001.0001) %MON dynstat_eta_sd               =   5.9797135790062E-01
(PID.TID 0001.0001) %MON dynstat_eta_del2             =   1.1249663460318E-02
(PID.TID 0001.0001) %MON dynstat_uvel_max             =   1.8720797904383E-01
(PID.TID 0001.0001) %MON dynstat_uvel_min             =  -2.8430410290202E-01
(PID.TID 0001.0001) %MON dynstat_uvel_mean            =  -4.8534642785677E-04
(PID.TID 0001.0001) %MON dynstat_uvel_sd              =   1.2015099893916E-02
(PID.TID 0001.0001) %MON dynstat_uvel_del2            =   1.5655537841967E-03
(PID.TID 0001.0001) %MON dynstat_vvel_max             =   1.7477681849928E-01
(PID.TID 0001.0001) %MON dynstat_vvel_min             =  -2.2462255997397E-01
(PID.TID 0001.0001) %MON dynstat_vvel_mean            =  -4.0131222718562E-04
(PID.TID 0001.0001) %MON dynstat_vvel_sd              =   1.2662544677936E-02
(PID.TID 0001.0001) %MON dynstat_vvel_del2            =   1.5884848354400E-03
(PID.TID 0001.0001) %MON dynstat_wvel_max             =   1.0659770590171E-04
(PID.TID 0001.0001) %MON dynstat_wvel_min             =  -2.0468706662652E-04
(PID.TID 0001.0001) %MON dynstat_wvel_mean            =   8.4818998558824E-11
(PID.TID 0001.0001) %MON dynstat_wvel_sd              =   3.8114674404208E-06
(PID.TID 0001.0001) %MON dynstat_wvel_del2            =   8.3428905078141E-07
(PID.TID 0001.0001) %MON dynstat_theta_max            =   3.1068956475418E+01
(PID.TID 0001.0001) %MON dynstat_theta_min            =  -3.2056320313187E+00
(PID.TID 0001.0001) %MON dynstat_theta_mean           =   3.9097691729192E+00
(PID.TID 0001.0001) %MON dynstat_theta_sd             =   4.5716740772874E+00
(PID.TID 0001.0001) %MON dynstat_theta_del2           =   8.7805470952619E-02
(PID.TID 0001.0001) %MON dynstat_salt_max             =   4.1392718273984E+01
(PID.TID 0001.0001) %MON dynstat_salt_min             =   1.8386889069009E+01
(PID.TID 0001.0001) %MON dynstat_salt_mean            =   3.4772073559396E+01
(PID.TID 0001.0001) %MON dynstat_salt_sd              =   5.3145384857268E-01
(PID.TID 0001.0001) %MON dynstat_salt_del2            =   1.8740322276540E-02
(PID.TID 0001.0001) %MON dynstat_sst_max              =   3.1068956475418E+01
(PID.TID 0001.0001) %MON dynstat_sst_min              =  -1.9825904875693E+00
(PID.TID 0001.0001) %MON dynstat_sst_mean             =   1.8160886428397E+01
(PID.TID 0001.0001) %MON dynstat_sst_sd               =   9.7649415691655E+00
(PID.TID 0001.0001) %MON dynstat_sst_del2             =   2.0600141645234E-01
(PID.TID 0001.0001) %MON dynstat_sss_max              =   4.1392718273984E+01
(PID.TID 0001.0001) %MON dynstat_sss_min              =   1.8386889069009E+01
(PID.TID 0001.0001) %MON dynstat_sss_mean             =   3.4628545503243E+01
(PID.TID 0001.0001) %MON dynstat_sss_sd               =   1.4652170326161E+00
(PID.TID 0001.0001) %MON dynstat_sss_del2             =   7.9035941305920E-02
(PID.TID 0001.0001) %MON extforcing_qnet_max          =   4.5250365845610E+02
(PID.TID 0001.0001) %MON extforcing_qnet_min          =  -2.0572520854632E+02
(PID.TID 0001.0001) %MON extforcing_qnet_mean         =  -1.2268106078075E+01
(PID.TID 0001.0001) %MON extforcing_qnet_sd           =   1.1390212158476E+02
(PID.TID 0001.0001) %MON extforcing_qnet_del2         =   5.2461338922339E+00
(PID.TID 0001.0001) %MON extforcing_qsw_max           =   0.0000000000000E+00
(PID.TID 0001.0001) %MON extforcing_qsw_min           =   0.0000000000000E+00
(PID.TID 0001.0001) %MON extforcing_qsw_mean          =   0.0000000000000E+00
(PID.TID 0001.0001) %MON extforcing_qsw_sd            =   0.0000000000000E+00
(PID.TID 0001.0001) %MON extforcing_qsw_del2          =   0.0000000000000E+00
(PID.TID 0001.0001) %MON extforcing_empmr_max         =   7.6494447208479E-08
(PID.TID 0001.0001) %MON extforcing_empmr_min         =  -1.5362614137596E-07
(PID.TID 0001.0001) %MON extforcing_empmr_mean        =  -2.0474999028391E-24
(PID.TID 0001.0001) %MON extforcing_empmr_sd          =   2.4051723601802E-08
(PID.TID 0001.0001) %MON extforcing_empmr_del2        =   1.2835223797615E-09
(PID.TID 0001.0001) %MON extforcing_fu_max            =   2.4760593894036E-01
(PID.TID 0001.0001) %MON extforcing_fu_min            =  -2.3438987632871E-01
(PID.TID 0001.0001) %MON extforcing_fu_mean           =  -4.1177565143205E-03
(PID.TID 0001.0001) %MON extforcing_fu_sd             =   6.4633537450252E-02
(PID.TID 0001.0001) %MON extforcing_fu_del2           =   2.9747076000681E-03
(PID.TID 0001.0001) %MON extforcing_fv_max            =   2.7964339616220E-01
(PID.TID 0001.0001) %MON extforcing_fv_min            =  -3.3479896335931E-01
(PID.TID 0001.0001) %MON extforcing_fv_mean           =  -1.3726702601535E-02
(PID.TID 0001.0001) %MON extforcing_fv_sd             =   7.6002484915427E-02
(PID.TID 0001.0001) %MON extforcing_fv_del2           =   3.1979837541252E-03
(PID.TID 0001.0001) %MON advcfl_uvel_max              =   8.0634036458417E-02
(PID.TID 0001.0001) %MON advcfl_vvel_max              =   7.6182752890581E-02
(PID.TID 0001.0001) %MON advcfl_wvel_max              =   6.6735707760497E-02
(PID.TID 0001.0001) %MON advcfl_W_hf_max              =   1.1314396552677E-01
(PID.TID 0001.0001) %MON pe_b_mean                    =   4.7634897765723E-04
(PID.TID 0001.0001) %MON ke_max                       =   3.9401154662126E-02
(PID.TID 0001.0001) %MON ke_mean                      =   1.4089046019752E-04
(PID.TID 0001.0001) %MON ke_vol                       =   1.3398024453628E+18
(PID.TID 0001.0001) %MON vort_r_min                   =  -1.2379317896803E-06
(PID.TID 0001.0001) %MON vort_r_max                   =   1.2353540834698E-06
(PID.TID 0001.0001) %MON vort_a_mean                  =  -2.0493733748264E-05
(PID.TID 0001.0001) %MON vort_a_sd                    =   7.5053946541694E-05
(PID.TID 0001.0001) %MON vort_p_mean                  =  -2.4715773514873E-05
(PID.TID 0001.0001) %MON vort_p_sd                    =   1.2777074233098E-04
(PID.TID 0001.0001) %MON surfExpan_theta_mean         =   4.7948378487193E-08
(PID.TID 0001.0001) %MON surfExpan_salt_mean          =   1.4365720250839E-08
(PID.TID 0001.0001) // =======================================================
(PID.TID 0001.0001) // End MONITOR dynamic field statistics
(PID.TID 0001.0001) // =======================================================
 DRIVER_GET_EXPORT_STATE_3D:MASK. This code is stubbed!
 DRIVER_SET_IMPORT_STATE_3D:SWHEAT. This code is stubbed!
 cg2d: Sum(rhs),rhsMax =  -9.77706804405898E-12  1.36444455025329E+00
(PID.TID 0001.0001)                    cg2d_init_res =    1.47210828982586E-01
(PID.TID 0001.0001)                       cg2d_iters =    62
(PID.TID 0001.0001)                         cg2d_res =    4.73472274591566E-07
(PID.TID 0001.0001) // =======================================================
(PID.TID 0001.0001) // Begin MONITOR dynamic field statistics
(PID.TID 0001.0001) // =======================================================
(PID.TID 0001.0001) %MON time_tsnumber                =                 72012
(PID.TID 0001.0001) %MON time_secondsf                =   6.2218368000000E+09
(PID.TID 0001.0001) %MON dynstat_eta_max              =   9.0418051765222E-01
(PID.TID 0001.0001) %MON dynstat_eta_min              =  -1.6122986990185E+00
(PID.TID 0001.0001) %MON dynstat_eta_mean             =   1.4290160822043E-14
(PID.TID 0001.0001) %MON dynstat_eta_sd               =   5.9788254428282E-01
(PID.TID 0001.0001) %MON dynstat_eta_del2             =   1.1251053305532E-02
(PID.TID 0001.0001) %MON dynstat_uvel_max             =   1.8690277251619E-01
(PID.TID 0001.0001) %MON dynstat_uvel_min             =  -2.8387783763052E-01
(PID.TID 0001.0001) %MON dynstat_uvel_mean            =  -4.8475230143869E-04
(PID.TID 0001.0001) %MON dynstat_uvel_sd              =   1.2015150782899E-02
(PID.TID 0001.0001) %MON dynstat_uvel_del2            =   1.5651591072782E-03
(PID.TID 0001.0001) %MON dynstat_vvel_max             =   1.7470110465294E-01
(PID.TID 0001.0001) %MON dynstat_vvel_min             =  -2.2453216881959E-01
(PID.TID 0001.0001) %MON dynstat_vvel_mean            =  -4.0091844641205E-04
(PID.TID 0001.0001) %MON dynstat_vvel_sd              =   1.2662744541157E-02
(PID.TID 0001.0001) %MON dynstat_vvel_del2            =   1.5881987993223E-03
(PID.TID 0001.0001) %MON dynstat_wvel_max             =   1.0707238948075E-04
(PID.TID 0001.0001) %MON dynstat_wvel_min             =  -2.0442992802300E-04
(PID.TID 0001.0001) %MON dynstat_wvel_mean            =   7.9019952531888E-11
(PID.TID 0001.0001) %MON dynstat_wvel_sd              =   3.8092014170462E-06
(PID.TID 0001.0001) %MON dynstat_wvel_del2            =   8.3440727986694E-07
(PID.TID 0001.0001) %MON dynstat_theta_max            =   3.1079405742170E+01
(PID.TID 0001.0001) %MON dynstat_theta_min            =  -3.2241412292569E+00
(PID.TID 0001.0001) %MON dynstat_theta_mean           =   3.9098278638138E+00
(PID.TID 0001.0001) %MON dynstat_theta_sd             =   4.5717587312720E+00
(PID.TID 0001.0001) %MON dynstat_theta_del2           =   8.7790841098312E-02
(PID.TID 0001.0001) %MON dynstat_salt_max             =   4.1393272401242E+01
(PID.TID 0001.0001) %MON dynstat_salt_min             =   1.8387239930605E+01
(PID.TID 0001.0001) %MON dynstat_salt_mean            =   3.4772074113313E+01
(PID.TID 0001.0001) %MON dynstat_salt_sd              =   5.3145203910619E-01
(PID.TID 0001.0001) %MON dynstat_salt_del2            =   1.8742622379340E-02
(PID.TID 0001.0001) %MON dynstat_sst_max              =   3.1079405742170E+01
(PID.TID 0001.0001) %MON dynstat_sst_min              =  -1.9843358198826E+00
(PID.TID 0001.0001) %MON dynstat_sst_mean             =   1.8164834293159E+01
(PID.TID 0001.0001) %MON dynstat_sst_sd               =   9.7631071017870E+00
(PID.TID 0001.0001) %MON dynstat_sst_del2             =   2.0608946203807E-01
(PID.TID 0001.0001) %MON dynstat_sss_max              =   4.1393272401242E+01
(PID.TID 0001.0001) %MON dynstat_sss_min              =   1.8387239930605E+01
(PID.TID 0001.0001) %MON dynstat_sss_mean             =   3.4628168790945E+01
(PID.TID 0001.0001) %MON dynstat_sss_sd               =   1.4649956191469E+00
(PID.TID 0001.0001) %MON dynstat_sss_del2             =   7.9054110636000E-02
(PID.TID 0001.0001) %MON extforcing_qnet_max          =   4.5240919748820E+02
(PID.TID 0001.0001) %MON extforcing_qnet_min          =  -2.0540092066247E+02
(PID.TID 0001.0001) %MON extforcing_qnet_mean         =  -1.2280334446718E+01
(PID.TID 0001.0001) %MON extforcing_qnet_sd           =   1.1376397122458E+02
(PID.TID 0001.0001) %MON extforcing_qnet_del2         =   5.2699141835676E+00
(PID.TID 0001.0001) %MON extforcing_qsw_max           =   0.0000000000000E+00
(PID.TID 0001.0001) %MON extforcing_qsw_min           =   0.0000000000000E+00
(PID.TID 0001.0001) %MON extforcing_qsw_mean          =   0.0000000000000E+00
(PID.TID 0001.0001) %MON extforcing_qsw_sd            =   0.0000000000000E+00
(PID.TID 0001.0001) %MON extforcing_qsw_del2          =   0.0000000000000E+00
(PID.TID 0001.0001) %MON extforcing_empmr_max         =   7.6494447208479E-08
(PID.TID 0001.0001) %MON extforcing_empmr_min         =  -1.5362614137596E-07
(PID.TID 0001.0001) %MON extforcing_empmr_mean        =  -2.0474999028391E-24
(PID.TID 0001.0001) %MON extforcing_empmr_sd          =   2.4051723601802E-08
(PID.TID 0001.0001) %MON extforcing_empmr_del2        =   1.2835223797615E-09
(PID.TID 0001.0001) %MON extforcing_fu_max            =   2.4787031343914E-01
(PID.TID 0001.0001) %MON extforcing_fu_min            =  -2.3765894517478E-01
(PID.TID 0001.0001) %MON extforcing_fu_mean           =  -4.0744340653526E-03
(PID.TID 0001.0001) %MON extforcing_fu_sd             =   6.4776348314565E-02
(PID.TID 0001.0001) %MON extforcing_fu_del2           =   3.0033747176873E-03
(PID.TID 0001.0001) %MON extforcing_fv_max            =   2.8232663773484E-01
(PID.TID 0001.0001) %MON extforcing_fv_min            =  -3.3558686729325E-01
(PID.TID 0001.0001) %MON extforcing_fv_mean           =  -1.3730650311857E-02
(PID.TID 0001.0001) %MON extforcing_fv_sd             =   7.6143908347630E-02
(PID.TID 0001.0001) %MON extforcing_fv_del2           =   3.2229472966848E-03
(PID.TID 0001.0001) %MON advcfl_uvel_max              =   8.0513139541726E-02
(PID.TID 0001.0001) %MON advcfl_vvel_max              =   7.6149750291634E-02
(PID.TID 0001.0001) %MON advcfl_wvel_max              =   6.6651870872404E-02
(PID.TID 0001.0001) %MON advcfl_W_hf_max              =   1.1291703259654E-01
(PID.TID 0001.0001) %MON pe_b_mean                    =   4.7620748882597E-04
(PID.TID 0001.0001) %MON ke_max                       =   3.9264338965979E-02
(PID.TID 0001.0001) %MON ke_mean                      =   1.4089297203555E-04
(PID.TID 0001.0001) %MON ke_vol                       =   1.3398024453628E+18
(PID.TID 0001.0001) %MON vort_r_min                   =  -1.2435987191117E-06
(PID.TID 0001.0001) %MON vort_r_max                   =   1.2376813326936E-06
(PID.TID 0001.0001) %MON vort_a_mean                  =  -2.0493733748264E-05
(PID.TID 0001.0001) %MON vort_a_sd                    =   7.5053946458944E-05
(PID.TID 0001.0001) %MON vort_p_mean                  =  -2.4715773497159E-05
(PID.TID 0001.0001) %MON vort_p_sd                    =   1.2777074033325E-04
(PID.TID 0001.0001) %MON surfExpan_theta_mean         =   4.7929838989620E-08
(PID.TID 0001.0001) %MON surfExpan_salt_mean          =   1.4414418512334E-08
(PID.TID 0001.0001) // =======================================================
(PID.TID 0001.0001) // End MONITOR dynamic field statistics
(PID.TID 0001.0001) // =======================================================
 DRIVER_GET_EXPORT_STATE_3D:MASK. This code is stubbed!
 DRIVER_SET_IMPORT_STATE_3D:SWHEAT. This code is stubbed!
 cg2d: Sum(rhs),rhsMax =  -9.72022462519817E-12  1.36569145537982E+00
(PID.TID 0001.0001)                    cg2d_init_res =    1.48181396480634E-01
(PID.TID 0001.0001)                       cg2d_iters =    62
(PID.TID 0001.0001)                         cg2d_res =    4.73269143231198E-07
(PID.TID 0001.0001) // =======================================================
(PID.TID 0001.0001) // Begin MONITOR dynamic field statistics
(PID.TID 0001.0001) // =======================================================
(PID.TID 0001.0001) %MON time_tsnumber                =                 72013
(PID.TID 0001.0001) %MON time_secondsf                =   6.2219232000000E+09
(PID.TID 0001.0001) %MON dynstat_eta_max              =   9.0288506705106E-01
(PID.TID 0001.0001) %MON dynstat_eta_min              =  -1.6118087383729E+00
(PID.TID 0001.0001) %MON dynstat_eta_mean             =   1.4345122979050E-14
(PID.TID 0001.0001) %MON dynstat_eta_sd               =   5.9779561023082E-01
(PID.TID 0001.0001) %MON dynstat_eta_del2             =   1.1253344955749E-02
(PID.TID 0001.0001) %MON dynstat_uvel_max             =   1.8654630112384E-01
(PID.TID 0001.0001) %MON dynstat_uvel_min             =  -2.8343646782185E-01
(PID.TID 0001.0001) %MON dynstat_uvel_mean            =  -4.8412240987323E-04
(PID.TID 0001.0001) %MON dynstat_uvel_sd              =   1.2015408097139E-02
(PID.TID 0001.0001) %MON dynstat_uvel_del2            =   1.5647098416065E-03
(PID.TID 0001.0001) %MON dynstat_vvel_max             =   1.7459127696805E-01
(PID.TID 0001.0001) %MON dynstat_vvel_min             =  -2.2443695002688E-01
(PID.TID 0001.0001) %MON dynstat_vvel_mean            =  -4.0052960668206E-04
(PID.TID 0001.0001) %MON dynstat_vvel_sd              =   1.2662503184442E-02
(PID.TID 0001.0001) %MON dynstat_vvel_del2            =   1.5879685935523E-03
(PID.TID 0001.0001) %MON dynstat_wvel_max             =   1.0753647788324E-04
(PID.TID 0001.0001) %MON dynstat_wvel_min             =  -2.0412809833098E-04
(PID.TID 0001.0001) %MON dynstat_wvel_mean            =   7.1488281114923E-11
(PID.TID 0001.0001) %MON dynstat_wvel_sd              =   3.8070110922929E-06
(PID.TID 0001.0001) %MON dynstat_wvel_del2            =   8.3456517878752E-07
(PID.TID 0001.0001) %MON dynstat_theta_max            =   3.1089484667142E+01
(PID.TID 0001.0001) %MON dynstat_theta_min            =  -3.2427806089953E+00
(PID.TID 0001.0001) %MON dynstat_theta_mean           =   3.9098866150552E+00
(PID.TID 0001.0001) %MON dynstat_theta_sd             =   4.5718484901808E+00
(PID.TID 0001.0001) %MON dynstat_theta_del2           =   8.7885176390507E-02
(PID.TID 0001.0001) %MON dynstat_salt_max             =   4.1393820353695E+01
(PID.TID 0001.0001) %MON dynstat_salt_min             =   1.8387596098461E+01
(PID.TID 0001.0001) %MON dynstat_salt_mean            =   3.4772074685307E+01
(PID.TID 0001.0001) %MON dynstat_salt_sd              =   5.3144949294852E-01
(PID.TID 0001.0001) %MON dynstat_salt_del2            =   1.8767104894276E-02
(PID.TID 0001.0001) %MON dynstat_sst_max              =   3.1089484667142E+01
(PID.TID 0001.0001) %MON dynstat_sst_min              =  -1.9859203989345E+00
(PID.TID 0001.0001) %MON dynstat_sst_mean             =   1.8168464192840E+01
(PID.TID 0001.0001) %MON dynstat_sst_sd               =   9.7614376095425E+00
(PID.TID 0001.0001) %MON dynstat_sst_del2             =   2.0697650412387E-01
(PID.TID 0001.0001) %MON dynstat_sss_max              =   4.1393820353695E+01
(PID.TID 0001.0001) %MON dynstat_sss_min              =   1.8387596098461E+01
(PID.TID 0001.0001) %MON dynstat_sss_mean             =   3.4627672018982E+01
(PID.TID 0001.0001) %MON dynstat_sss_sd               =   1.4646382648351E+00
(PID.TID 0001.0001) %MON dynstat_sss_del2             =   7.9288441676634E-02
(PID.TID 0001.0001) %MON extforcing_qnet_max          =   4.5231473652030E+02
(PID.TID 0001.0001) %MON extforcing_qnet_min          =  -2.0507663277863E+02
(PID.TID 0001.0001) %MON extforcing_qnet_mean         =  -1.2292562815361E+01
(PID.TID 0001.0001) %MON extforcing_qnet_sd           =   1.1363265971198E+02
(PID.TID 0001.0001) %MON extforcing_qnet_del2         =   5.2946368290482E+00
(PID.TID 0001.0001) %MON extforcing_qsw_max           =   0.0000000000000E+00
(PID.TID 0001.0001) %MON extforcing_qsw_min           =   0.0000000000000E+00
(PID.TID 0001.0001) %MON extforcing_qsw_mean          =   0.0000000000000E+00
(PID.TID 0001.0001) %MON extforcing_qsw_sd            =   0.0000000000000E+00
(PID.TID 0001.0001) %MON extforcing_qsw_del2          =   0.0000000000000E+00
(PID.TID 0001.0001) %MON extforcing_empmr_max         =   7.6494447208479E-08
(PID.TID 0001.0001) %MON extforcing_empmr_min         =  -1.5362614137596E-07
(PID.TID 0001.0001) %MON extforcing_empmr_mean        =  -2.0474999028391E-24
(PID.TID 0001.0001) %MON extforcing_empmr_sd          =   2.4051723601802E-08
(PID.TID 0001.0001) %MON extforcing_empmr_del2        =   1.2835223797615E-09
(PID.TID 0001.0001) %MON extforcing_fu_max            =   2.4813468793793E-01
(PID.TID 0001.0001) %MON extforcing_fu_min            =  -2.4114197747619E-01
(PID.TID 0001.0001) %MON extforcing_fu_mean           =  -4.0311084497256E-03
(PID.TID 0001.0001) %MON extforcing_fu_sd             =   6.4932110571164E-02
(PID.TID 0001.0001) %MON extforcing_fu_del2           =   3.0340151942349E-03
(PID.TID 0001.0001) %MON extforcing_fv_max            =   2.8500987930747E-01
(PID.TID 0001.0001) %MON extforcing_fv_min            =  -3.3637477122718E-01
(PID.TID 0001.0001) %MON extforcing_fv_mean           =  -1.3734598918518E-02
(PID.TID 0001.0001) %MON extforcing_fv_sd             =   7.6295289812425E-02
(PID.TID 0001.0001) %MON extforcing_fv_del2           =   3.2505629830797E-03
(PID.TID 0001.0001) %MON advcfl_uvel_max              =   8.0387958691782E-02
(PID.TID 0001.0001) %MON advcfl_vvel_max              =   7.6101877951068E-02
(PID.TID 0001.0001) %MON advcfl_wvel_max              =   6.6553463003006E-02
(PID.TID 0001.0001) %MON advcfl_W_hf_max              =   1.1276714182431E-01
(PID.TID 0001.0001) %MON pe_b_mean                    =   4.7606901468171E-04
(PID.TID 0001.0001) %MON ke_max                       =   3.9124517046041E-02
(PID.TID 0001.0001) %MON ke_mean                      =   1.4089256589397E-04
(PID.TID 0001.0001) %MON ke_vol                       =   1.3398024453628E+18
(PID.TID 0001.0001) %MON vort_r_min                   =  -1.2492679919774E-06
(PID.TID 0001.0001) %MON vort_r_max                   =   1.2399399328449E-06
(PID.TID 0001.0001) %MON vort_a_mean                  =  -2.0493733748264E-05
(PID.TID 0001.0001) %MON vort_a_sd                    =   7.5053946375641E-05
(PID.TID 0001.0001) %MON vort_p_mean                  =  -2.4715773478428E-05
(PID.TID 0001.0001) %MON vort_p_sd                    =   1.2777073849578E-04
(PID.TID 0001.0001) %MON surfExpan_theta_mean         =   4.7840660353085E-08
(PID.TID 0001.0001) %MON surfExpan_salt_mean          =   1.4451871244414E-08
(PID.TID 0001.0001) // =======================================================
(PID.TID 0001.0001) // End MONITOR dynamic field statistics
(PID.TID 0001.0001) // =======================================================
 DRIVER_GET_EXPORT_STATE_3D:MASK. This code is stubbed!
 DRIVER_SET_IMPORT_STATE_3D:SWHEAT. This code is stubbed!
 cg2d: Sum(rhs),rhsMax =  -9.54969436861575E-12  1.36701253171290E+00
(PID.TID 0001.0001)                    cg2d_init_res =    1.48860140011557E-01
(PID.TID 0001.0001)                       cg2d_iters =    62
(PID.TID 0001.0001)                         cg2d_res =    4.76106442185038E-07
(PID.TID 0001.0001) // =======================================================
(PID.TID 0001.0001) // Begin MONITOR dynamic field statistics
(PID.TID 0001.0001) // =======================================================
(PID.TID 0001.0001) %MON time_tsnumber                =                 72014
(PID.TID 0001.0001) %MON time_secondsf                =   6.2220096000000E+09
(PID.TID 0001.0001) %MON dynstat_eta_max              =   9.0162430489280E-01
(PID.TID 0001.0001) %MON dynstat_eta_min              =  -1.6113038132594E+00
(PID.TID 0001.0001) %MON dynstat_eta_mean             =   1.4262679743539E-14
(PID.TID 0001.0001) %MON dynstat_eta_sd               =   5.9771055863436E-01
(PID.TID 0001.0001) %MON dynstat_eta_del2             =   1.1256017634392E-02
(PID.TID 0001.0001) %MON dynstat_uvel_max             =   1.8614398371228E-01
(PID.TID 0001.0001) %MON dynstat_uvel_min             =  -2.8297991677393E-01
(PID.TID 0001.0001) %MON dynstat_uvel_mean            =  -4.8346582577949E-04
(PID.TID 0001.0001) %MON dynstat_uvel_sd              =   1.2015853490418E-02
(PID.TID 0001.0001) %MON dynstat_uvel_del2            =   1.5644181869583E-03
(PID.TID 0001.0001) %MON dynstat_vvel_max             =   1.7444781692349E-01
(PID.TID 0001.0001) %MON dynstat_vvel_min             =  -2.2433723215822E-01
(PID.TID 0001.0001) %MON dynstat_vvel_mean            =  -4.0014110083746E-04
(PID.TID 0001.0001) %MON dynstat_vvel_sd              =   1.2661843867480E-02
(PID.TID 0001.0001) %MON dynstat_vvel_del2            =   1.5878361752745E-03
(PID.TID 0001.0001) %MON dynstat_wvel_max             =   1.0798140459256E-04
(PID.TID 0001.0001) %MON dynstat_wvel_min             =  -2.0378617702473E-04
(PID.TID 0001.0001) %MON dynstat_wvel_mean            =   6.3413222486803E-11
(PID.TID 0001.0001) %MON dynstat_wvel_sd              =   3.8048699666520E-06
(PID.TID 0001.0001) %MON dynstat_wvel_del2            =   8.3474280755418E-07
(PID.TID 0001.0001) %MON dynstat_theta_max            =   3.1099202365416E+01
(PID.TID 0001.0001) %MON dynstat_theta_min            =  -3.2615292393164E+00
(PID.TID 0001.0001) %MON dynstat_theta_mean           =   3.9099455446367E+00
(PID.TID 0001.0001) %MON dynstat_theta_sd             =   4.5719445926371E+00
(PID.TID 0001.0001) %MON dynstat_theta_del2           =   8.7903827253188E-02
(PID.TID 0001.0001) %MON dynstat_salt_max             =   4.1394361562754E+01
(PID.TID 0001.0001) %MON dynstat_salt_min             =   1.8387957550113E+01
(PID.TID 0001.0001) %MON dynstat_salt_mean            =   3.4772075277859E+01
(PID.TID 0001.0001) %MON dynstat_salt_sd              =   5.3144714902289E-01
(PID.TID 0001.0001) %MON dynstat_salt_del2            =   1.8759766809784E-02
(PID.TID 0001.0001) %MON dynstat_sst_max              =   3.1099202365416E+01
(PID.TID 0001.0001) %MON dynstat_sst_min              =  -1.9873554075327E+00
(PID.TID 0001.0001) %MON dynstat_sst_mean             =   1.8172523123570E+01
(PID.TID 0001.0001) %MON dynstat_sst_sd               =   9.7597400919327E+00
(PID.TID 0001.0001) %MON dynstat_sst_del2             =   2.0735433894014E-01
(PID.TID 0001.0001) %MON dynstat_sss_max              =   4.1394361562754E+01
(PID.TID 0001.0001) %MON dynstat_sss_min              =   1.8387957550113E+01
(PID.TID 0001.0001) %MON dynstat_sss_mean             =   3.4627260506894E+01
(PID.TID 0001.0001) %MON dynstat_sss_sd               =   1.4643728398328E+00
(PID.TID 0001.0001) %MON dynstat_sss_del2             =   7.9271585984046E-02
(PID.TID 0001.0001) %MON extforcing_qnet_max          =   4.5222027555240E+02
(PID.TID 0001.0001) %MON extforcing_qnet_min          =  -2.0475234489479E+02
(PID.TID 0001.0001) %MON extforcing_qnet_mean         =  -1.2304791184004E+01
(PID.TID 0001.0001) %MON extforcing_qnet_sd           =   1.1350821078146E+02
(PID.TID 0001.0001) %MON extforcing_qnet_del2         =   5.3204507921485E+00
(PID.TID 0001.0001) %MON extforcing_qsw_max           =   0.0000000000000E+00
(PID.TID 0001.0001) %MON extforcing_qsw_min           =   0.0000000000000E+00
(PID.TID 0001.0001) %MON extforcing_qsw_mean          =   0.0000000000000E+00
(PID.TID 0001.0001) %MON extforcing_qsw_sd            =   0.0000000000000E+00
(PID.TID 0001.0001) %MON extforcing_qsw_del2          =   0.0000000000000E+00
(PID.TID 0001.0001) %MON extforcing_empmr_max         =   7.6494447208479E-08
(PID.TID 0001.0001) %MON extforcing_empmr_min         =  -1.5362614137596E-07
(PID.TID 0001.0001) %MON extforcing_empmr_mean        =  -2.0474999028391E-24
(PID.TID 0001.0001) %MON extforcing_empmr_sd          =   2.4051723601802E-08
(PID.TID 0001.0001) %MON extforcing_empmr_del2        =   1.2835223797615E-09
(PID.TID 0001.0001) %MON extforcing_fu_max            =   2.4839906243671E-01
(PID.TID 0001.0001) %MON extforcing_fu_min            =  -2.4462500977759E-01
(PID.TID 0001.0001) %MON extforcing_fu_mean           =  -3.9877802907350E-03
(PID.TID 0001.0001) %MON extforcing_fu_sd             =   6.5100731246541E-02
(PID.TID 0001.0001) %MON extforcing_fu_del2           =   3.0666958374998E-03
(PID.TID 0001.0001) %MON extforcing_fv_max            =   2.8769312088010E-01
(PID.TID 0001.0001) %MON extforcing_fv_min            =  -3.3716267516111E-01
(PID.TID 0001.0001) %MON extforcing_fv_mean           =  -1.3738548131820E-02
(PID.TID 0001.0001) %MON extforcing_fv_sd             =   7.6456570195253E-02
(PID.TID 0001.0001) %MON extforcing_fv_del2           =   3.2797188034500E-03
(PID.TID 0001.0001) %MON advcfl_uvel_max              =   8.0258472154419E-02
(PID.TID 0001.0001) %MON advcfl_vvel_max              =   7.6039345738737E-02
(PID.TID 0001.0001) %MON advcfl_wvel_max              =   6.6441983754477E-02
(PID.TID 0001.0001) %MON advcfl_W_hf_max              =   1.1255319324312E-01
(PID.TID 0001.0001) %MON pe_b_mean                    =   4.7593355852031E-04
(PID.TID 0001.0001) %MON ke_max                       =   3.8981716078633E-02
(PID.TID 0001.0001) %MON ke_mean                      =   1.4088931508320E-04
(PID.TID 0001.0001) %MON ke_vol                       =   1.3398024453628E+18
(PID.TID 0001.0001) %MON vort_r_min                   =  -1.2549120829468E-06
(PID.TID 0001.0001) %MON vort_r_max                   =   1.2420755123502E-06
(PID.TID 0001.0001) %MON vort_a_mean                  =  -2.0493733748264E-05
(PID.TID 0001.0001) %MON vort_a_sd                    =   7.5053946292125E-05
(PID.TID 0001.0001) %MON vort_p_mean                  =  -2.4715773458177E-05
(PID.TID 0001.0001) %MON vort_p_sd                    =   1.2777073674910E-04
(PID.TID 0001.0001) %MON surfExpan_theta_mean         =   4.7739915977083E-08
(PID.TID 0001.0001) %MON surfExpan_salt_mean          =   1.4479629870348E-08
(PID.TID 0001.0001) // =======================================================
(PID.TID 0001.0001) // End MONITOR dynamic field statistics
(PID.TID 0001.0001) // =======================================================
 DRIVER_GET_EXPORT_STATE_3D:MASK. This code is stubbed!
 DRIVER_SET_IMPORT_STATE_3D:SWHEAT. This code is stubbed!
 cg2d: Sum(rhs),rhsMax =  -9.89075488178059E-12  1.36818289087914E+00
(PID.TID 0001.0001)                    cg2d_init_res =    1.49787183448189E-01
(PID.TID 0001.0001)                       cg2d_iters =    62
(PID.TID 0001.0001)                         cg2d_res =    4.79015464837665E-07
(PID.TID 0001.0001) // =======================================================
(PID.TID 0001.0001) // Begin MONITOR dynamic field statistics
(PID.TID 0001.0001) // =======================================================
(PID.TID 0001.0001) %MON time_tsnumber                =                 72015
(PID.TID 0001.0001) %MON time_secondsf                =   6.2220960000000E+09
(PID.TID 0001.0001) %MON dynstat_eta_max              =   9.0040101230169E-01
(PID.TID 0001.0001) %MON dynstat_eta_min              =  -1.6107834366781E+00
(PID.TID 0001.0001) %MON dynstat_eta_mean             =   1.4317641900547E-14
(PID.TID 0001.0001) %MON dynstat_eta_sd               =   5.9762769969852E-01
(PID.TID 0001.0001) %MON dynstat_eta_del2             =   1.1258767438050E-02
(PID.TID 0001.0001) %MON dynstat_uvel_max             =   1.8570178545625E-01
(PID.TID 0001.0001) %MON dynstat_uvel_min             =  -2.8250814128478E-01
(PID.TID 0001.0001) %MON dynstat_uvel_mean            =  -4.8279132979786E-04
(PID.TID 0001.0001) %MON dynstat_uvel_sd              =   1.2016458243435E-02
(PID.TID 0001.0001) %MON dynstat_uvel_del2            =   1.5642814929700E-03
(PID.TID 0001.0001) %MON dynstat_vvel_max             =   1.7427153729360E-01
(PID.TID 0001.0001) %MON dynstat_vvel_min             =  -2.2423333219031E-01
(PID.TID 0001.0001) %MON dynstat_vvel_mean            =  -3.9974580711871E-04
(PID.TID 0001.0001) %MON dynstat_vvel_sd              =   1.2660801929684E-02
(PID.TID 0001.0001) %MON dynstat_vvel_del2            =   1.5877219133593E-03
(PID.TID 0001.0001) %MON dynstat_wvel_max             =   1.0840644574962E-04
(PID.TID 0001.0001) %MON dynstat_wvel_min             =  -2.0341146998822E-04
(PID.TID 0001.0001) %MON dynstat_wvel_mean            =   5.4779750246077E-11
(PID.TID 0001.0001) %MON dynstat_wvel_sd              =   3.8027667108226E-06
(PID.TID 0001.0001) %MON dynstat_wvel_del2            =   8.3488623761040E-07
(PID.TID 0001.0001) %MON dynstat_theta_max            =   3.1108566965094E+01
(PID.TID 0001.0001) %MON dynstat_theta_min            =  -3.2803666405131E+00
(PID.TID 0001.0001) %MON dynstat_theta_mean           =   3.9100045389626E+00
(PID.TID 0001.0001) %MON dynstat_theta_sd             =   4.5720459993886E+00
(PID.TID 0001.0001) %MON dynstat_theta_del2           =   8.7934301989096E-02
(PID.TID 0001.0001) %MON dynstat_salt_max             =   4.1394895879545E+01
(PID.TID 0001.0001) %MON dynstat_salt_min             =   1.8388324292039E+01
(PID.TID 0001.0001) %MON dynstat_salt_mean            =   3.4772075889374E+01
(PID.TID 0001.0001) %MON dynstat_salt_sd              =   5.3144432164180E-01
(PID.TID 0001.0001) %MON dynstat_salt_del2            =   1.8760138322485E-02
(PID.TID 0001.0001) %MON dynstat_sst_max              =   3.1108566965094E+01
(PID.TID 0001.0001) %MON dynstat_sst_min              =  -1.9886465706318E+00
(PID.TID 0001.0001) %MON dynstat_sst_mean             =   1.8176480702230E+01
(PID.TID 0001.0001) %MON dynstat_sst_sd               =   9.7582033680341E+00
(PID.TID 0001.0001) %MON dynstat_sst_del2             =   2.0789326814224E-01
(PID.TID 0001.0001) %MON dynstat_sss_max              =   4.1394895879545E+01
(PID.TID 0001.0001) %MON dynstat_sss_min              =   1.8388324292039E+01
(PID.TID 0001.0001) %MON dynstat_sss_mean             =   3.4626787484805E+01
(PID.TID 0001.0001) %MON dynstat_sss_sd               =   1.4640714959088E+00
(PID.TID 0001.0001) %MON dynstat_sss_del2             =   7.9318305423019E-02
(PID.TID 0001.0001) %MON extforcing_qnet_max          =   4.5655909646370E+02
(PID.TID 0001.0001) %MON extforcing_qnet_min          =  -2.0442805701094E+02
(PID.TID 0001.0001) %MON extforcing_qnet_mean         =  -1.2317019552647E+01
(PID.TID 0001.0001) %MON extforcing_qnet_sd           =   1.1339064702855E+02
(PID.TID 0001.0001) %MON extforcing_qnet_del2         =   5.3480868028934E+00
(PID.TID 0001.0001) %MON extforcing_qsw_max           =   0.0000000000000E+00
(PID.TID 0001.0001) %MON extforcing_qsw_min           =   0.0000000000000E+00
(PID.TID 0001.0001) %MON extforcing_qsw_mean          =   0.0000000000000E+00
(PID.TID 0001.0001) %MON extforcing_qsw_sd            =   0.0000000000000E+00
(PID.TID 0001.0001) %MON extforcing_qsw_del2          =   0.0000000000000E+00
(PID.TID 0001.0001) %MON extforcing_empmr_max         =   7.6494447208479E-08
(PID.TID 0001.0001) %MON extforcing_empmr_min         =  -1.5362614137596E-07
(PID.TID 0001.0001) %MON extforcing_empmr_mean        =  -2.0474999028391E-24
(PID.TID 0001.0001) %MON extforcing_empmr_sd          =   2.4051723601802E-08
(PID.TID 0001.0001) %MON extforcing_empmr_del2        =   1.2835223797615E-09
(PID.TID 0001.0001) %MON extforcing_fu_max            =   2.4866343693550E-01
(PID.TID 0001.0001) %MON extforcing_fu_min            =  -2.4810804207900E-01
(PID.TID 0001.0001) %MON extforcing_fu_mean           =  -3.9444501762244E-03
(PID.TID 0001.0001) %MON extforcing_fu_sd             =   6.5282110610307E-02
(PID.TID 0001.0001) %MON extforcing_fu_del2           =   3.1019159265815E-03
(PID.TID 0001.0001) %MON extforcing_fv_max            =   2.9037636245273E-01
(PID.TID 0001.0001) %MON extforcing_fv_min            =  -3.3795057909504E-01
(PID.TID 0001.0001) %MON extforcing_fv_mean           =  -1.3742497669401E-02
(PID.TID 0001.0001) %MON extforcing_fv_sd             =   7.6627687048836E-02
(PID.TID 0001.0001) %MON extforcing_fv_del2           =   3.3114497708310E-03
(PID.TID 0001.0001) %MON advcfl_uvel_max              =   8.0124667676735E-02
(PID.TID 0001.0001) %MON advcfl_vvel_max              =   7.5962507931537E-02
(PID.TID 0001.0001) %MON advcfl_wvel_max              =   6.6319815120688E-02
(PID.TID 0001.0001) %MON advcfl_W_hf_max              =   1.1227593434226E-01
(PID.TID 0001.0001) %MON pe_b_mean                    =   4.7580161300183E-04
(PID.TID 0001.0001) %MON ke_max                       =   3.8835967799042E-02
(PID.TID 0001.0001) %MON ke_mean                      =   1.4088331976816E-04
(PID.TID 0001.0001) %MON ke_vol                       =   1.3398024453628E+18
(PID.TID 0001.0001) %MON vort_r_min                   =  -1.2605048708121E-06
(PID.TID 0001.0001) %MON vort_r_max                   =   1.2440714816576E-06
(PID.TID 0001.0001) %MON vort_a_mean                  =  -2.0493733748264E-05
(PID.TID 0001.0001) %MON vort_a_sd                    =   7.5053946209043E-05
(PID.TID 0001.0001) %MON vort_p_mean                  =  -2.4715773436312E-05
(PID.TID 0001.0001) %MON vort_p_sd                    =   1.2777073504002E-04
(PID.TID 0001.0001) %MON surfExpan_theta_mean         =   4.7635254029867E-08
(PID.TID 0001.0001) %MON surfExpan_salt_mean          =   1.4492428748125E-08
(PID.TID 0001.0001) // =======================================================
(PID.TID 0001.0001) // End MONITOR dynamic field statistics
(PID.TID 0001.0001) // =======================================================
 DRIVER_GET_EXPORT_STATE_3D:MASK. This code is stubbed!
 DRIVER_SET_IMPORT_STATE_3D:SWHEAT. This code is stubbed!
S/R EXTERNAL_FIELDS_LOAD: Reading new data:    1    2     72015  6.222096000000E+09
(PID.TID 0001.0001)  MDS_READ_FIELD: opening global file: trenberth_taux.bin
(PID.TID 0001.0001)  MDS_READ_FIELD: opening global file: trenberth_taux.bin
(PID.TID 0001.0001)  MDS_READ_FIELD: opening global file: trenberth_tauy.bin
(PID.TID 0001.0001)  MDS_READ_FIELD: opening global file: trenberth_tauy.bin
(PID.TID 0001.0001)  MDS_READ_FIELD: opening global file: shiQnet_cs32.bin
(PID.TID 0001.0001)  MDS_READ_FIELD: opening global file: shiQnet_cs32.bin
(PID.TID 0001.0001)  MDS_READ_FIELD: opening global file: shiEmPR_cs32.bin
(PID.TID 0001.0001)  MDS_READ_FIELD: opening global file: shiEmPR_cs32.bin
(PID.TID 0001.0001)  MDS_READ_FIELD: opening global file: lev_surfT_cs_12m.bin
(PID.TID 0001.0001)  MDS_READ_FIELD: opening global file: lev_surfT_cs_12m.bin
(PID.TID 0001.0001)  MDS_READ_FIELD: opening global file: lev_surfS_cs_12m.bin
(PID.TID 0001.0001)  MDS_READ_FIELD: opening global file: lev_surfS_cs_12m.bin
 cg2d: Sum(rhs),rhsMax =  -9.80548975348938E-12  1.36947375073055E+00
(PID.TID 0001.0001)                    cg2d_init_res =    1.50913792801284E-01
(PID.TID 0001.0001)                       cg2d_iters =    62
(PID.TID 0001.0001)                         cg2d_res =    4.82183007144869E-07
(PID.TID 0001.0001) // =======================================================
(PID.TID 0001.0001) // Begin MONITOR dynamic field statistics
(PID.TID 0001.0001) // =======================================================
(PID.TID 0001.0001) %MON time_tsnumber                =                 72016
(PID.TID 0001.0001) %MON time_secondsf                =   6.2221824000000E+09
(PID.TID 0001.0001) %MON dynstat_eta_max              =   8.9921650533381E-01
(PID.TID 0001.0001) %MON dynstat_eta_min              =  -1.6102485671417E+00
(PID.TID 0001.0001) %MON dynstat_eta_mean             =   1.4839782392121E-14
(PID.TID 0001.0001) %MON dynstat_eta_sd               =   5.9754748087930E-01
(PID.TID 0001.0001) %MON dynstat_eta_del2             =   1.1261903665036E-02
(PID.TID 0001.0001) %MON dynstat_uvel_max             =   1.8522611951846E-01
(PID.TID 0001.0001) %MON dynstat_uvel_min             =  -2.8202112514795E-01
(PID.TID 0001.0001) %MON dynstat_uvel_mean            =  -4.8210634214558E-04
(PID.TID 0001.0001) %MON dynstat_uvel_sd              =   1.2017183786863E-02
(PID.TID 0001.0001) %MON dynstat_uvel_del2            =   1.5641958964551E-03
(PID.TID 0001.0001) %MON dynstat_vvel_max             =   1.7406363106916E-01
(PID.TID 0001.0001) %MON dynstat_vvel_min             =  -2.2412555648212E-01
(PID.TID 0001.0001) %MON dynstat_vvel_mean            =  -3.9933688786311E-04
(PID.TID 0001.0001) %MON dynstat_vvel_sd              =   1.2659424740736E-02
(PID.TID 0001.0001) %MON dynstat_vvel_del2            =   1.5875716665215E-03
(PID.TID 0001.0001) %MON dynstat_wvel_max             =   1.0880643748373E-04
(PID.TID 0001.0001) %MON dynstat_wvel_min             =  -2.0300980249858E-04
(PID.TID 0001.0001) %MON dynstat_wvel_mean            =   4.7113140343377E-11
(PID.TID 0001.0001) %MON dynstat_wvel_sd              =   3.8006818802520E-06
(PID.TID 0001.0001) %MON dynstat_wvel_del2            =   8.3510472920843E-07
(PID.TID 0001.0001) %MON dynstat_theta_max            =   3.1117585625253E+01
(PID.TID 0001.0001) %MON dynstat_theta_min            =  -3.2992742728207E+00
(PID.TID 0001.0001) %MON dynstat_theta_mean           =   3.9100635954373E+00
(PID.TID 0001.0001) %MON dynstat_theta_sd             =   4.5721525282846E+00
(PID.TID 0001.0001) %MON dynstat_theta_del2           =   8.7910866444293E-02
(PID.TID 0001.0001) %MON dynstat_salt_max             =   4.1395423554039E+01
(PID.TID 0001.0001) %MON dynstat_salt_min             =   1.8388696361544E+01
(PID.TID 0001.0001) %MON dynstat_salt_mean            =   3.4772076521027E+01
(PID.TID 0001.0001) %MON dynstat_salt_sd              =   5.3144095980786E-01
(PID.TID 0001.0001) %MON dynstat_salt_del2            =   1.8753525885167E-02
(PID.TID 0001.0001) %MON dynstat_sst_max              =   3.1117585625253E+01
(PID.TID 0001.0001) %MON dynstat_sst_min              =  -1.9893839331378E+00
(PID.TID 0001.0001) %MON dynstat_sst_mean             =   1.8180627054176E+01
(PID.TID 0001.0001) %MON dynstat_sst_sd               =   9.7567453526586E+00
(PID.TID 0001.0001) %MON dynstat_sst_del2             =   2.0790524604959E-01
(PID.TID 0001.0001) %MON dynstat_sss_max              =   4.1395423554039E+01
(PID.TID 0001.0001) %MON dynstat_sss_min              =   1.8388696361544E+01
(PID.TID 0001.0001) %MON dynstat_sss_mean             =   3.4626338595161E+01
(PID.TID 0001.0001) %MON dynstat_sss_sd               =   1.4636813785905E+00
(PID.TID 0001.0001) %MON dynstat_sss_del2             =   7.9291147897952E-02
(PID.TID 0001.0001) %MON extforcing_qnet_max          =   4.6211611868841E+02
(PID.TID 0001.0001) %MON extforcing_qnet_min          =  -2.0410376912710E+02
(PID.TID 0001.0001) %MON extforcing_qnet_mean         =  -1.2329247921290E+01
(PID.TID 0001.0001) %MON extforcing_qnet_sd           =   1.1327998988989E+02
(PID.TID 0001.0001) %MON extforcing_qnet_del2         =   5.3775063971043E+00
(PID.TID 0001.0001) %MON extforcing_qsw_max           =   0.0000000000000E+00
(PID.TID 0001.0001) %MON extforcing_qsw_min           =   0.0000000000000E+00
(PID.TID 0001.0001) %MON extforcing_qsw_mean          =   0.0000000000000E+00
(PID.TID 0001.0001) %MON extforcing_qsw_sd            =   0.0000000000000E+00
(PID.TID 0001.0001) %MON extforcing_qsw_del2          =   0.0000000000000E+00
(PID.TID 0001.0001) %MON extforcing_empmr_max         =   7.6494447208479E-08
(PID.TID 0001.0001) %MON extforcing_empmr_min         =  -1.5362614137596E-07
(PID.TID 0001.0001) %MON extforcing_empmr_mean        =  -2.0474999028391E-24
(PID.TID 0001.0001) %MON extforcing_empmr_sd          =   2.4051723601802E-08
(PID.TID 0001.0001) %MON extforcing_empmr_del2        =   1.2835223797615E-09
(PID.TID 0001.0001) %MON extforcing_fu_max            =   2.4892781143428E-01
(PID.TID 0001.0001) %MON extforcing_fu_min            =  -2.5159107438040E-01
(PID.TID 0001.0001) %MON extforcing_fu_mean           =  -3.9011185962526E-03
(PID.TID 0001.0001) %MON extforcing_fu_sd             =   6.5476142514233E-02
(PID.TID 0001.0001) %MON extforcing_fu_del2           =   3.1398073870519E-03
(PID.TID 0001.0001) %MON extforcing_fv_max            =   2.9305960402537E-01
(PID.TID 0001.0001) %MON extforcing_fv_min            =  -3.3950131228473E-01
(PID.TID 0001.0001) %MON extforcing_fv_mean           =  -1.3746447221391E-02
(PID.TID 0001.0001) %MON extforcing_fv_sd             =   7.6808574628395E-02
(PID.TID 0001.0001) %MON extforcing_fv_del2           =   3.3454234949503E-03
(PID.TID 0001.0001) %MON advcfl_uvel_max              =   7.9986540662273E-02
(PID.TID 0001.0001) %MON advcfl_vvel_max              =   7.5871884537328E-02
(PID.TID 0001.0001) %MON advcfl_wvel_max              =   6.6188856361800E-02
(PID.TID 0001.0001) %MON advcfl_W_hf_max              =   1.1193617492979E-01
(PID.TID 0001.0001) %MON pe_b_mean                    =   4.7567388906280E-04
(PID.TID 0001.0001) %MON ke_max                       =   3.8687305814718E-02
(PID.TID 0001.0001) %MON ke_mean                      =   1.4087471246815E-04
(PID.TID 0001.0001) %MON ke_vol                       =   1.3398024453628E+18
(PID.TID 0001.0001) %MON vort_r_min                   =  -1.2660218448514E-06
(PID.TID 0001.0001) %MON vort_r_max                   =   1.2458898706758E-06
(PID.TID 0001.0001) %MON vort_a_mean                  =  -2.0493733748264E-05
(PID.TID 0001.0001) %MON vort_a_sd                    =   7.5053946126764E-05
(PID.TID 0001.0001) %MON vort_p_mean                  =  -2.4715773412654E-05
(PID.TID 0001.0001) %MON vort_p_sd                    =   1.2777073332238E-04
(PID.TID 0001.0001) %MON surfExpan_theta_mean         =   4.7556441648502E-08
(PID.TID 0001.0001) %MON surfExpan_salt_mean          =   1.4490115896790E-08
(PID.TID 0001.0001) // =======================================================
(PID.TID 0001.0001) // End MONITOR dynamic field statistics
(PID.TID 0001.0001) // =======================================================
 DRIVER_GET_EXPORT_STATE_3D:MASK. This code is stubbed!
 DRIVER_SET_IMPORT_STATE_3D:SWHEAT. This code is stubbed!
 cg2d: Sum(rhs),rhsMax =  -9.74864633462857E-12  1.37057718995108E+00
(PID.TID 0001.0001)                    cg2d_init_res =    1.50145718875150E-01
(PID.TID 0001.0001)                       cg2d_iters =    62
(PID.TID 0001.0001)                         cg2d_res =    4.79881205075845E-07
(PID.TID 0001.0001) // =======================================================
(PID.TID 0001.0001) // Begin MONITOR dynamic field statistics
(PID.TID 0001.0001) // =======================================================
(PID.TID 0001.0001) %MON time_tsnumber                =                 72017
(PID.TID 0001.0001) %MON time_secondsf                =   6.2222688000000E+09
(PID.TID 0001.0001) %MON dynstat_eta_max              =   8.9809589828820E-01
(PID.TID 0001.0001) %MON dynstat_eta_min              =  -1.6096442333060E+00
(PID.TID 0001.0001) %MON dynstat_eta_mean             =   1.4345122979050E-14
(PID.TID 0001.0001) %MON dynstat_eta_sd               =   5.9746715571992E-01
(PID.TID 0001.0001) %MON dynstat_eta_del2             =   1.1263642628358E-02
(PID.TID 0001.0001) %MON dynstat_uvel_max             =   1.8526188374427E-01
(PID.TID 0001.0001) %MON dynstat_uvel_min             =  -2.8152325977315E-01
(PID.TID 0001.0001) %MON dynstat_uvel_mean            =  -4.8145008465349E-04
(PID.TID 0001.0001) %MON dynstat_uvel_sd              =   1.2018018153509E-02
(PID.TID 0001.0001) %MON dynstat_uvel_del2            =   1.5641419593531E-03
(PID.TID 0001.0001) %MON dynstat_vvel_max             =   1.7382531470203E-01
(PID.TID 0001.0001) %MON dynstat_vvel_min             =  -2.2400703812121E-01
(PID.TID 0001.0001) %MON dynstat_vvel_mean            =  -3.9892551519831E-04
(PID.TID 0001.0001) %MON dynstat_vvel_sd              =   1.2657296188632E-02
(PID.TID 0001.0001) %MON dynstat_vvel_del2            =   1.5873767576569E-03
(PID.TID 0001.0001) %MON dynstat_wvel_max             =   1.0917712813473E-04
(PID.TID 0001.0001) %MON dynstat_wvel_min             =  -2.0257979253863E-04
(PID.TID 0001.0001) %MON dynstat_wvel_mean            =   2.8737523970970E-11
(PID.TID 0001.0001) %MON dynstat_wvel_sd              =   3.7985270236327E-06
(PID.TID 0001.0001) %MON dynstat_wvel_del2            =   8.3521105645218E-07
(PID.TID 0001.0001) %MON dynstat_theta_max            =   3.1126069131011E+01
(PID.TID 0001.0001) %MON dynstat_theta_min            =  -3.3183049656785E+00
(PID.TID 0001.0001) %MON dynstat_theta_mean           =   3.9101231697473E+00
(PID.TID 0001.0001) %MON dynstat_theta_sd             =   4.5722680335081E+00
(PID.TID 0001.0001) %MON dynstat_theta_del2           =   8.7893503716277E-02
(PID.TID 0001.0001) %MON dynstat_salt_max             =   4.1395955538609E+01
(PID.TID 0001.0001) %MON dynstat_salt_min             =   1.8389069961287E+01
(PID.TID 0001.0001) %MON dynstat_salt_mean            =   3.4772077171498E+01
(PID.TID 0001.0001) %MON dynstat_salt_sd              =   5.3143664624438E-01
(PID.TID 0001.0001) %MON dynstat_salt_del2            =   1.8761153844663E-02
(PID.TID 0001.0001) %MON dynstat_sst_max              =   3.1126069131011E+01
(PID.TID 0001.0001) %MON dynstat_sst_min              =  -1.9886761694510E+00
(PID.TID 0001.0001) %MON dynstat_sst_mean             =   1.8185263026610E+01
(PID.TID 0001.0001) %MON dynstat_sst_sd               =   9.7553738586496E+00
(PID.TID 0001.0001) %MON dynstat_sst_del2             =   2.0806932071461E-01
(PID.TID 0001.0001) %MON dynstat_sss_max              =   4.1395955538609E+01
(PID.TID 0001.0001) %MON dynstat_sss_min              =   1.8389069961287E+01
(PID.TID 0001.0001) %MON dynstat_sss_mean             =   3.4626011649823E+01
(PID.TID 0001.0001) %MON dynstat_sss_sd               =   1.4634972817893E+00
(PID.TID 0001.0001) %MON dynstat_sss_del2             =   7.9372710732992E-02
(PID.TID 0001.0001) %MON extforcing_qnet_max          =   4.5753071201305E+02
(PID.TID 0001.0001) %MON extforcing_qnet_min          =  -2.0101909770688E+02
(PID.TID 0001.0001) %MON extforcing_qnet_mean         =  -1.2374912456645E+01
(PID.TID 0001.0001) %MON extforcing_qnet_sd           =   1.1223184124370E+02
(PID.TID 0001.0001) %MON extforcing_qnet_del2         =   5.3393965458812E+00
(PID.TID 0001.0001) %MON extforcing_qsw_max           =   0.0000000000000E+00
(PID.TID 0001.0001) %MON extforcing_qsw_min           =   0.0000000000000E+00
(PID.TID 0001.0001) %MON extforcing_qsw_mean          =   0.0000000000000E+00
(PID.TID 0001.0001) %MON extforcing_qsw_sd            =   0.0000000000000E+00
(PID.TID 0001.0001) %MON extforcing_qsw_del2          =   0.0000000000000E+00
(PID.TID 0001.0001) %MON extforcing_empmr_max         =   7.6494447208479E-08
(PID.TID 0001.0001) %MON extforcing_empmr_min         =  -1.5362614137596E-07
(PID.TID 0001.0001) %MON extforcing_empmr_mean        =  -1.6379999222713E-24
(PID.TID 0001.0001) %MON extforcing_empmr_sd          =   2.4051723601802E-08
(PID.TID 0001.0001) %MON extforcing_empmr_del2        =   1.2835223797615E-09
(PID.TID 0001.0001) %MON extforcing_fu_max            =   2.4586080052368E-01
(PID.TID 0001.0001) %MON extforcing_fu_min            =  -2.4690104382675E-01
(PID.TID 0001.0001) %MON extforcing_fu_mean           =  -3.9332200208642E-03
(PID.TID 0001.0001) %MON extforcing_fu_sd             =   6.5277802215471E-02
(PID.TID 0001.0001) %MON extforcing_fu_del2           =   3.0973261301915E-03
(PID.TID 0001.0001) %MON extforcing_fv_max            =   2.9225622243089E-01
(PID.TID 0001.0001) %MON extforcing_fv_min            =  -3.3606226010595E-01
(PID.TID 0001.0001) %MON extforcing_fv_mean           =  -1.3744594742735E-02
(PID.TID 0001.0001) %MON extforcing_fv_sd             =   7.6542311309590E-02
(PID.TID 0001.0001) %MON extforcing_fv_del2           =   3.3112175173052E-03
(PID.TID 0001.0001) %MON advcfl_uvel_max              =   7.9845336598128E-02
(PID.TID 0001.0001) %MON advcfl_vvel_max              =   7.5768005790349E-02
(PID.TID 0001.0001) %MON advcfl_wvel_max              =   6.6048656888066E-02
(PID.TID 0001.0001) %MON advcfl_W_hf_max              =   1.1153693920134E-01
(PID.TID 0001.0001) %MON pe_b_mean                    =   4.7554601298906E-04
(PID.TID 0001.0001) %MON ke_max                       =   3.8538352172231E-02
(PID.TID 0001.0001) %MON ke_mean                      =   1.4085849665048E-04
(PID.TID 0001.0001) %MON ke_vol                       =   1.3398024453628E+18
(PID.TID 0001.0001) %MON vort_r_min                   =  -1.2712677455746E-06
(PID.TID 0001.0001) %MON vort_r_max                   =   1.2473146762844E-06
(PID.TID 0001.0001) %MON vort_a_mean                  =  -2.0493733748264E-05
(PID.TID 0001.0001) %MON vort_a_sd                    =   7.5053946045890E-05
(PID.TID 0001.0001) %MON vort_p_mean                  =  -2.4715773387501E-05
(PID.TID 0001.0001) %MON vort_p_sd                    =   1.2777073158880E-04
(PID.TID 0001.0001) %MON surfExpan_theta_mean         =   4.7443487140346E-08
(PID.TID 0001.0001) %MON surfExpan_salt_mean          =   1.4497195244909E-08
(PID.TID 0001.0001) // =======================================================
(PID.TID 0001.0001) // End MONITOR dynamic field statistics
(PID.TID 0001.0001) // =======================================================
 DRIVER_GET_EXPORT_STATE_3D:MASK. This code is stubbed!
 DRIVER_SET_IMPORT_STATE_3D:SWHEAT. This code is stubbed!
 cg2d: Sum(rhs),rhsMax =  -9.72022462519817E-12  1.37167162048963E+00
(PID.TID 0001.0001)                    cg2d_init_res =    1.54817492005494E-01
(PID.TID 0001.0001)                       cg2d_iters =    62
(PID.TID 0001.0001)                         cg2d_res =    4.79374482440513E-07
(PID.TID 0001.0001) // =======================================================
(PID.TID 0001.0001) // Begin MONITOR dynamic field statistics
(PID.TID 0001.0001) // =======================================================
(PID.TID 0001.0001) %MON time_tsnumber                =                 72018
(PID.TID 0001.0001) %MON time_secondsf                =   6.2223552000000E+09
(PID.TID 0001.0001) %MON dynstat_eta_max              =   8.9702439575183E-01
(PID.TID 0001.0001) %MON dynstat_eta_min              =  -1.6090346927744E+00
(PID.TID 0001.0001) %MON dynstat_eta_mean             =   1.4455047293066E-14
(PID.TID 0001.0001) %MON dynstat_eta_sd               =   5.9739033643985E-01
(PID.TID 0001.0001) %MON dynstat_eta_del2             =   1.1265099382060E-02
(PID.TID 0001.0001) %MON dynstat_uvel_max             =   1.8525593572319E-01
(PID.TID 0001.0001) %MON dynstat_uvel_min             =  -2.8101302045919E-01
(PID.TID 0001.0001) %MON dynstat_uvel_mean            =  -4.8082370277439E-04
(PID.TID 0001.0001) %MON dynstat_uvel_sd              =   1.2018880568595E-02
(PID.TID 0001.0001) %MON dynstat_uvel_del2            =   1.5641716326617E-03
(PID.TID 0001.0001) %MON dynstat_vvel_max             =   1.7355834735712E-01
(PID.TID 0001.0001) %MON dynstat_vvel_min             =  -2.2388090103117E-01
(PID.TID 0001.0001) %MON dynstat_vvel_mean            =  -3.9850257483356E-04
(PID.TID 0001.0001) %MON dynstat_vvel_sd              =   1.2654615631669E-02
(PID.TID 0001.0001) %MON dynstat_vvel_del2            =   1.5872447480586E-03
(PID.TID 0001.0001) %MON dynstat_wvel_max             =   1.0950795283694E-04
(PID.TID 0001.0001) %MON dynstat_wvel_min             =  -2.0212863130740E-04
(PID.TID 0001.0001) %MON dynstat_wvel_mean            =   1.4620257595565E-11
(PID.TID 0001.0001) %MON dynstat_wvel_sd              =   3.7962335110821E-06
(PID.TID 0001.0001) %MON dynstat_wvel_del2            =   8.3526475187826E-07
(PID.TID 0001.0001) %MON dynstat_theta_max            =   3.1134017071986E+01
(PID.TID 0001.0001) %MON dynstat_theta_min            =  -3.3374533078194E+00
(PID.TID 0001.0001) %MON dynstat_theta_mean           =   3.9101832592359E+00
(PID.TID 0001.0001) %MON dynstat_theta_sd             =   4.5723935720921E+00
(PID.TID 0001.0001) %MON dynstat_theta_del2           =   8.7928757987810E-02
(PID.TID 0001.0001) %MON dynstat_salt_max             =   4.1396495705524E+01
(PID.TID 0001.0001) %MON dynstat_salt_min             =   1.8389444992559E+01
(PID.TID 0001.0001) %MON dynstat_salt_mean            =   3.4772077837924E+01
(PID.TID 0001.0001) %MON dynstat_salt_sd              =   5.3143330990644E-01
(PID.TID 0001.0001) %MON dynstat_salt_del2            =   1.8781334891165E-02
(PID.TID 0001.0001) %MON dynstat_sst_max              =   3.1134017071986E+01
(PID.TID 0001.0001) %MON dynstat_sst_min              =  -1.9877257670529E+00
(PID.TID 0001.0001) %MON dynstat_sst_mean             =   1.8190454773612E+01
(PID.TID 0001.0001) %MON dynstat_sst_sd               =   9.7540041899590E+00
(PID.TID 0001.0001) %MON dynstat_sst_del2             =   2.0852205417287E-01
(PID.TID 0001.0001) %MON dynstat_sss_max              =   4.1396495705524E+01
(PID.TID 0001.0001) %MON dynstat_sss_min              =   1.8389444992559E+01
(PID.TID 0001.0001) %MON dynstat_sss_mean             =   3.4625814222734E+01
(PID.TID 0001.0001) %MON dynstat_sss_sd               =   1.4633198129200E+00
(PID.TID 0001.0001) %MON dynstat_sss_del2             =   7.9479093037290E-02
(PID.TID 0001.0001) %MON extforcing_qnet_max          =   4.5294530533769E+02
(PID.TID 0001.0001) %MON extforcing_qnet_min          =  -1.9793442628666E+02
(PID.TID 0001.0001) %MON extforcing_qnet_mean         =  -1.2420576992001E+01
(PID.TID 0001.0001) %MON extforcing_qnet_sd           =   1.1119236898197E+02
(PID.TID 0001.0001) %MON extforcing_qnet_del2         =   5.3029746909385E+00
(PID.TID 0001.0001) %MON extforcing_qsw_max           =   0.0000000000000E+00
(PID.TID 0001.0001) %MON extforcing_qsw_min           =   0.0000000000000E+00
(PID.TID 0001.0001) %MON extforcing_qsw_mean          =   0.0000000000000E+00
(PID.TID 0001.0001) %MON extforcing_qsw_sd            =   0.0000000000000E+00
(PID.TID 0001.0001) %MON extforcing_qsw_del2          =   0.0000000000000E+00
(PID.TID 0001.0001) %MON extforcing_empmr_max         =   7.6494447208479E-08
(PID.TID 0001.0001) %MON extforcing_empmr_min         =  -1.5362614137596E-07
(PID.TID 0001.0001) %MON extforcing_empmr_mean        =  -2.0474999028391E-24
(PID.TID 0001.0001) %MON extforcing_empmr_sd          =   2.4051723601802E-08
(PID.TID 0001.0001) %MON extforcing_empmr_del2        =   1.2835223797615E-09
(PID.TID 0001.0001) %MON extforcing_fu_max            =   2.4279378961307E-01
(PID.TID 0001.0001) %MON extforcing_fu_min            =  -2.4221101327311E-01
(PID.TID 0001.0001) %MON extforcing_fu_mean           =  -3.9653198147169E-03
(PID.TID 0001.0001) %MON extforcing_fu_sd             =   6.5093226618548E-02
(PID.TID 0001.0001) %MON extforcing_fu_del2           =   3.0576862075113E-03
(PID.TID 0001.0001) %MON extforcing_fv_max            =   2.9145284083641E-01
(PID.TID 0001.0001) %MON extforcing_fv_min            =  -3.3262320792717E-01
(PID.TID 0001.0001) %MON extforcing_fv_mean           =  -1.3742738456966E-02
(PID.TID 0001.0001) %MON extforcing_fv_sd             =   7.6292315827831E-02
(PID.TID 0001.0001) %MON extforcing_fv_del2           =   3.2790803153573E-03
(PID.TID 0001.0001) %MON advcfl_uvel_max              =   7.9700623050117E-02
(PID.TID 0001.0001) %MON advcfl_vvel_max              =   7.5651638485797E-02
(PID.TID 0001.0001) %MON advcfl_wvel_max              =   6.5901561301734E-02
(PID.TID 0001.0001) %MON advcfl_W_hf_max              =   1.1107780903030E-01
(PID.TID 0001.0001) %MON pe_b_mean                    =   4.7542373428798E-04
(PID.TID 0001.0001) %MON ke_max                       =   3.8388151407737E-02
(PID.TID 0001.0001) %MON ke_mean                      =   1.4083612314067E-04
(PID.TID 0001.0001) %MON ke_vol                       =   1.3398024453628E+18
(PID.TID 0001.0001) %MON vort_r_min                   =  -1.2762929165895E-06
(PID.TID 0001.0001) %MON vort_r_max                   =   1.2484044208804E-06
(PID.TID 0001.0001) %MON vort_a_mean                  =  -2.0493733748264E-05
(PID.TID 0001.0001) %MON vort_a_sd                    =   7.5053945971934E-05
(PID.TID 0001.0001) %MON vort_p_mean                  =  -2.4715773360481E-05
(PID.TID 0001.0001) %MON vort_p_sd                    =   1.2777072985763E-04
(PID.TID 0001.0001) %MON surfExpan_theta_mean         =   4.7351391404880E-08
(PID.TID 0001.0001) %MON surfExpan_salt_mean          =   1.4529845108754E-08
(PID.TID 0001.0001) // =======================================================
(PID.TID 0001.0001) // End MONITOR dynamic field statistics
(PID.TID 0001.0001) // =======================================================
 DRIVER_GET_EXPORT_STATE_3D:MASK. This code is stubbed!
 DRIVER_SET_IMPORT_STATE_3D:SWHEAT. This code is stubbed!
 cg2d: Sum(rhs),rhsMax =  -9.69180291576777E-12  1.37266679606478E+00
(PID.TID 0001.0001)                    cg2d_init_res =    1.62200941225836E-01
(PID.TID 0001.0001)                       cg2d_iters =    62
(PID.TID 0001.0001)                         cg2d_res =    4.88008238978264E-07
(PID.TID 0001.0001) // =======================================================
(PID.TID 0001.0001) // Begin MONITOR dynamic field statistics
(PID.TID 0001.0001) // =======================================================
(PID.TID 0001.0001) %MON time_tsnumber                =                 72019
(PID.TID 0001.0001) %MON time_secondsf                =   6.2224416000000E+09
(PID.TID 0001.0001) %MON dynstat_eta_max              =   8.9598704566168E-01
(PID.TID 0001.0001) %MON dynstat_eta_min              =  -1.6084366003685E+00
(PID.TID 0001.0001) %MON dynstat_eta_mean             =   1.4400085136058E-14
(PID.TID 0001.0001) %MON dynstat_eta_sd               =   5.9731879699461E-01
(PID.TID 0001.0001) %MON dynstat_eta_del2             =   1.1267270944364E-02
(PID.TID 0001.0001) %MON dynstat_uvel_max             =   1.8518514887670E-01
(PID.TID 0001.0001) %MON dynstat_uvel_min             =  -2.8049040774124E-01
(PID.TID 0001.0001) %MON dynstat_uvel_mean            =  -4.8023797613862E-04
(PID.TID 0001.0001) %MON dynstat_uvel_sd              =   1.2019719855539E-02
(PID.TID 0001.0001) %MON dynstat_uvel_del2            =   1.5642786371298E-03
(PID.TID 0001.0001) %MON dynstat_vvel_max             =   1.7326485730258E-01
(PID.TID 0001.0001) %MON dynstat_vvel_min             =  -2.2374754645759E-01
(PID.TID 0001.0001) %MON dynstat_vvel_mean            =  -3.9805171399702E-04
(PID.TID 0001.0001) %MON dynstat_vvel_sd              =   1.2651459800097E-02
(PID.TID 0001.0001) %MON dynstat_vvel_del2            =   1.5871449800101E-03
(PID.TID 0001.0001) %MON dynstat_wvel_max             =   1.0979251645311E-04
(PID.TID 0001.0001) %MON dynstat_wvel_min             =  -2.0166270757160E-04
(PID.TID 0001.0001) %MON dynstat_wvel_mean            =   5.1861161048754E-12
(PID.TID 0001.0001) %MON dynstat_wvel_sd              =   3.7937782731423E-06
(PID.TID 0001.0001) %MON dynstat_wvel_del2            =   8.3533405094784E-07
(PID.TID 0001.0001) %MON dynstat_theta_max            =   3.1143375751424E+01
(PID.TID 0001.0001) %MON dynstat_theta_min            =  -3.3567209559978E+00
(PID.TID 0001.0001) %MON dynstat_theta_mean           =   3.9102435913111E+00
(PID.TID 0001.0001) %MON dynstat_theta_sd             =   4.5725294861958E+00
(PID.TID 0001.0001) %MON dynstat_theta_del2           =   8.8036992656308E-02
(PID.TID 0001.0001) %MON dynstat_salt_max             =   4.1397044866695E+01
(PID.TID 0001.0001) %MON dynstat_salt_min             =   1.8389821363434E+01
(PID.TID 0001.0001) %MON dynstat_salt_mean            =   3.4772078517115E+01
(PID.TID 0001.0001) %MON dynstat_salt_sd              =   5.3143010680742E-01
(PID.TID 0001.0001) %MON dynstat_salt_del2            =   1.8805721564529E-02
(PID.TID 0001.0001) %MON dynstat_sst_max              =   3.1143375751424E+01
(PID.TID 0001.0001) %MON dynstat_sst_min              =  -1.9867358896279E+00
(PID.TID 0001.0001) %MON dynstat_sst_mean             =   1.8195947810566E+01
(PID.TID 0001.0001) %MON dynstat_sst_sd               =   9.7526113903230E+00
(PID.TID 0001.0001) %MON dynstat_sst_del2             =   2.0914693458883E-01
(PID.TID 0001.0001) %MON dynstat_sss_max              =   4.1397044866695E+01
(PID.TID 0001.0001) %MON dynstat_sss_min              =   1.8389821363434E+01
(PID.TID 0001.0001) %MON dynstat_sss_mean             =   3.4625653751525E+01
(PID.TID 0001.0001) %MON dynstat_sss_sd               =   1.4631744197280E+00
(PID.TID 0001.0001) %MON dynstat_sss_del2             =   7.9624916994355E-02
(PID.TID 0001.0001) %MON extforcing_qnet_max          =   4.4835989866233E+02
(PID.TID 0001.0001) %MON extforcing_qnet_min          =  -1.9586302274640E+02
(PID.TID 0001.0001) %MON extforcing_qnet_mean         =  -1.2466241527356E+01
(PID.TID 0001.0001) %MON extforcing_qnet_sd           =   1.1016181871259E+02
(PID.TID 0001.0001) %MON extforcing_qnet_del2         =   5.2679889797234E+00
(PID.TID 0001.0001) %MON extforcing_qsw_max           =   0.0000000000000E+00
(PID.TID 0001.0001) %MON extforcing_qsw_min           =   0.0000000000000E+00
(PID.TID 0001.0001) %MON extforcing_qsw_mean          =   0.0000000000000E+00
(PID.TID 0001.0001) %MON extforcing_qsw_sd            =   0.0000000000000E+00
(PID.TID 0001.0001) %MON extforcing_qsw_del2          =   0.0000000000000E+00
(PID.TID 0001.0001) %MON extforcing_empmr_max         =   7.6494447208479E-08
(PID.TID 0001.0001) %MON extforcing_empmr_min         =  -1.5362614137596E-07
(PID.TID 0001.0001) %MON extforcing_empmr_mean        =  -1.6379999222713E-24
(PID.TID 0001.0001) %MON extforcing_empmr_sd          =   2.4051723601802E-08
(PID.TID 0001.0001) %MON extforcing_empmr_del2        =   1.2835223797615E-09
(PID.TID 0001.0001) %MON extforcing_fu_max            =   2.3972677870247E-01
(PID.TID 0001.0001) %MON extforcing_fu_min            =  -2.3770170012775E-01
(PID.TID 0001.0001) %MON extforcing_fu_mean           =  -3.9974178686683E-03
(PID.TID 0001.0001) %MON extforcing_fu_sd             =   6.4922533409380E-02
(PID.TID 0001.0001) %MON extforcing_fu_del2           =   3.0211648959776E-03
(PID.TID 0001.0001) %MON extforcing_fv_max            =   2.9064945924193E-01
(PID.TID 0001.0001) %MON extforcing_fv_min            =  -3.2918415574839E-01
(PID.TID 0001.0001) %MON extforcing_fv_mean           =  -1.3740879800064E-02
(PID.TID 0001.0001) %MON extforcing_fv_sd             =   7.6058749843463E-02
(PID.TID 0001.0001) %MON extforcing_fv_del2           =   3.2485535690135E-03
(PID.TID 0001.0001) %MON advcfl_uvel_max              =   7.9552400170031E-02
(PID.TID 0001.0001) %MON advcfl_vvel_max              =   7.5523710305772E-02
(PID.TID 0001.0001) %MON advcfl_wvel_max              =   6.5749652581834E-02
(PID.TID 0001.0001) %MON advcfl_W_hf_max              =   1.1055947135146E-01
(PID.TID 0001.0001) %MON pe_b_mean                    =   4.7530987401394E-04
(PID.TID 0001.0001) %MON ke_max                       =   3.8236699450609E-02
(PID.TID 0001.0001) %MON ke_mean                      =   1.4080793025928E-04
(PID.TID 0001.0001) %MON ke_vol                       =   1.3398024453628E+18
(PID.TID 0001.0001) %MON vort_r_min                   =  -1.2810818939200E-06
(PID.TID 0001.0001) %MON vort_r_max                   =   1.2491472181929E-06
(PID.TID 0001.0001) %MON vort_a_mean                  =  -2.0493733748264E-05
(PID.TID 0001.0001) %MON vort_a_sd                    =   7.5053945907561E-05
(PID.TID 0001.0001) %MON vort_p_mean                  =  -2.4715773327924E-05
(PID.TID 0001.0001) %MON vort_p_sd                    =   1.2777072809787E-04
(PID.TID 0001.0001) %MON surfExpan_theta_mean         =   4.7335836380806E-08
(PID.TID 0001.0001) %MON surfExpan_salt_mean          =   1.4604696125475E-08
(PID.TID 0001.0001) // =======================================================
(PID.TID 0001.0001) // End MONITOR dynamic field statistics
(PID.TID 0001.0001) // =======================================================
 DRIVER_GET_EXPORT_STATE_3D:MASK. This code is stubbed!
 DRIVER_SET_IMPORT_STATE_3D:SWHEAT. This code is stubbed!
 cg2d: Sum(rhs),rhsMax =  -9.35074240260292E-12  1.37364544791366E+00
(PID.TID 0001.0001)                    cg2d_init_res =    1.59526895021073E-01
(PID.TID 0001.0001)                       cg2d_iters =    62
(PID.TID 0001.0001)                         cg2d_res =    4.66962655298925E-07
(PID.TID 0001.0001) // =======================================================
(PID.TID 0001.0001) // Begin MONITOR dynamic field statistics
(PID.TID 0001.0001) // =======================================================
(PID.TID 0001.0001) %MON time_tsnumber                =                 72020
(PID.TID 0001.0001) %MON time_secondsf                =   6.2225280000000E+09
(PID.TID 0001.0001) %MON dynstat_eta_max              =   8.9497899284333E-01
(PID.TID 0001.0001) %MON dynstat_eta_min              =  -1.6078507915682E+00
(PID.TID 0001.0001) %MON dynstat_eta_mean             =   1.4482528371570E-14
(PID.TID 0001.0001) %MON dynstat_eta_sd               =   5.9725270343883E-01
(PID.TID 0001.0001) %MON dynstat_eta_del2             =   1.1270013082940E-02
(PID.TID 0001.0001) %MON dynstat_uvel_max             =   1.8505065622760E-01
(PID.TID 0001.0001) %MON dynstat_uvel_min             =  -2.7995549178342E-01
(PID.TID 0001.0001) %MON dynstat_uvel_mean            =  -4.7968757094976E-04
(PID.TID 0001.0001) %MON dynstat_uvel_sd              =   1.2020486415400E-02
(PID.TID 0001.0001) %MON dynstat_uvel_del2            =   1.5644412172322E-03
(PID.TID 0001.0001) %MON dynstat_vvel_max             =   1.7294720911366E-01
(PID.TID 0001.0001) %MON dynstat_vvel_min             =  -2.2360734854920E-01
(PID.TID 0001.0001) %MON dynstat_vvel_mean            =  -3.9757069959236E-04
(PID.TID 0001.0001) %MON dynstat_vvel_sd              =   1.2647905173021E-02
(PID.TID 0001.0001) %MON dynstat_vvel_del2            =   1.5870144439360E-03
(PID.TID 0001.0001) %MON dynstat_wvel_max             =   1.1002610886212E-04
(PID.TID 0001.0001) %MON dynstat_wvel_min             =  -2.0118993344425E-04
(PID.TID 0001.0001) %MON dynstat_wvel_mean            =  -4.1832296485407E-12
(PID.TID 0001.0001) %MON dynstat_wvel_sd              =   3.7911366288909E-06
(PID.TID 0001.0001) %MON dynstat_wvel_del2            =   8.3551520150933E-07
(PID.TID 0001.0001) %MON dynstat_theta_max            =   3.1154221563770E+01
(PID.TID 0001.0001) %MON dynstat_theta_min            =  -3.3761140224779E+00
(PID.TID 0001.0001) %MON dynstat_theta_mean           =   3.9103041033372E+00
(PID.TID 0001.0001) %MON dynstat_theta_sd             =   4.5726773631223E+00
(PID.TID 0001.0001) %MON dynstat_theta_del2           =   8.8094347014475E-02
(PID.TID 0001.0001) %MON dynstat_salt_max             =   4.1397603428116E+01
(PID.TID 0001.0001) %MON dynstat_salt_min             =   1.8390198996565E+01
(PID.TID 0001.0001) %MON dynstat_salt_mean            =   3.4772079208515E+01
(PID.TID 0001.0001) %MON dynstat_salt_sd              =   5.3142693301276E-01
(PID.TID 0001.0001) %MON dynstat_salt_del2            =   1.8812001205026E-02
(PID.TID 0001.0001) %MON dynstat_sst_max              =   3.1154221563770E+01
(PID.TID 0001.0001) %MON dynstat_sst_min              =  -1.9856988189316E+00
(PID.TID 0001.0001) %MON dynstat_sst_mean             =   1.8201208339198E+01
(PID.TID 0001.0001) %MON dynstat_sst_sd               =   9.7516836204192E+00
(PID.TID 0001.0001) %MON dynstat_sst_del2             =   2.0982862148446E-01
(PID.TID 0001.0001) %MON dynstat_sss_max              =   4.1397603428116E+01
(PID.TID 0001.0001) %MON dynstat_sss_min              =   1.8390198996565E+01
(PID.TID 0001.0001) %MON dynstat_sss_mean             =   3.4625417698288E+01
(PID.TID 0001.0001) %MON dynstat_sss_sd               =   1.4629536382109E+00
(PID.TID 0001.0001) %MON dynstat_sss_del2             =   7.9714871304993E-02
(PID.TID 0001.0001) %MON extforcing_qnet_max          =   4.4486238709081E+02
(PID.TID 0001.0001) %MON extforcing_qnet_min          =  -1.9564239975390E+02
(PID.TID 0001.0001) %MON extforcing_qnet_mean         =  -1.2511906062711E+01
(PID.TID 0001.0001) %MON extforcing_qnet_sd           =   1.0914044317154E+02
(PID.TID 0001.0001) %MON extforcing_qnet_del2         =   5.2340227781318E+00
(PID.TID 0001.0001) %MON extforcing_qsw_max           =   0.0000000000000E+00
(PID.TID 0001.0001) %MON extforcing_qsw_min           =   0.0000000000000E+00
(PID.TID 0001.0001) %MON extforcing_qsw_mean          =   0.0000000000000E+00
(PID.TID 0001.0001) %MON extforcing_qsw_sd            =   0.0000000000000E+00
(PID.TID 0001.0001) %MON extforcing_qsw_del2          =   0.0000000000000E+00
(PID.TID 0001.0001) %MON extforcing_empmr_max         =   7.6494447208479E-08
(PID.TID 0001.0001) %MON extforcing_empmr_min         =  -1.5362614137596E-07
(PID.TID 0001.0001) %MON extforcing_empmr_mean        =  -2.0474999028391E-24
(PID.TID 0001.0001) %MON extforcing_empmr_sd          =   2.4051723601802E-08
(PID.TID 0001.0001) %MON extforcing_empmr_del2        =   1.2835223797615E-09
(PID.TID 0001.0001) %MON extforcing_fu_max            =   2.3665976779186E-01
(PID.TID 0001.0001) %MON extforcing_fu_min            =  -2.3356264696351E-01
(PID.TID 0001.0001) %MON extforcing_fu_mean           =  -4.0295145459449E-03
(PID.TID 0001.0001) %MON extforcing_fu_sd             =   6.4765832249388E-02
(PID.TID 0001.0001) %MON extforcing_fu_del2           =   2.9880717597438E-03
(PID.TID 0001.0001) %MON extforcing_fv_max            =   2.8984607764745E-01
(PID.TID 0001.0001) %MON extforcing_fv_min            =  -3.2574510356961E-01
(PID.TID 0001.0001) %MON extforcing_fv_mean           =  -1.3739020494805E-02
(PID.TID 0001.0001) %MON extforcing_fv_sd             =   7.5841766011016E-02
(PID.TID 0001.0001) %MON extforcing_fv_del2           =   3.2203709285386E-03
(PID.TID 0001.0001) %MON advcfl_uvel_max              =   7.9400687857740E-02
(PID.TID 0001.0001) %MON advcfl_vvel_max              =   7.5385251935317E-02
(PID.TID 0001.0001) %MON advcfl_wvel_max              =   6.5595510375786E-02
(PID.TID 0001.0001) %MON advcfl_W_hf_max              =   1.0998262682268E-01
(PID.TID 0001.0001) %MON pe_b_mean                    =   4.7520469339083E-04
(PID.TID 0001.0001) %MON ke_max                       =   3.8084002347566E-02
(PID.TID 0001.0001) %MON ke_mean                      =   1.4077426859334E-04
(PID.TID 0001.0001) %MON ke_vol                       =   1.3398024453628E+18
(PID.TID 0001.0001) %MON vort_r_min                   =  -1.2856222617857E-06
(PID.TID 0001.0001) %MON vort_r_max                   =   1.2495343166124E-06
(PID.TID 0001.0001) %MON vort_a_mean                  =  -2.0493733748264E-05
(PID.TID 0001.0001) %MON vort_a_sd                    =   7.5053945852905E-05
(PID.TID 0001.0001) %MON vort_p_mean                  =  -2.4715773289653E-05
(PID.TID 0001.0001) %MON vort_p_sd                    =   1.2777072624998E-04
(PID.TID 0001.0001) %MON surfExpan_theta_mean         =   4.7370942360785E-08
(PID.TID 0001.0001) %MON surfExpan_salt_mean          =   1.4719334875877E-08
(PID.TID 0001.0001) // =======================================================
(PID.TID 0001.0001) // End MONITOR dynamic field statistics
(PID.TID 0001.0001) // =======================================================
(PID.TID 0001.0001) %CHECKPOINT     72020 0000072020
 DRIVER_GET_EXPORT_STATE_3D:MASK. This code is stubbed!
 DRIVER_SET_IMPORT_STATE_3D:SWHEAT. This code is stubbed!
 cg2d: Sum(rhs),rhsMax =  -9.74864633462857E-12  1.37450315060656E+00
(PID.TID 0001.0001)                    cg2d_init_res =    1.48586073099944E-01
(PID.TID 0001.0001)                       cg2d_iters =    62
(PID.TID 0001.0001)                         cg2d_res =    4.51456389215141E-07
(PID.TID 0001.0001) // =======================================================
(PID.TID 0001.0001) // Begin MONITOR dynamic field statistics
(PID.TID 0001.0001) // =======================================================
(PID.TID 0001.0001) %MON time_tsnumber                =                 72021
(PID.TID 0001.0001) %MON time_secondsf                =   6.2226144000000E+09
(PID.TID 0001.0001) %MON dynstat_eta_max              =   8.9399943396306E-01
(PID.TID 0001.0001) %MON dynstat_eta_min              =  -1.6072756246300E+00
(PID.TID 0001.0001) %MON dynstat_eta_mean             =   1.4647414842594E-14
(PID.TID 0001.0001) %MON dynstat_eta_sd               =   5.9719140120455E-01
(PID.TID 0001.0001) %MON dynstat_eta_del2             =   1.1272538676807E-02
(PID.TID 0001.0001) %MON dynstat_uvel_max             =   1.8485442274324E-01
(PID.TID 0001.0001) %MON dynstat_uvel_min             =  -2.7940840410825E-01
(PID.TID 0001.0001) %MON dynstat_uvel_mean            =  -4.7916172547183E-04
(PID.TID 0001.0001) %MON dynstat_uvel_sd              =   1.2021134748250E-02
(PID.TID 0001.0001) %MON dynstat_uvel_del2            =   1.5645947602082E-03
(PID.TID 0001.0001) %MON dynstat_vvel_max             =   1.7260809494454E-01
(PID.TID 0001.0001) %MON dynstat_vvel_min             =  -2.2346065939098E-01
(PID.TID 0001.0001) %MON dynstat_vvel_mean            =  -3.9706424702051E-04
(PID.TID 0001.0001) %MON dynstat_vvel_sd              =   1.2644035919558E-02
(PID.TID 0001.0001) %MON dynstat_vvel_del2            =   1.5869672222450E-03
(PID.TID 0001.0001) %MON dynstat_wvel_max             =   1.1020481435062E-04
(PID.TID 0001.0001) %MON dynstat_wvel_min             =  -2.0071835228055E-04
(PID.TID 0001.0001) %MON dynstat_wvel_mean            =  -1.4744788886938E-11
(PID.TID 0001.0001) %MON dynstat_wvel_sd              =   3.7882756511368E-06
(PID.TID 0001.0001) %MON dynstat_wvel_del2            =   8.3568950212999E-07
(PID.TID 0001.0001) %MON dynstat_theta_max            =   3.1164358383266E+01
(PID.TID 0001.0001) %MON dynstat_theta_min            =  -3.3956288451366E+00
(PID.TID 0001.0001) %MON dynstat_theta_mean           =   3.9103649783697E+00
(PID.TID 0001.0001) %MON dynstat_theta_sd             =   4.5728359486297E+00
(PID.TID 0001.0001) %MON dynstat_theta_del2           =   8.8140890385520E-02
(PID.TID 0001.0001) %MON dynstat_salt_max             =   4.1398171622212E+01
(PID.TID 0001.0001) %MON dynstat_salt_min             =   1.8390577846239E+01
(PID.TID 0001.0001) %MON dynstat_salt_mean            =   3.4772079914113E+01
(PID.TID 0001.0001) %MON dynstat_salt_sd              =   5.3142408443121E-01
(PID.TID 0001.0001) %MON dynstat_salt_del2            =   1.8817419480201E-02
(PID.TID 0001.0001) %MON dynstat_sst_max              =   3.1164358383266E+01
(PID.TID 0001.0001) %MON dynstat_sst_min              =  -2.0445770515108E+00
(PID.TID 0001.0001) %MON dynstat_sst_mean             =   1.8205985093024E+01
(PID.TID 0001.0001) %MON dynstat_sst_sd               =   9.7516249380651E+00
(PID.TID 0001.0001) %MON dynstat_sst_del2             =   2.1027860842472E-01
(PID.TID 0001.0001) %MON dynstat_sss_max              =   4.1398171622212E+01
(PID.TID 0001.0001) %MON dynstat_sss_min              =   1.8390577846239E+01
(PID.TID 0001.0001) %MON dynstat_sss_mean             =   3.4625079614081E+01
(PID.TID 0001.0001) %MON dynstat_sss_sd               =   1.4627141482624E+00
(PID.TID 0001.0001) %MON dynstat_sss_del2             =   7.9821309149334E-02
(PID.TID 0001.0001) %MON extforcing_qnet_max          =   4.4307014545936E+02
(PID.TID 0001.0001) %MON extforcing_qnet_min          =  -1.9542177676140E+02
(PID.TID 0001.0001) %MON extforcing_qnet_mean         =  -1.2557570598066E+01
(PID.TID 0001.0001) %MON extforcing_qnet_sd           =   1.0812850235098E+02
(PID.TID 0001.0001) %MON extforcing_qnet_del2         =   5.2013863997363E+00
(PID.TID 0001.0001) %MON extforcing_qsw_max           =   0.0000000000000E+00
(PID.TID 0001.0001) %MON extforcing_qsw_min           =   0.0000000000000E+00
(PID.TID 0001.0001) %MON extforcing_qsw_mean          =   0.0000000000000E+00
(PID.TID 0001.0001) %MON extforcing_qsw_sd            =   0.0000000000000E+00
(PID.TID 0001.0001) %MON extforcing_qsw_del2          =   0.0000000000000E+00
(PID.TID 0001.0001) %MON extforcing_empmr_max         =   7.6494447208479E-08
(PID.TID 0001.0001) %MON extforcing_empmr_min         =  -1.5362614137596E-07
(PID.TID 0001.0001) %MON extforcing_empmr_mean        =  -2.0474999028391E-24
(PID.TID 0001.0001) %MON extforcing_empmr_sd          =   2.4051723601802E-08
(PID.TID 0001.0001) %MON extforcing_empmr_del2        =   1.2835223797615E-09
(PID.TID 0001.0001) %MON extforcing_fu_max            =   2.3359275688126E-01
(PID.TID 0001.0001) %MON extforcing_fu_min            =  -2.2942359379928E-01
(PID.TID 0001.0001) %MON extforcing_fu_mean           =  -4.0616103104442E-03
(PID.TID 0001.0001) %MON extforcing_fu_sd             =   6.4623224733771E-02
(PID.TID 0001.0001) %MON extforcing_fu_del2           =   2.9582723027382E-03
(PID.TID 0001.0001) %MON extforcing_fv_max            =   2.8904269605297E-01
(PID.TID 0001.0001) %MON extforcing_fv_min            =  -3.2230605139082E-01
(PID.TID 0001.0001) %MON extforcing_fv_mean           =  -1.3737161806058E-02
(PID.TID 0001.0001) %MON extforcing_fv_sd             =   7.5641507406940E-02
(PID.TID 0001.0001) %MON extforcing_fv_del2           =   3.1944166194811E-03
(PID.TID 0001.0001) %MON advcfl_uvel_max              =   7.9245523415526E-02
(PID.TID 0001.0001) %MON advcfl_vvel_max              =   7.5237436846513E-02
(PID.TID 0001.0001) %MON advcfl_wvel_max              =   6.5441757120903E-02
(PID.TID 0001.0001) %MON advcfl_W_hf_max              =   1.0934802892963E-01
(PID.TID 0001.0001) %MON pe_b_mean                    =   4.7510714803268E-04
(PID.TID 0001.0001) %MON ke_max                       =   3.7930076751240E-02
(PID.TID 0001.0001) %MON ke_mean                      =   1.4073562377677E-04
(PID.TID 0001.0001) %MON ke_vol                       =   1.3398024453628E+18
(PID.TID 0001.0001) %MON vort_r_min                   =  -1.2899045359090E-06
(PID.TID 0001.0001) %MON vort_r_max                   =   1.2495520575364E-06
(PID.TID 0001.0001) %MON vort_a_mean                  =  -2.0493733748264E-05
(PID.TID 0001.0001) %MON vort_a_sd                    =   7.5053945806273E-05
(PID.TID 0001.0001) %MON vort_p_mean                  =  -2.4715773245868E-05
(PID.TID 0001.0001) %MON vort_p_sd                    =   1.2777072424395E-04
(PID.TID 0001.0001) %MON surfExpan_theta_mean         =   4.7451505221017E-08
(PID.TID 0001.0001) %MON surfExpan_salt_mean          =   1.4861759466993E-08
(PID.TID 0001.0001) // =======================================================
(PID.TID 0001.0001) // End MONITOR dynamic field statistics
(PID.TID 0001.0001) // =======================================================
 DRIVER_GET_EXPORT_STATE_3D:MASK. This code is stubbed!
 DRIVER_SET_IMPORT_STATE_3D:SWHEAT. This code is stubbed!
 cg2d: Sum(rhs),rhsMax =  -9.72022462519817E-12  1.37539041537514E+00
(PID.TID 0001.0001)                    cg2d_init_res =    1.42658471692482E-01
(PID.TID 0001.0001)                       cg2d_iters =    61
(PID.TID 0001.0001)                         cg2d_res =    5.71074834679287E-07
(PID.TID 0001.0001) // =======================================================
(PID.TID 0001.0001) // Begin MONITOR dynamic field statistics
(PID.TID 0001.0001) // =======================================================
(PID.TID 0001.0001) %MON time_tsnumber                =                 72022
(PID.TID 0001.0001) %MON time_secondsf                =   6.2227008000000E+09
(PID.TID 0001.0001) %MON dynstat_eta_max              =   8.9305101787270E-01
(PID.TID 0001.0001) %MON dynstat_eta_min              =  -1.6067105795134E+00
(PID.TID 0001.0001) %MON dynstat_eta_mean             =   1.4262679743539E-14
(PID.TID 0001.0001) %MON dynstat_eta_sd               =   5.9713478308172E-01
(PID.TID 0001.0001) %MON dynstat_eta_del2             =   1.1275271952218E-02
(PID.TID 0001.0001) %MON dynstat_uvel_max             =   1.8459911962804E-01
(PID.TID 0001.0001) %MON dynstat_uvel_min             =  -2.7884931509708E-01
(PID.TID 0001.0001) %MON dynstat_uvel_mean            =  -4.7865476424876E-04
(PID.TID 0001.0001) %MON dynstat_uvel_sd              =   1.2021629094917E-02
(PID.TID 0001.0001) %MON dynstat_uvel_del2            =   1.5647785730504E-03
(PID.TID 0001.0001) %MON dynstat_vvel_max             =   1.7225040103908E-01
(PID.TID 0001.0001) %MON dynstat_vvel_min             =  -2.2330781258758E-01
(PID.TID 0001.0001) %MON dynstat_vvel_mean            =  -3.9653934418408E-04
(PID.TID 0001.0001) %MON dynstat_vvel_sd              =   1.2639933581404E-02
(PID.TID 0001.0001) %MON dynstat_vvel_del2            =   1.5869259394119E-03
(PID.TID 0001.0001) %MON dynstat_wvel_max             =   1.1032519770636E-04
(PID.TID 0001.0001) %MON dynstat_wvel_min             =  -2.0025429338801E-04
(PID.TID 0001.0001) %MON dynstat_wvel_mean            =  -2.4503573016338E-11
(PID.TID 0001.0001) %MON dynstat_wvel_sd              =   3.7851458317014E-06
(PID.TID 0001.0001) %MON dynstat_wvel_del2            =   8.3590101289917E-07
(PID.TID 0001.0001) %MON dynstat_theta_max            =   3.1173802853703E+01
(PID.TID 0001.0001) %MON dynstat_theta_min            =  -3.4152721314156E+00
(PID.TID 0001.0001) %MON dynstat_theta_mean           =   3.9104265812654E+00
(PID.TID 0001.0001) %MON dynstat_theta_sd             =   4.5730034886680E+00
(PID.TID 0001.0001) %MON dynstat_theta_del2           =   8.8195522422263E-02
(PID.TID 0001.0001) %MON dynstat_salt_max             =   4.1398749613569E+01
(PID.TID 0001.0001) %MON dynstat_salt_min             =   1.8390957909026E+01
(PID.TID 0001.0001) %MON dynstat_salt_mean            =   3.4772080636707E+01
(PID.TID 0001.0001) %MON dynstat_salt_sd              =   5.3142134406563E-01
(PID.TID 0001.0001) %MON dynstat_salt_del2            =   1.8829148509165E-02
(PID.TID 0001.0001) %MON dynstat_sst_max              =   3.1173802853703E+01
(PID.TID 0001.0001) %MON dynstat_sst_min              =  -2.0432007329056E+00
(PID.TID 0001.0001) %MON dynstat_sst_mean             =   1.8210833697079E+01
(PID.TID 0001.0001) %MON dynstat_sst_sd               =   9.7518116491899E+00
(PID.TID 0001.0001) %MON dynstat_sst_del2             =   2.1068988903096E-01
(PID.TID 0001.0001) %MON dynstat_sss_max              =   4.1398749613569E+01
(PID.TID 0001.0001) %MON dynstat_sss_min              =   1.8390957909026E+01
(PID.TID 0001.0001) %MON dynstat_sss_mean             =   3.4624743616296E+01
(PID.TID 0001.0001) %MON dynstat_sss_sd               =   1.4624862878418E+00
(PID.TID 0001.0001) %MON dynstat_sss_del2             =   7.9918249591180E-02
(PID.TID 0001.0001) %MON extforcing_qnet_max          =   4.4127790382791E+02
(PID.TID 0001.0001) %MON extforcing_qnet_min          =  -1.9520115376890E+02
(PID.TID 0001.0001) %MON extforcing_qnet_mean         =  -1.2603235133421E+01
(PID.TID 0001.0001) %MON extforcing_qnet_sd           =   1.0712626361927E+02
(PID.TID 0001.0001) %MON extforcing_qnet_del2         =   5.1707127709495E+00
(PID.TID 0001.0001) %MON extforcing_qsw_max           =   0.0000000000000E+00
(PID.TID 0001.0001) %MON extforcing_qsw_min           =   0.0000000000000E+00
(PID.TID 0001.0001) %MON extforcing_qsw_mean          =   0.0000000000000E+00
(PID.TID 0001.0001) %MON extforcing_qsw_sd            =   0.0000000000000E+00
(PID.TID 0001.0001) %MON extforcing_qsw_del2          =   0.0000000000000E+00
(PID.TID 0001.0001) %MON extforcing_empmr_max         =   7.6494447208479E-08
(PID.TID 0001.0001) %MON extforcing_empmr_min         =  -1.5362614137596E-07
(PID.TID 0001.0001) %MON extforcing_empmr_mean        =  -1.6379999222713E-24
(PID.TID 0001.0001) %MON extforcing_empmr_sd          =   2.4051723601802E-08
(PID.TID 0001.0001) %MON extforcing_empmr_del2        =   1.2835223797615E-09
(PID.TID 0001.0001) %MON extforcing_fu_max            =   2.3360841297569E-01
(PID.TID 0001.0001) %MON extforcing_fu_min            =  -2.2528454063504E-01
(PID.TID 0001.0001) %MON extforcing_fu_mean           =  -4.0937055776147E-03
(PID.TID 0001.0001) %MON extforcing_fu_sd             =   6.4494804133781E-02
(PID.TID 0001.0001) %MON extforcing_fu_del2           =   2.9309147728276E-03
(PID.TID 0001.0001) %MON extforcing_fv_max            =   2.8823931445849E-01
(PID.TID 0001.0001) %MON extforcing_fv_min            =  -3.1886699921204E-01
(PID.TID 0001.0001) %MON extforcing_fv_mean           =  -1.3735304497303E-02
(PID.TID 0001.0001) %MON extforcing_fv_sd             =   7.5458107283471E-02
(PID.TID 0001.0001) %MON extforcing_fv_del2           =   3.1706989964255E-03
(PID.TID 0001.0001) %MON advcfl_uvel_max              =   7.9086955166775E-02
(PID.TID 0001.0001) %MON advcfl_vvel_max              =   7.5081523112389E-02
(PID.TID 0001.0001) %MON advcfl_wvel_max              =   6.5290456410279E-02
(PID.TID 0001.0001) %MON advcfl_W_hf_max              =   1.0865648227031E-01
(PID.TID 0001.0001) %MON pe_b_mean                    =   4.7501706502188E-04
(PID.TID 0001.0001) %MON ke_max                       =   3.7774943336372E-02
(PID.TID 0001.0001) %MON ke_mean                      =   1.4069256041802E-04
(PID.TID 0001.0001) %MON ke_vol                       =   1.3398024453628E+18
(PID.TID 0001.0001) %MON vort_r_min                   =  -1.2939219571138E-06
(PID.TID 0001.0001) %MON vort_r_max                   =   1.2491983878891E-06
(PID.TID 0001.0001) %MON vort_a_mean                  =  -2.0493733748264E-05
(PID.TID 0001.0001) %MON vort_a_sd                    =   7.5053945766457E-05
(PID.TID 0001.0001) %MON vort_p_mean                  =  -2.4715773197004E-05
(PID.TID 0001.0001) %MON vort_p_sd                    =   1.2777072206411E-04
(PID.TID 0001.0001) %MON surfExpan_theta_mean         =   4.7542071149710E-08
(PID.TID 0001.0001) %MON surfExpan_salt_mean          =   1.5005981765495E-08
(PID.TID 0001.0001) // =======================================================
(PID.TID 0001.0001) // End MONITOR dynamic field statistics
(PID.TID 0001.0001) // =======================================================
 DRIVER_GET_EXPORT_STATE_3D:MASK. This code is stubbed!
 DRIVER_SET_IMPORT_STATE_3D:SWHEAT. This code is stubbed!
 cg2d: Sum(rhs),rhsMax =  -9.77706804405898E-12  1.37613211773647E+00
(PID.TID 0001.0001)                    cg2d_init_res =    1.41854697350339E-01
(PID.TID 0001.0001)                       cg2d_iters =    61
(PID.TID 0001.0001)                         cg2d_res =    5.56987808469109E-07
(PID.TID 0001.0001) // =======================================================
(PID.TID 0001.0001) // Begin MONITOR dynamic field statistics
(PID.TID 0001.0001) // =======================================================
(PID.TID 0001.0001) %MON time_tsnumber                =                 72023
(PID.TID 0001.0001) %MON time_secondsf                =   6.2227872000000E+09
(PID.TID 0001.0001) %MON dynstat_eta_max              =   8.9213839385383E-01
(PID.TID 0001.0001) %MON dynstat_eta_min              =  -1.6061561122864E+00
(PID.TID 0001.0001) %MON dynstat_eta_mean             =   1.4262679743539E-14
(PID.TID 0001.0001) %MON dynstat_eta_sd               =   5.9708308032261E-01
(PID.TID 0001.0001) %MON dynstat_eta_del2             =   1.1278700274333E-02
(PID.TID 0001.0001) %MON dynstat_uvel_max             =   1.8428803834117E-01
(PID.TID 0001.0001) %MON dynstat_uvel_min             =  -2.7827840993494E-01
(PID.TID 0001.0001) %MON dynstat_uvel_mean            =  -4.7816047168047E-04
(PID.TID 0001.0001) %MON dynstat_uvel_sd              =   1.2021943394290E-02
(PID.TID 0001.0001) %MON dynstat_uvel_del2            =   1.5649490922136E-03
(PID.TID 0001.0001) %MON dynstat_vvel_max             =   1.7194667110712E-01
(PID.TID 0001.0001) %MON dynstat_vvel_min             =  -2.2314912153861E-01
(PID.TID 0001.0001) %MON dynstat_vvel_mean            =  -3.9600283778088E-04
(PID.TID 0001.0001) %MON dynstat_vvel_sd              =   1.2635676247106E-02
(PID.TID 0001.0001) %MON dynstat_vvel_del2            =   1.5868126344537E-03
(PID.TID 0001.0001) %MON dynstat_wvel_max             =   1.1038520159185E-04
(PID.TID 0001.0001) %MON dynstat_wvel_min             =  -1.9980330187099E-04
(PID.TID 0001.0001) %MON dynstat_wvel_mean            =  -3.3748457216265E-11
(PID.TID 0001.0001) %MON dynstat_wvel_sd              =   3.7817106699208E-06
(PID.TID 0001.0001) %MON dynstat_wvel_del2            =   8.3618350300482E-07
(PID.TID 0001.0001) %MON dynstat_theta_max            =   3.1182572694870E+01
(PID.TID 0001.0001) %MON dynstat_theta_min            =  -3.4350330439935E+00
(PID.TID 0001.0001) %MON dynstat_theta_mean           =   3.9104886453829E+00
(PID.TID 0001.0001) %MON dynstat_theta_sd             =   4.5731798228995E+00
(PID.TID 0001.0001) %MON dynstat_theta_del2           =   8.8201130839093E-02
(PID.TID 0001.0001) %MON dynstat_salt_max             =   4.1399337454144E+01
(PID.TID 0001.0001) %MON dynstat_salt_min             =   1.8391339237234E+01
(PID.TID 0001.0001) %MON dynstat_salt_mean            =   3.4772081376864E+01
(PID.TID 0001.0001) %MON dynstat_salt_sd              =   5.3141861542689E-01
(PID.TID 0001.0001) %MON dynstat_salt_del2            =   1.8830466275521E-02
(PID.TID 0001.0001) %MON dynstat_sst_max              =   3.1182572694870E+01
(PID.TID 0001.0001) %MON dynstat_sst_min              =  -2.0414370681071E+00
(PID.TID 0001.0001) %MON dynstat_sst_mean             =   1.8215772452410E+01
(PID.TID 0001.0001) %MON dynstat_sst_sd               =   9.7522535507960E+00
(PID.TID 0001.0001) %MON dynstat_sst_del2             =   2.1072113938013E-01
(PID.TID 0001.0001) %MON dynstat_sss_max              =   4.1399337454144E+01
(PID.TID 0001.0001) %MON dynstat_sss_min              =   1.8391339237234E+01
(PID.TID 0001.0001) %MON dynstat_sss_mean             =   3.4624432417798E+01
(PID.TID 0001.0001) %MON dynstat_sss_sd               =   1.4622981086173E+00
(PID.TID 0001.0001) %MON dynstat_sss_del2             =   7.9934806831027E-02
(PID.TID 0001.0001) %MON extforcing_qnet_max          =   4.3948566219646E+02
(PID.TID 0001.0001) %MON extforcing_qnet_min          =  -1.9498053077639E+02
(PID.TID 0001.0001) %MON extforcing_qnet_mean         =  -1.2648899668777E+01
(PID.TID 0001.0001) %MON extforcing_qnet_sd           =   1.0613400183143E+02
(PID.TID 0001.0001) %MON extforcing_qnet_del2         =   5.1422794426542E+00
(PID.TID 0001.0001) %MON extforcing_qsw_max           =   0.0000000000000E+00
(PID.TID 0001.0001) %MON extforcing_qsw_min           =   0.0000000000000E+00
(PID.TID 0001.0001) %MON extforcing_qsw_mean          =   0.0000000000000E+00
(PID.TID 0001.0001) %MON extforcing_qsw_sd            =   0.0000000000000E+00
(PID.TID 0001.0001) %MON extforcing_qsw_del2          =   0.0000000000000E+00
(PID.TID 0001.0001) %MON extforcing_empmr_max         =   7.6494447208479E-08
(PID.TID 0001.0001) %MON extforcing_empmr_min         =  -1.5362614137596E-07
(PID.TID 0001.0001) %MON extforcing_empmr_mean        =  -2.0474999028391E-24
(PID.TID 0001.0001) %MON extforcing_empmr_sd          =   2.4051723601802E-08
(PID.TID 0001.0001) %MON extforcing_empmr_del2        =   1.2835223797615E-09
(PID.TID 0001.0001) %MON extforcing_fu_max            =   2.3422413975100E-01
(PID.TID 0001.0001) %MON extforcing_fu_min            =  -2.2114548747080E-01
(PID.TID 0001.0001) %MON extforcing_fu_mean           =  -4.1258007353701E-03
(PID.TID 0001.0001) %MON extforcing_fu_sd             =   6.4380655140557E-02
(PID.TID 0001.0001) %MON extforcing_fu_del2           =   2.9069020338945E-03
(PID.TID 0001.0001) %MON extforcing_fv_max            =   2.8743593286400E-01
(PID.TID 0001.0001) %MON extforcing_fv_min            =  -3.1542794703326E-01
(PID.TID 0001.0001) %MON extforcing_fv_mean           =  -1.3733449074780E-02
(PID.TID 0001.0001) %MON extforcing_fv_sd             =   7.5291688938285E-02
(PID.TID 0001.0001) %MON extforcing_fv_del2           =   3.1495072308261E-03
(PID.TID 0001.0001) %MON advcfl_uvel_max              =   7.8925035633471E-02
(PID.TID 0001.0001) %MON advcfl_vvel_max              =   7.4949131514061E-02
(PID.TID 0001.0001) %MON advcfl_wvel_max              =   6.5143416157183E-02
(PID.TID 0001.0001) %MON advcfl_W_hf_max              =   1.0790883839938E-01
(PID.TID 0001.0001) %MON pe_b_mean                    =   4.7493481012622E-04
(PID.TID 0001.0001) %MON ke_max                       =   3.7618619561634E-02
(PID.TID 0001.0001) %MON ke_mean                      =   1.4064570833460E-04
(PID.TID 0001.0001) %MON ke_vol                       =   1.3398024453628E+18
(PID.TID 0001.0001) %MON vort_r_min                   =  -1.2976704959473E-06
(PID.TID 0001.0001) %MON vort_r_max                   =   1.2484760134498E-06
(PID.TID 0001.0001) %MON vort_a_mean                  =  -2.0493733748264E-05
(PID.TID 0001.0001) %MON vort_a_sd                    =   7.5053945732456E-05
(PID.TID 0001.0001) %MON vort_p_mean                  =  -2.4715773144124E-05
(PID.TID 0001.0001) %MON vort_p_sd                    =   1.2777071976300E-04
(PID.TID 0001.0001) %MON surfExpan_theta_mean         =   4.7646677684204E-08
(PID.TID 0001.0001) %MON surfExpan_salt_mean          =   1.5136739913278E-08
(PID.TID 0001.0001) // =======================================================
(PID.TID 0001.0001) // End MONITOR dynamic field statistics
(PID.TID 0001.0001) // =======================================================
 DRIVER_GET_EXPORT_STATE_3D:MASK. This code is stubbed!
 DRIVER_SET_IMPORT_STATE_3D:SWHEAT. This code is stubbed!
 cg2d: Sum(rhs),rhsMax =  -9.60653778747655E-12  1.37698217237346E+00
(PID.TID 0001.0001)                    cg2d_init_res =    1.41121655220500E-01
(PID.TID 0001.0001)                       cg2d_iters =    61
(PID.TID 0001.0001)                         cg2d_res =    5.43145375264631E-07
(PID.TID 0001.0001) // =======================================================
(PID.TID 0001.0001) // Begin MONITOR dynamic field statistics
(PID.TID 0001.0001) // =======================================================
(PID.TID 0001.0001) %MON time_tsnumber                =                 72024
(PID.TID 0001.0001) %MON time_secondsf                =   6.2228736000000E+09
(PID.TID 0001.0001) %MON dynstat_eta_max              =   8.9126506684422E-01
(PID.TID 0001.0001) %MON dynstat_eta_min              =  -1.6056133147249E+00
(PID.TID 0001.0001) %MON dynstat_eta_mean             =   1.4235198665035E-14
(PID.TID 0001.0001) %MON dynstat_eta_sd               =   5.9703636381107E-01
(PID.TID 0001.0001) %MON dynstat_eta_del2             =   1.1282148230730E-02
(PID.TID 0001.0001) %MON dynstat_uvel_max             =   1.8392501788639E-01
(PID.TID 0001.0001) %MON dynstat_uvel_min             =  -2.7769587795622E-01
(PID.TID 0001.0001) %MON dynstat_uvel_mean            =  -4.7767386235787E-04
(PID.TID 0001.0001) %MON dynstat_uvel_sd              =   1.2022061354795E-02
(PID.TID 0001.0001) %MON dynstat_uvel_del2            =   1.5651717312783E-03
(PID.TID 0001.0001) %MON dynstat_vvel_max             =   1.7319196170538E-01
(PID.TID 0001.0001) %MON dynstat_vvel_min             =  -2.2298487962121E-01
(PID.TID 0001.0001) %MON dynstat_vvel_mean            =  -3.9546013090069E-04
(PID.TID 0001.0001) %MON dynstat_vvel_sd              =   1.2631338167043E-02
(PID.TID 0001.0001) %MON dynstat_vvel_del2            =   1.5867329435122E-03
(PID.TID 0001.0001) %MON dynstat_wvel_max             =   1.1038398725237E-04
(PID.TID 0001.0001) %MON dynstat_wvel_min             =  -1.9937063041330E-04
(PID.TID 0001.0001) %MON dynstat_wvel_mean            =  -4.1203678813818E-11
(PID.TID 0001.0001) %MON dynstat_wvel_sd              =   3.7779444105923E-06
(PID.TID 0001.0001) %MON dynstat_wvel_del2            =   8.3656236968903E-07
(PID.TID 0001.0001) %MON dynstat_theta_max            =   3.1190686463923E+01
(PID.TID 0001.0001) %MON dynstat_theta_min            =  -3.4549204543565E+00
(PID.TID 0001.0001) %MON dynstat_theta_mean           =   3.9105510129371E+00
(PID.TID 0001.0001) %MON dynstat_theta_sd             =   4.5733641558103E+00
(PID.TID 0001.0001) %MON dynstat_theta_del2           =   8.8170317880025E-02
(PID.TID 0001.0001) %MON dynstat_salt_max             =   4.1399934997858E+01
(PID.TID 0001.0001) %MON dynstat_salt_min             =   1.8391721955925E+01
(PID.TID 0001.0001) %MON dynstat_salt_mean            =   3.4772082134510E+01
(PID.TID 0001.0001) %MON dynstat_salt_sd              =   5.3141553660232E-01
(PID.TID 0001.0001) %MON dynstat_salt_del2            =   1.8828043433343E-02
(PID.TID 0001.0001) %MON dynstat_sst_max              =   3.1190686463923E+01
(PID.TID 0001.0001) %MON dynstat_sst_min              =  -2.0395341821640E+00
(PID.TID 0001.0001) %MON dynstat_sst_mean             =   1.8220855842819E+01
(PID.TID 0001.0001) %MON dynstat_sst_sd               =   9.7528314528894E+00
(PID.TID 0001.0001) %MON dynstat_sst_del2             =   2.1056665218803E-01
(PID.TID 0001.0001) %MON dynstat_sss_max              =   4.1399934997858E+01
(PID.TID 0001.0001) %MON dynstat_sss_min              =   1.8391721955925E+01
(PID.TID 0001.0001) %MON dynstat_sss_mean             =   3.4624138509639E+01
(PID.TID 0001.0001) %MON dynstat_sss_sd               =   1.4621160095744E+00
(PID.TID 0001.0001) %MON dynstat_sss_del2             =   7.9967213863777E-02
(PID.TID 0001.0001) %MON extforcing_qnet_max          =   4.3769342056501E+02
(PID.TID 0001.0001) %MON extforcing_qnet_min          =  -1.9475990778389E+02
(PID.TID 0001.0001) %MON extforcing_qnet_mean         =  -1.2694564204132E+01
(PID.TID 0001.0001) %MON extforcing_qnet_sd           =   1.0515199942871E+02
(PID.TID 0001.0001) %MON extforcing_qnet_del2         =   5.1149876837782E+00
(PID.TID 0001.0001) %MON extforcing_qsw_max           =   0.0000000000000E+00
(PID.TID 0001.0001) %MON extforcing_qsw_min           =   0.0000000000000E+00
(PID.TID 0001.0001) %MON extforcing_qsw_mean          =   0.0000000000000E+00
(PID.TID 0001.0001) %MON extforcing_qsw_sd            =   0.0000000000000E+00
(PID.TID 0001.0001) %MON extforcing_qsw_del2          =   0.0000000000000E+00
(PID.TID 0001.0001) %MON extforcing_empmr_max         =   7.6494447208479E-08
(PID.TID 0001.0001) %MON extforcing_empmr_min         =  -1.5362614137596E-07
(PID.TID 0001.0001) %MON extforcing_empmr_mean        =  -8.1899996113563E-25
(PID.TID 0001.0001) %MON extforcing_empmr_sd          =   2.4051723601802E-08
(PID.TID 0001.0001) %MON extforcing_empmr_del2        =   1.2835223797615E-09
(PID.TID 0001.0001) %MON extforcing_fu_max            =   2.3483986652631E-01
(PID.TID 0001.0001) %MON extforcing_fu_min            =  -2.1700643430657E-01
(PID.TID 0001.0001) %MON extforcing_fu_mean           =  -4.1578960809368E-03
(PID.TID 0001.0001) %MON extforcing_fu_sd             =   6.4280853503749E-02
(PID.TID 0001.0001) %MON extforcing_fu_del2           =   2.8864064197835E-03
(PID.TID 0001.0001) %MON extforcing_fv_max            =   2.8663255126952E-01
(PID.TID 0001.0001) %MON extforcing_fv_min            =  -3.1198889485448E-01
(PID.TID 0001.0001) %MON extforcing_fv_mean           =  -1.3731595814814E-02
(PID.TID 0001.0001) %MON extforcing_fv_sd             =   7.5142365221019E-02
(PID.TID 0001.0001) %MON extforcing_fv_del2           =   3.1309128729109E-03
(PID.TID 0001.0001) %MON advcfl_uvel_max              =   7.8759818514439E-02
(PID.TID 0001.0001) %MON advcfl_vvel_max              =   7.5491936141924E-02
(PID.TID 0001.0001) %MON advcfl_wvel_max              =   6.5002348934750E-02
(PID.TID 0001.0001) %MON advcfl_W_hf_max              =   1.0710599070718E-01
(PID.TID 0001.0001) %MON pe_b_mean                    =   4.7486049407108E-04
(PID.TID 0001.0001) %MON ke_max                       =   3.7461116602688E-02
(PID.TID 0001.0001) %MON ke_mean                      =   1.4059575921369E-04
(PID.TID 0001.0001) %MON ke_vol                       =   1.3398024453628E+18
(PID.TID 0001.0001) %MON vort_r_min                   =  -1.3011487942106E-06
(PID.TID 0001.0001) %MON vort_r_max                   =   1.2473791818443E-06
(PID.TID 0001.0001) %MON vort_a_mean                  =  -2.0493733748264E-05
(PID.TID 0001.0001) %MON vort_a_sd                    =   7.5053945703798E-05
(PID.TID 0001.0001) %MON vort_p_mean                  =  -2.4715773088046E-05
(PID.TID 0001.0001) %MON vort_p_sd                    =   1.2777071740418E-04
(PID.TID 0001.0001) %MON surfExpan_theta_mean         =   4.7772461199337E-08
(PID.TID 0001.0001) %MON surfExpan_salt_mean          =   1.5242632149767E-08
(PID.TID 0001.0001) // =======================================================
(PID.TID 0001.0001) // End MONITOR dynamic field statistics
(PID.TID 0001.0001) // =======================================================
 DRIVER_GET_EXPORT_STATE_3D:MASK. This code is stubbed!
 DRIVER_SET_IMPORT_STATE_3D:SWHEAT. This code is stubbed!
 cg2d: Sum(rhs),rhsMax =  -9.74864633462857E-12  1.37764668571019E+00
(PID.TID 0001.0001)                    cg2d_init_res =    1.41005493733448E-01
(PID.TID 0001.0001)                       cg2d_iters =    61
(PID.TID 0001.0001)                         cg2d_res =    5.33191770118787E-07
(PID.TID 0001.0001) // =======================================================
(PID.TID 0001.0001) // Begin MONITOR dynamic field statistics
(PID.TID 0001.0001) // =======================================================
(PID.TID 0001.0001) %MON time_tsnumber                =                 72025
(PID.TID 0001.0001) %MON time_secondsf                =   6.2229600000000E+09
(PID.TID 0001.0001) %MON dynstat_eta_max              =   8.9043166232564E-01
(PID.TID 0001.0001) %MON dynstat_eta_min              =  -1.6050834285682E+00
(PID.TID 0001.0001) %MON dynstat_eta_mean             =   1.4235198665035E-14
(PID.TID 0001.0001) %MON dynstat_eta_sd               =   5.9699433140366E-01
(PID.TID 0001.0001) %MON dynstat_eta_del2             =   1.1285819972194E-02
(PID.TID 0001.0001) %MON dynstat_uvel_max             =   1.8351437051176E-01
(PID.TID 0001.0001) %MON dynstat_uvel_min             =  -2.7710192121028E-01
(PID.TID 0001.0001) %MON dynstat_uvel_mean            =  -4.7719218575474E-04
(PID.TID 0001.0001) %MON dynstat_uvel_sd              =   1.2021979342293E-02
(PID.TID 0001.0001) %MON dynstat_uvel_del2            =   1.5655860908551E-03
(PID.TID 0001.0001) %MON dynstat_vvel_max             =   1.7439799819722E-01
(PID.TID 0001.0001) %MON dynstat_vvel_min             =  -2.2281535938945E-01
(PID.TID 0001.0001) %MON dynstat_vvel_mean            =  -3.9491443204020E-04
(PID.TID 0001.0001) %MON dynstat_vvel_sd              =   1.2626984355967E-02
(PID.TID 0001.0001) %MON dynstat_vvel_del2            =   1.5866692732489E-03
(PID.TID 0001.0001) %MON dynstat_wvel_max             =   1.1032176074385E-04
(PID.TID 0001.0001) %MON dynstat_wvel_min             =  -1.9896109445463E-04
(PID.TID 0001.0001) %MON dynstat_wvel_mean            =  -4.6131148868271E-11
(PID.TID 0001.0001) %MON dynstat_wvel_sd              =   3.7738334137402E-06
(PID.TID 0001.0001) %MON dynstat_wvel_del2            =   8.3699591730369E-07
(PID.TID 0001.0001) %MON dynstat_theta_max            =   3.1198163353928E+01
(PID.TID 0001.0001) %MON dynstat_theta_min            =  -3.4749129777233E+00
(PID.TID 0001.0001) %MON dynstat_theta_mean           =   3.9106136598104E+00
(PID.TID 0001.0001) %MON dynstat_theta_sd             =   4.5735562288319E+00
(PID.TID 0001.0001) %MON dynstat_theta_del2           =   8.8111980195574E-02
(PID.TID 0001.0001) %MON dynstat_salt_max             =   4.1400541840482E+01
(PID.TID 0001.0001) %MON dynstat_salt_min             =   1.8392106285175E+01
(PID.TID 0001.0001) %MON dynstat_salt_mean            =   3.4772082909564E+01
(PID.TID 0001.0001) %MON dynstat_salt_sd              =   5.3141219480529E-01
(PID.TID 0001.0001) %MON dynstat_salt_del2            =   1.8824019955732E-02
(PID.TID 0001.0001) %MON dynstat_sst_max              =   3.1198163353928E+01
(PID.TID 0001.0001) %MON dynstat_sst_min              =  -2.0375388903995E+00
(PID.TID 0001.0001) %MON dynstat_sst_mean             =   1.8226179693436E+01
(PID.TID 0001.0001) %MON dynstat_sst_sd               =   9.7534677464361E+00
(PID.TID 0001.0001) %MON dynstat_sst_del2             =   2.1038208004216E-01
(PID.TID 0001.0001) %MON dynstat_sss_max              =   4.1400541840482E+01
(PID.TID 0001.0001) %MON dynstat_sss_min              =   1.8392106285175E+01
(PID.TID 0001.0001) %MON dynstat_sss_mean             =   3.4623895305270E+01
(PID.TID 0001.0001) %MON dynstat_sss_sd               =   1.4619830093984E+00
(PID.TID 0001.0001) %MON dynstat_sss_del2             =   8.0034760639286E-02
(PID.TID 0001.0001) %MON extforcing_qnet_max          =   4.3590117893356E+02
(PID.TID 0001.0001) %MON extforcing_qnet_min          =  -1.9453928479139E+02
(PID.TID 0001.0001) %MON extforcing_qnet_mean         =  -1.2740228739487E+01
(PID.TID 0001.0001) %MON extforcing_qnet_sd           =   1.0418054652539E+02
(PID.TID 0001.0001) %MON extforcing_qnet_del2         =   5.0891600855826E+00
(PID.TID 0001.0001) %MON extforcing_qsw_max           =   0.0000000000000E+00
(PID.TID 0001.0001) %MON extforcing_qsw_min           =   0.0000000000000E+00
(PID.TID 0001.0001) %MON extforcing_qsw_mean          =   0.0000000000000E+00
(PID.TID 0001.0001) %MON extforcing_qsw_sd            =   0.0000000000000E+00
(PID.TID 0001.0001) %MON extforcing_qsw_del2          =   0.0000000000000E+00
(PID.TID 0001.0001) %MON extforcing_empmr_max         =   7.6494447208479E-08
(PID.TID 0001.0001) %MON extforcing_empmr_min         =  -1.5362614137596E-07
(PID.TID 0001.0001) %MON extforcing_empmr_mean        =  -1.6379999222713E-24
(PID.TID 0001.0001) %MON extforcing_empmr_sd          =   2.4051723601802E-08
(PID.TID 0001.0001) %MON extforcing_empmr_del2        =   1.2835223797615E-09
(PID.TID 0001.0001) %MON extforcing_fu_max            =   2.3555535449458E-01
(PID.TID 0001.0001) %MON extforcing_fu_min            =  -2.1286738114233E-01
(PID.TID 0001.0001) %MON extforcing_fu_mean           =  -4.1899918292968E-03
(PID.TID 0001.0001) %MON extforcing_fu_sd             =   6.4195465821992E-02
(PID.TID 0001.0001) %MON extforcing_fu_del2           =   2.8689478215875E-03
(PID.TID 0001.0001) %MON extforcing_fv_max            =   2.8582916967504E-01
(PID.TID 0001.0001) %MON extforcing_fv_min            =  -3.0854984267570E-01
(PID.TID 0001.0001) %MON extforcing_fv_mean           =  -1.3729744800980E-02
(PID.TID 0001.0001) %MON extforcing_fv_sd             =   7.5010238143253E-02
(PID.TID 0001.0001) %MON extforcing_fv_del2           =   3.1143654316468E-03
(PID.TID 0001.0001) %MON advcfl_uvel_max              =   7.8591361114711E-02
(PID.TID 0001.0001) %MON advcfl_vvel_max              =   7.6017630457815E-02
(PID.TID 0001.0001) %MON advcfl_wvel_max              =   6.4868824758036E-02
(PID.TID 0001.0001) %MON advcfl_W_hf_max              =   1.0624886690279E-01
(PID.TID 0001.0001) %MON pe_b_mean                    =   4.7479363440101E-04
(PID.TID 0001.0001) %MON ke_max                       =   3.7302442368408E-02
(PID.TID 0001.0001) %MON ke_mean                      =   1.4054343544252E-04
(PID.TID 0001.0001) %MON ke_vol                       =   1.3398024453628E+18
(PID.TID 0001.0001) %MON vort_r_min                   =  -1.3043580562717E-06
(PID.TID 0001.0001) %MON vort_r_max                   =   1.2459221134916E-06
(PID.TID 0001.0001) %MON vort_a_mean                  =  -2.0493733748264E-05
(PID.TID 0001.0001) %MON vort_a_sd                    =   7.5053945680660E-05
(PID.TID 0001.0001) %MON vort_p_mean                  =  -2.4715773029838E-05
(PID.TID 0001.0001) %MON vort_p_sd                    =   1.2777071501307E-04
(PID.TID 0001.0001) %MON surfExpan_theta_mean         =   4.7913225327155E-08
(PID.TID 0001.0001) %MON surfExpan_salt_mean          =   1.5317132941071E-08
(PID.TID 0001.0001) // =======================================================
(PID.TID 0001.0001) // End MONITOR dynamic field statistics
(PID.TID 0001.0001) // =======================================================
 DRIVER_GET_EXPORT_STATE_3D:MASK. This code is stubbed!
 DRIVER_SET_IMPORT_STATE_3D:SWHEAT. This code is stubbed!
 cg2d: Sum(rhs),rhsMax =  -9.37916411203332E-12  1.37853774299774E+00
(PID.TID 0001.0001)                    cg2d_init_res =    1.41119260179170E-01
(PID.TID 0001.0001)                       cg2d_iters =    61
(PID.TID 0001.0001)                         cg2d_res =    5.26100970006691E-07
(PID.TID 0001.0001) // =======================================================
(PID.TID 0001.0001) // Begin MONITOR dynamic field statistics
(PID.TID 0001.0001) // =======================================================
(PID.TID 0001.0001) %MON time_tsnumber                =                 72026
(PID.TID 0001.0001) %MON time_secondsf                =   6.2230464000000E+09
(PID.TID 0001.0001) %MON dynstat_eta_max              =   8.8963507401280E-01
(PID.TID 0001.0001) %MON dynstat_eta_min              =  -1.6045684411171E+00
(PID.TID 0001.0001) %MON dynstat_eta_mean             =   1.4537490528578E-14
(PID.TID 0001.0001) %MON dynstat_eta_sd               =   5.9695619644443E-01
(PID.TID 0001.0001) %MON dynstat_eta_del2             =   1.1289541583170E-02
(PID.TID 0001.0001) %MON dynstat_uvel_max             =   1.8306080214228E-01
(PID.TID 0001.0001) %MON dynstat_uvel_min             =  -2.7649677472216E-01
(PID.TID 0001.0001) %MON dynstat_uvel_mean            =  -4.7671505827341E-04
(PID.TID 0001.0001) %MON dynstat_uvel_sd              =   1.2021703463408E-02
(PID.TID 0001.0001) %MON dynstat_uvel_del2            =   1.5659965516837E-03
(PID.TID 0001.0001) %MON dynstat_vvel_max             =   1.7555722691797E-01
(PID.TID 0001.0001) %MON dynstat_vvel_min             =  -2.2264081007209E-01
(PID.TID 0001.0001) %MON dynstat_vvel_mean            =  -3.9436693427090E-04
(PID.TID 0001.0001) %MON dynstat_vvel_sd              =   1.2622672641080E-02
(PID.TID 0001.0001) %MON dynstat_vvel_del2            =   1.5865595689190E-03
(PID.TID 0001.0001) %MON dynstat_wvel_max             =   1.1019985807274E-04
(PID.TID 0001.0001) %MON dynstat_wvel_min             =  -1.9857911974305E-04
(PID.TID 0001.0001) %MON dynstat_wvel_mean            =  -4.7541897254386E-11
(PID.TID 0001.0001) %MON dynstat_wvel_sd              =   3.7693787689312E-06
(PID.TID 0001.0001) %MON dynstat_wvel_del2            =   8.3741169918917E-07
(PID.TID 0001.0001) %MON dynstat_theta_max            =   3.1205023017577E+01
(PID.TID 0001.0001) %MON dynstat_theta_min            =  -3.4950244204349E+00
(PID.TID 0001.0001) %MON dynstat_theta_mean           =   3.9106765214997E+00
(PID.TID 0001.0001) %MON dynstat_theta_sd             =   4.5737557548651E+00
(PID.TID 0001.0001) %MON dynstat_theta_del2           =   8.8064210631853E-02
(PID.TID 0001.0001) %MON dynstat_salt_max             =   4.1401157326470E+01
(PID.TID 0001.0001) %MON dynstat_salt_min             =   1.8392492570438E+01
(PID.TID 0001.0001) %MON dynstat_salt_mean            =   3.4772083701026E+01
(PID.TID 0001.0001) %MON dynstat_salt_sd              =   5.3140848406172E-01
(PID.TID 0001.0001) %MON dynstat_salt_del2            =   1.8815847145637E-02
(PID.TID 0001.0001) %MON dynstat_sst_max              =   3.1205023017577E+01
(PID.TID 0001.0001) %MON dynstat_sst_min              =  -2.0354945603024E+00
(PID.TID 0001.0001) %MON dynstat_sst_mean             =   1.8231450908260E+01
(PID.TID 0001.0001) %MON dynstat_sst_sd               =   9.7543649678639E+00
(PID.TID 0001.0001) %MON dynstat_sst_del2             =   2.1012071925122E-01
(PID.TID 0001.0001) %MON dynstat_sss_max              =   4.1401157326470E+01
(PID.TID 0001.0001) %MON dynstat_sss_min              =   1.8392492570438E+01
(PID.TID 0001.0001) %MON dynstat_sss_mean             =   3.4623626526269E+01
(PID.TID 0001.0001) %MON dynstat_sss_sd               =   1.4618108913946E+00
(PID.TID 0001.0001) %MON dynstat_sss_del2             =   7.9996678088888E-02
(PID.TID 0001.0001) %MON extforcing_qnet_max          =   4.3410893730211E+02
(PID.TID 0001.0001) %MON extforcing_qnet_min          =  -1.9431866179889E+02
(PID.TID 0001.0001) %MON extforcing_qnet_mean         =  -1.2785893274842E+01
(PID.TID 0001.0001) %MON extforcing_qnet_sd           =   1.0321994098125E+02
(PID.TID 0001.0001) %MON extforcing_qnet_del2         =   5.0656615791939E+00
(PID.TID 0001.0001) %MON extforcing_qsw_max           =   0.0000000000000E+00
(PID.TID 0001.0001) %MON extforcing_qsw_min           =   0.0000000000000E+00
(PID.TID 0001.0001) %MON extforcing_qsw_mean          =   0.0000000000000E+00
(PID.TID 0001.0001) %MON extforcing_qsw_sd            =   0.0000000000000E+00
(PID.TID 0001.0001) %MON extforcing_qsw_del2          =   0.0000000000000E+00
(PID.TID 0001.0001) %MON extforcing_empmr_max         =   7.6494447208479E-08
(PID.TID 0001.0001) %MON extforcing_empmr_min         =  -1.5362614137596E-07
(PID.TID 0001.0001) %MON extforcing_empmr_mean        =  -1.2284999417034E-24
(PID.TID 0001.0001) %MON extforcing_empmr_sd          =   2.4051723601802E-08
(PID.TID 0001.0001) %MON extforcing_empmr_del2        =   1.2835223797615E-09
(PID.TID 0001.0001) %MON extforcing_fu_max            =   2.3672936800631E-01
(PID.TID 0001.0001) %MON extforcing_fu_min            =  -2.0872832797809E-01
(PID.TID 0001.0001) %MON extforcing_fu_mean           =  -4.2220881537953E-03
(PID.TID 0001.0001) %MON extforcing_fu_sd             =   6.4124549376793E-02
(PID.TID 0001.0001) %MON extforcing_fu_del2           =   2.8538654688190E-03
(PID.TID 0001.0001) %MON extforcing_fv_max            =   2.8502578808056E-01
(PID.TID 0001.0001) %MON extforcing_fv_min            =  -3.0511079049692E-01
(PID.TID 0001.0001) %MON extforcing_fv_mean           =  -1.3727895892252E-02
(PID.TID 0001.0001) %MON extforcing_fv_sd             =   7.4895398547949E-02
(PID.TID 0001.0001) %MON extforcing_fv_del2           =   3.1006601171339E-03
(PID.TID 0001.0001) %MON advcfl_uvel_max              =   7.8419730091848E-02
(PID.TID 0001.0001) %MON advcfl_vvel_max              =   7.6522921925730E-02
(PID.TID 0001.0001) %MON advcfl_wvel_max              =   6.4744286587923E-02
(PID.TID 0001.0001) %MON advcfl_W_hf_max              =   1.0533842035813E-01
(PID.TID 0001.0001) %MON pe_b_mean                    =   4.7473297835575E-04
(PID.TID 0001.0001) %MON ke_max                       =   3.7142608106046E-02
(PID.TID 0001.0001) %MON ke_mean                      =   1.4048948218790E-04
(PID.TID 0001.0001) %MON ke_vol                       =   1.3398024453628E+18
(PID.TID 0001.0001) %MON vort_r_min                   =  -1.3073019301010E-06
(PID.TID 0001.0001) %MON vort_r_max                   =   1.2441015585703E-06
(PID.TID 0001.0001) %MON vort_a_mean                  =  -2.0493733748264E-05
(PID.TID 0001.0001) %MON vort_a_sd                    =   7.5053945663758E-05
(PID.TID 0001.0001) %MON vort_p_mean                  =  -2.4715772970730E-05
(PID.TID 0001.0001) %MON vort_p_sd                    =   1.2777071256880E-04
(PID.TID 0001.0001) %MON surfExpan_theta_mean         =   4.8072780927638E-08
(PID.TID 0001.0001) %MON surfExpan_salt_mean          =   1.5362863768725E-08
(PID.TID 0001.0001) // =======================================================
(PID.TID 0001.0001) // End MONITOR dynamic field statistics
(PID.TID 0001.0001) // =======================================================
 DRIVER_GET_EXPORT_STATE_3D:MASK. This code is stubbed!
 DRIVER_SET_IMPORT_STATE_3D:SWHEAT. This code is stubbed!
 cg2d: Sum(rhs),rhsMax =  -9.57811607804615E-12  1.37920248265769E+00
(PID.TID 0001.0001)                    cg2d_init_res =    1.42682383533296E-01
(PID.TID 0001.0001)                       cg2d_iters =    61
(PID.TID 0001.0001)                         cg2d_res =    5.24416949663684E-07
(PID.TID 0001.0001) // =======================================================
(PID.TID 0001.0001) // Begin MONITOR dynamic field statistics
(PID.TID 0001.0001) // =======================================================
(PID.TID 0001.0001) %MON time_tsnumber                =                 72027
(PID.TID 0001.0001) %MON time_secondsf                =   6.2231328000000E+09
(PID.TID 0001.0001) %MON dynstat_eta_max              =   8.8887153792113E-01
(PID.TID 0001.0001) %MON dynstat_eta_min              =  -1.6040686499546E+00
(PID.TID 0001.0001) %MON dynstat_eta_mean             =   1.3987868958499E-14
(PID.TID 0001.0001) %MON dynstat_eta_sd               =   5.9692087100471E-01
(PID.TID 0001.0001) %MON dynstat_eta_del2             =   1.1293401146438E-02
(PID.TID 0001.0001) %MON dynstat_uvel_max             =   1.8256932814571E-01
(PID.TID 0001.0001) %MON dynstat_uvel_min             =  -2.7588072351330E-01
(PID.TID 0001.0001) %MON dynstat_uvel_mean            =  -4.7624308593269E-04
(PID.TID 0001.0001) %MON dynstat_uvel_sd              =   1.2021251455796E-02
(PID.TID 0001.0001) %MON dynstat_uvel_del2            =   1.5663454685550E-03
(PID.TID 0001.0001) %MON dynstat_vvel_max             =   1.7666245697051E-01
(PID.TID 0001.0001) %MON dynstat_vvel_min             =  -2.2246145879222E-01
(PID.TID 0001.0001) %MON dynstat_vvel_mean            =  -3.9381816188997E-04
(PID.TID 0001.0001) %MON dynstat_vvel_sd              =   1.2618449793200E-02
(PID.TID 0001.0001) %MON dynstat_vvel_del2            =   1.5863550881319E-03
(PID.TID 0001.0001) %MON dynstat_wvel_max             =   1.1002066940829E-04
(PID.TID 0001.0001) %MON dynstat_wvel_min             =  -1.9822874698024E-04
(PID.TID 0001.0001) %MON dynstat_wvel_mean            =  -4.4965780814782E-11
(PID.TID 0001.0001) %MON dynstat_wvel_sd              =   3.7646039926478E-06
(PID.TID 0001.0001) %MON dynstat_wvel_del2            =   8.3777992846211E-07
(PID.TID 0001.0001) %MON dynstat_theta_max            =   3.1211285389972E+01
(PID.TID 0001.0001) %MON dynstat_theta_min            =  -3.5152178817742E+00
(PID.TID 0001.0001) %MON dynstat_theta_mean           =   3.9107396285384E+00
(PID.TID 0001.0001) %MON dynstat_theta_sd             =   4.5739629410638E+00
(PID.TID 0001.0001) %MON dynstat_theta_del2           =   8.8036087075732E-02
(PID.TID 0001.0001) %MON dynstat_salt_max             =   4.1401780606991E+01
(PID.TID 0001.0001) %MON dynstat_salt_min             =   1.8392881325348E+01
(PID.TID 0001.0001) %MON dynstat_salt_mean            =   3.4772084509133E+01
(PID.TID 0001.0001) %MON dynstat_salt_sd              =   5.3140498334956E-01
(PID.TID 0001.0001) %MON dynstat_salt_del2            =   1.8804420492455E-02
(PID.TID 0001.0001) %MON dynstat_sst_max              =   3.1211285389972E+01
(PID.TID 0001.0001) %MON dynstat_sst_min              =  -2.0334614114626E+00
(PID.TID 0001.0001) %MON dynstat_sst_mean             =   1.8236818309804E+01
(PID.TID 0001.0001) %MON dynstat_sst_sd               =   9.7553665683838E+00
(PID.TID 0001.0001) %MON dynstat_sst_del2             =   2.0994518913989E-01
(PID.TID 0001.0001) %MON dynstat_sss_max              =   4.1401780606991E+01
(PID.TID 0001.0001) %MON dynstat_sss_min              =   1.8392881325348E+01
(PID.TID 0001.0001) %MON dynstat_sss_mean             =   3.4623363892283E+01
(PID.TID 0001.0001) %MON dynstat_sss_sd               =   1.4616291853170E+00
(PID.TID 0001.0001) %MON dynstat_sss_del2             =   7.9915236414996E-02
(PID.TID 0001.0001) %MON extforcing_qnet_max          =   4.3231669567066E+02
(PID.TID 0001.0001) %MON extforcing_qnet_min          =  -1.9409803880639E+02
(PID.TID 0001.0001) %MON extforcing_qnet_mean         =  -1.2831557810197E+01
(PID.TID 0001.0001) %MON extforcing_qnet_sd           =   1.0227048845777E+02
(PID.TID 0001.0001) %MON extforcing_qnet_del2         =   5.0443107067231E+00
(PID.TID 0001.0001) %MON extforcing_qsw_max           =   0.0000000000000E+00
(PID.TID 0001.0001) %MON extforcing_qsw_min           =   0.0000000000000E+00
(PID.TID 0001.0001) %MON extforcing_qsw_mean          =   0.0000000000000E+00
(PID.TID 0001.0001) %MON extforcing_qsw_sd            =   0.0000000000000E+00
(PID.TID 0001.0001) %MON extforcing_qsw_del2          =   0.0000000000000E+00
(PID.TID 0001.0001) %MON extforcing_empmr_max         =   7.6494447208479E-08
(PID.TID 0001.0001) %MON extforcing_empmr_min         =  -1.5362614137596E-07
(PID.TID 0001.0001) %MON extforcing_empmr_mean        =  -8.1899996113563E-25
(PID.TID 0001.0001) %MON extforcing_empmr_sd          =   2.4051723601802E-08
(PID.TID 0001.0001) %MON extforcing_empmr_del2        =   1.2835223797615E-09
(PID.TID 0001.0001) %MON extforcing_fu_max            =   2.3790338151805E-01
(PID.TID 0001.0001) %MON extforcing_fu_min            =  -2.0458927481386E-01
(PID.TID 0001.0001) %MON extforcing_fu_mean           =  -4.2541851880965E-03
(PID.TID 0001.0001) %MON extforcing_fu_sd             =   6.4068152000980E-02
(PID.TID 0001.0001) %MON extforcing_fu_del2           =   2.8408795620080E-03
(PID.TID 0001.0001) %MON extforcing_fv_max            =   2.8422240648608E-01
(PID.TID 0001.0001) %MON extforcing_fv_min            =  -3.0167173831813E-01
(PID.TID 0001.0001) %MON extforcing_fv_mean           =  -1.3726048868879E-02
(PID.TID 0001.0001) %MON extforcing_fv_sd             =   7.4797925909738E-02
(PID.TID 0001.0001) %MON extforcing_fv_del2           =   3.0898777425758E-03
(PID.TID 0001.0001) %MON advcfl_uvel_max              =   7.8245006283332E-02
(PID.TID 0001.0001) %MON advcfl_vvel_max              =   7.7004676134912E-02
(PID.TID 0001.0001) %MON advcfl_wvel_max              =   6.4630051845631E-02
(PID.TID 0001.0001) %MON advcfl_W_hf_max              =   1.0437562192919E-01
(PID.TID 0001.0001) %MON pe_b_mean                    =   4.7467679448457E-04
(PID.TID 0001.0001) %MON ke_max                       =   3.6981633918554E-02
(PID.TID 0001.0001) %MON ke_mean                      =   1.4043464298851E-04
(PID.TID 0001.0001) %MON ke_vol                       =   1.3398024453628E+18
(PID.TID 0001.0001) %MON vort_r_min                   =  -1.3099863910006E-06
(PID.TID 0001.0001) %MON vort_r_max                   =   1.2419384162652E-06
(PID.TID 0001.0001) %MON vort_a_mean                  =  -2.0493733748264E-05
(PID.TID 0001.0001) %MON vort_a_sd                    =   7.5053945654052E-05
(PID.TID 0001.0001) %MON vort_p_mean                  =  -2.4715772912003E-05
(PID.TID 0001.0001) %MON vort_p_sd                    =   1.2777071002073E-04
(PID.TID 0001.0001) %MON surfExpan_theta_mean         =   4.8245615294673E-08
(PID.TID 0001.0001) %MON surfExpan_salt_mean          =   1.5385299084718E-08
(PID.TID 0001.0001) // =======================================================
(PID.TID 0001.0001) // End MONITOR dynamic field statistics
(PID.TID 0001.0001) // =======================================================
 DRIVER_GET_EXPORT_STATE_3D:MASK. This code is stubbed!
 DRIVER_SET_IMPORT_STATE_3D:SWHEAT. This code is stubbed!
 cg2d: Sum(rhs),rhsMax =  -9.57811607804615E-12  1.38014071480837E+00
(PID.TID 0001.0001)                    cg2d_init_res =    1.41395891416125E-01
(PID.TID 0001.0001)                       cg2d_iters =    61
(PID.TID 0001.0001)                         cg2d_res =    5.18035688882549E-07
(PID.TID 0001.0001) // =======================================================
(PID.TID 0001.0001) // Begin MONITOR dynamic field statistics
(PID.TID 0001.0001) // =======================================================
(PID.TID 0001.0001) %MON time_tsnumber                =                 72028
(PID.TID 0001.0001) %MON time_secondsf                =   6.2232192000000E+09
(PID.TID 0001.0001) %MON dynstat_eta_max              =   8.8813514612039E-01
(PID.TID 0001.0001) %MON dynstat_eta_min              =  -1.6035847303592E+00
(PID.TID 0001.0001) %MON dynstat_eta_mean             =   1.4290160822043E-14
(PID.TID 0001.0001) %MON dynstat_eta_sd               =   5.9688719287010E-01
(PID.TID 0001.0001) %MON dynstat_eta_del2             =   1.1297355753804E-02
(PID.TID 0001.0001) %MON dynstat_uvel_max             =   1.8204518569384E-01
(PID.TID 0001.0001) %MON dynstat_uvel_min             =  -2.7525411164037E-01
(PID.TID 0001.0001) %MON dynstat_uvel_mean            =  -4.7577809829535E-04
(PID.TID 0001.0001) %MON dynstat_uvel_sd              =   1.2020649030990E-02
(PID.TID 0001.0001) %MON dynstat_uvel_del2            =   1.5666788490777E-03
(PID.TID 0001.0001) %MON dynstat_vvel_max             =   1.7770690901080E-01
(PID.TID 0001.0001) %MON dynstat_vvel_min             =  -2.2227750714074E-01
(PID.TID 0001.0001) %MON dynstat_vvel_mean            =  -3.9326572700889E-04
(PID.TID 0001.0001) %MON dynstat_vvel_sd              =   1.2614355006199E-02
(PID.TID 0001.0001) %MON dynstat_vvel_del2            =   1.5861692736242E-03
(PID.TID 0001.0001) %MON dynstat_wvel_max             =   1.0978764502565E-04
(PID.TID 0001.0001) %MON dynstat_wvel_min             =  -1.9791378492490E-04
(PID.TID 0001.0001) %MON dynstat_wvel_mean            =  -4.0432217623481E-11
(PID.TID 0001.0001) %MON dynstat_wvel_sd              =   3.7595375870279E-06
(PID.TID 0001.0001) %MON dynstat_wvel_del2            =   8.3815847083107E-07
(PID.TID 0001.0001) %MON dynstat_theta_max            =   3.1216970493993E+01
(PID.TID 0001.0001) %MON dynstat_theta_min            =  -3.5355025849613E+00
(PID.TID 0001.0001) %MON dynstat_theta_mean           =   3.9108029685178E+00
(PID.TID 0001.0001) %MON dynstat_theta_sd             =   4.5741785866504E+00
(PID.TID 0001.0001) %MON dynstat_theta_del2           =   8.8048250112195E-02
(PID.TID 0001.0001) %MON dynstat_salt_max             =   4.1402410732684E+01
(PID.TID 0001.0001) %MON dynstat_salt_min             =   1.8393273293762E+01
(PID.TID 0001.0001) %MON dynstat_salt_mean            =   3.4772085333559E+01
(PID.TID 0001.0001) %MON dynstat_salt_sd              =   5.3140201165659E-01
(PID.TID 0001.0001) %MON dynstat_salt_del2            =   1.8803351007072E-02
(PID.TID 0001.0001) %MON dynstat_sst_max              =   3.1216970493993E+01
(PID.TID 0001.0001) %MON dynstat_sst_min              =  -2.0315171476378E+00
(PID.TID 0001.0001) %MON dynstat_sst_mean             =   1.8242108660843E+01
(PID.TID 0001.0001) %MON dynstat_sst_sd               =   9.7567355232154E+00
(PID.TID 0001.0001) %MON dynstat_sst_del2             =   2.0998548803391E-01
(PID.TID 0001.0001) %MON dynstat_sss_max              =   4.1402410732684E+01
(PID.TID 0001.0001) %MON dynstat_sss_min              =   1.8393273293762E+01
(PID.TID 0001.0001) %MON dynstat_sss_mean             =   3.4623088515838E+01
(PID.TID 0001.0001) %MON dynstat_sss_sd               =   1.4614563198020E+00
(PID.TID 0001.0001) %MON dynstat_sss_del2             =   7.9913101741572E-02
(PID.TID 0001.0001) %MON extforcing_qnet_max          =   4.3052445403921E+02
(PID.TID 0001.0001) %MON extforcing_qnet_min          =  -1.9387741581389E+02
(PID.TID 0001.0001) %MON extforcing_qnet_mean         =  -1.2877222345553E+01
(PID.TID 0001.0001) %MON extforcing_qnet_sd           =   1.0133250245592E+02
(PID.TID 0001.0001) %MON extforcing_qnet_del2         =   5.0255914249985E+00
(PID.TID 0001.0001) %MON extforcing_qsw_max           =   0.0000000000000E+00
(PID.TID 0001.0001) %MON extforcing_qsw_min           =   0.0000000000000E+00
(PID.TID 0001.0001) %MON extforcing_qsw_mean          =   0.0000000000000E+00
(PID.TID 0001.0001) %MON extforcing_qsw_sd            =   0.0000000000000E+00
(PID.TID 0001.0001) %MON extforcing_qsw_del2          =   0.0000000000000E+00
(PID.TID 0001.0001) %MON extforcing_empmr_max         =   7.6494447208479E-08
(PID.TID 0001.0001) %MON extforcing_empmr_min         =  -1.5362614137596E-07
(PID.TID 0001.0001) %MON extforcing_empmr_mean        =  -2.0474999028391E-24
(PID.TID 0001.0001) %MON extforcing_empmr_sd          =   2.4051723601802E-08
(PID.TID 0001.0001) %MON extforcing_empmr_del2        =   1.2835223797615E-09
(PID.TID 0001.0001) %MON extforcing_fu_max            =   2.3907739502978E-01
(PID.TID 0001.0001) %MON extforcing_fu_min            =  -2.0045022164962E-01
(PID.TID 0001.0001) %MON extforcing_fu_mean           =  -4.2862830266995E-03
(PID.TID 0001.0001) %MON extforcing_fu_sd             =   6.4026311936849E-02
(PID.TID 0001.0001) %MON extforcing_fu_del2           =   2.8294331546050E-03
(PID.TID 0001.0001) %MON extforcing_fv_max            =   2.8341902489160E-01
(PID.TID 0001.0001) %MON extforcing_fv_min            =  -2.9823268613935E-01
(PID.TID 0001.0001) %MON extforcing_fv_mean           =  -1.3724203478016E-02
(PID.TID 0001.0001) %MON extforcing_fv_sd             =   7.4717888054508E-02
(PID.TID 0001.0001) %MON extforcing_fv_del2           =   3.0826227614104E-03
(PID.TID 0001.0001) %MON advcfl_uvel_max              =   7.8067287270164E-02
(PID.TID 0001.0001) %MON advcfl_vvel_max              =   7.7459938064812E-02
(PID.TID 0001.0001) %MON advcfl_wvel_max              =   6.4527362330230E-02
(PID.TID 0001.0001) %MON advcfl_W_hf_max              =   1.0336145122794E-01
(PID.TID 0001.0001) %MON pe_b_mean                    =   4.7462323369022E-04
(PID.TID 0001.0001) %MON ke_max                       =   3.6819551868969E-02
(PID.TID 0001.0001) %MON ke_mean                      =   1.4037965959512E-04
(PID.TID 0001.0001) %MON ke_vol                       =   1.3398024453628E+18
(PID.TID 0001.0001) %MON vort_r_min                   =  -1.3124196324600E-06
(PID.TID 0001.0001) %MON vort_r_max                   =   1.2394521996444E-06
(PID.TID 0001.0001) %MON vort_a_mean                  =  -2.0493733748264E-05
(PID.TID 0001.0001) %MON vort_a_sd                    =   7.5053945652177E-05
(PID.TID 0001.0001) %MON vort_p_mean                  =  -2.4715772854738E-05
(PID.TID 0001.0001) %MON vort_p_sd                    =   1.2777070727758E-04
(PID.TID 0001.0001) %MON surfExpan_theta_mean         =   4.8398939656310E-08
(PID.TID 0001.0001) %MON surfExpan_salt_mean          =   1.5390908863780E-08
(PID.TID 0001.0001) // =======================================================
(PID.TID 0001.0001) // End MONITOR dynamic field statistics
(PID.TID 0001.0001) // =======================================================
 DRIVER_GET_EXPORT_STATE_3D:MASK. This code is stubbed!
 DRIVER_SET_IMPORT_STATE_3D:SWHEAT. This code is stubbed!
 cg2d: Sum(rhs),rhsMax =  -9.35074240260292E-12  1.38088176876442E+00
(PID.TID 0001.0001)                    cg2d_init_res =    1.40978293918038E-01
(PID.TID 0001.0001)                       cg2d_iters =    61
(PID.TID 0001.0001)                         cg2d_res =    5.13595256365440E-07
(PID.TID 0001.0001) // =======================================================
(PID.TID 0001.0001) // Begin MONITOR dynamic field statistics
(PID.TID 0001.0001) // =======================================================
(PID.TID 0001.0001) %MON time_tsnumber                =                 72029
(PID.TID 0001.0001) %MON time_secondsf                =   6.2233056000000E+09
(PID.TID 0001.0001) %MON dynstat_eta_max              =   8.8742193917024E-01
(PID.TID 0001.0001) %MON dynstat_eta_min              =  -1.6031172346334E+00
(PID.TID 0001.0001) %MON dynstat_eta_mean             =   1.4372604057554E-14
(PID.TID 0001.0001) %MON dynstat_eta_sd               =   5.9685416598929E-01
(PID.TID 0001.0001) %MON dynstat_eta_del2             =   1.1301811291977E-02
(PID.TID 0001.0001) %MON dynstat_uvel_max             =   1.8149374460963E-01
(PID.TID 0001.0001) %MON dynstat_uvel_min             =  -2.7461733834040E-01
(PID.TID 0001.0001) %MON dynstat_uvel_mean            =  -4.7532080630642E-04
(PID.TID 0001.0001) %MON dynstat_uvel_sd              =   1.2019926280431E-02
(PID.TID 0001.0001) %MON dynstat_uvel_del2            =   1.5670633237428E-03
(PID.TID 0001.0001) %MON dynstat_vvel_max             =   1.7868420847803E-01
(PID.TID 0001.0001) %MON dynstat_vvel_min             =  -2.2208914118355E-01
(PID.TID 0001.0001) %MON dynstat_vvel_mean            =  -3.9270836303495E-04
(PID.TID 0001.0001) %MON dynstat_vvel_sd              =   1.2610417805436E-02
(PID.TID 0001.0001) %MON dynstat_vvel_del2            =   1.5861045522656E-03
(PID.TID 0001.0001) %MON dynstat_wvel_max             =   1.0950526434533E-04
(PID.TID 0001.0001) %MON dynstat_wvel_min             =  -1.9763742832604E-04
(PID.TID 0001.0001) %MON dynstat_wvel_mean            =  -3.3821965908303E-11
(PID.TID 0001.0001) %MON dynstat_wvel_sd              =   3.7542178283549E-06
(PID.TID 0001.0001) %MON dynstat_wvel_del2            =   8.3867797144928E-07
(PID.TID 0001.0001) %MON dynstat_theta_max            =   3.1222098223971E+01
(PID.TID 0001.0001) %MON dynstat_theta_min            =  -3.5558692722377E+00
(PID.TID 0001.0001) %MON dynstat_theta_mean           =   3.9108665309998E+00
(PID.TID 0001.0001) %MON dynstat_theta_sd             =   4.5744012153049E+00
(PID.TID 0001.0001) %MON dynstat_theta_del2           =   8.8058593211782E-02
(PID.TID 0001.0001) %MON dynstat_salt_max             =   4.1403046740079E+01
(PID.TID 0001.0001) %MON dynstat_salt_min             =   1.8393669553171E+01
(PID.TID 0001.0001) %MON dynstat_salt_mean            =   3.4772086174186E+01
(PID.TID 0001.0001) %MON dynstat_salt_sd              =   5.3139890872563E-01
(PID.TID 0001.0001) %MON dynstat_salt_del2            =   1.8803961835627E-02
(PID.TID 0001.0001) %MON dynstat_sst_max              =   3.1222098223971E+01
(PID.TID 0001.0001) %MON dynstat_sst_min              =  -2.0297635465918E+00
(PID.TID 0001.0001) %MON dynstat_sst_mean             =   1.8247507913719E+01
(PID.TID 0001.0001) %MON dynstat_sst_sd               =   9.7582631585885E+00
(PID.TID 0001.0001) %MON dynstat_sst_del2             =   2.1000867945700E-01
(PID.TID 0001.0001) %MON dynstat_sss_max              =   4.1403046740079E+01
(PID.TID 0001.0001) %MON dynstat_sss_min              =   1.8393669553171E+01
(PID.TID 0001.0001) %MON dynstat_sss_mean             =   3.4622838868205E+01
(PID.TID 0001.0001) %MON dynstat_sss_sd               =   1.4612941592911E+00
(PID.TID 0001.0001) %MON dynstat_sss_del2             =   7.9925825753631E-02
(PID.TID 0001.0001) %MON extforcing_qnet_max          =   4.2873221240776E+02
(PID.TID 0001.0001) %MON extforcing_qnet_min          =  -1.9365679282139E+02
(PID.TID 0001.0001) %MON extforcing_qnet_mean         =  -1.2922886880908E+01
(PID.TID 0001.0001) %MON extforcing_qnet_sd           =   1.0040630433364E+02
(PID.TID 0001.0001) %MON extforcing_qnet_del2         =   5.0091691651566E+00
(PID.TID 0001.0001) %MON extforcing_qsw_max           =   0.0000000000000E+00
(PID.TID 0001.0001) %MON extforcing_qsw_min           =   0.0000000000000E+00
(PID.TID 0001.0001) %MON extforcing_qsw_mean          =   0.0000000000000E+00
(PID.TID 0001.0001) %MON extforcing_qsw_sd            =   0.0000000000000E+00
(PID.TID 0001.0001) %MON extforcing_qsw_del2          =   0.0000000000000E+00
(PID.TID 0001.0001) %MON extforcing_empmr_max         =   7.6494447208479E-08
(PID.TID 0001.0001) %MON extforcing_empmr_min         =  -1.5362614137596E-07
(PID.TID 0001.0001) %MON extforcing_empmr_mean        =  -2.0474999028391E-24
(PID.TID 0001.0001) %MON extforcing_empmr_sd          =   2.4051723601802E-08
(PID.TID 0001.0001) %MON extforcing_empmr_del2        =   1.2835223797615E-09
(PID.TID 0001.0001) %MON extforcing_fu_max            =   2.4025140854152E-01
(PID.TID 0001.0001) %MON extforcing_fu_min            =  -1.9637097754383E-01
(PID.TID 0001.0001) %MON extforcing_fu_mean           =  -4.3183818285502E-03
(PID.TID 0001.0001) %MON extforcing_fu_sd             =   6.3999057681269E-02
(PID.TID 0001.0001) %MON extforcing_fu_del2           =   2.8203830537859E-03
(PID.TID 0001.0001) %MON extforcing_fv_max            =   2.8261564329712E-01
(PID.TID 0001.0001) %MON extforcing_fv_min            =  -2.9479363396057E-01
(PID.TID 0001.0001) %MON extforcing_fv_mean           =  -1.3722359286937E-02
(PID.TID 0001.0001) %MON extforcing_fv_sd             =   7.4655340929154E-02
(PID.TID 0001.0001) %MON extforcing_fv_del2           =   3.0784336806023E-03
(PID.TID 0001.0001) %MON advcfl_uvel_max              =   7.7886686283539E-02
(PID.TID 0001.0001) %MON advcfl_vvel_max              =   7.7885929134170E-02
(PID.TID 0001.0001) %MON advcfl_wvel_max              =   6.4437259650451E-02
(PID.TID 0001.0001) %MON advcfl_W_hf_max              =   1.0229688876733E-01
(PID.TID 0001.0001) %MON pe_b_mean                    =   4.7457071156716E-04
(PID.TID 0001.0001) %MON ke_max                       =   3.6656405145245E-02
(PID.TID 0001.0001) %MON ke_mean                      =   1.4032520837700E-04
(PID.TID 0001.0001) %MON ke_vol                       =   1.3398024453628E+18
(PID.TID 0001.0001) %MON vort_r_min                   =  -1.3146119584231E-06
(PID.TID 0001.0001) %MON vort_r_max                   =   1.2366503720150E-06
(PID.TID 0001.0001) %MON vort_a_mean                  =  -2.0493733748264E-05
(PID.TID 0001.0001) %MON vort_a_sd                    =   7.5053945658645E-05
(PID.TID 0001.0001) %MON vort_p_mean                  =  -2.4715772799335E-05
(PID.TID 0001.0001) %MON vort_p_sd                    =   1.2777070425034E-04
(PID.TID 0001.0001) %MON surfExpan_theta_mean         =   4.8544868796393E-08
(PID.TID 0001.0001) %MON surfExpan_salt_mean          =   1.5388482097723E-08
(PID.TID 0001.0001) // =======================================================
(PID.TID 0001.0001) // End MONITOR dynamic field statistics
(PID.TID 0001.0001) // =======================================================
 DRIVER_GET_EXPORT_STATE_3D:MASK. This code is stubbed!
 DRIVER_SET_IMPORT_STATE_3D:SWHEAT. This code is stubbed!
 cg2d: Sum(rhs),rhsMax =  -9.52127265918534E-12  1.38193363675075E+00
(PID.TID 0001.0001)                    cg2d_init_res =    1.41686784298464E-01
(PID.TID 0001.0001)                       cg2d_iters =    61
(PID.TID 0001.0001)                         cg2d_res =    5.11241379500730E-07
(PID.TID 0001.0001) // =======================================================
(PID.TID 0001.0001) // Begin MONITOR dynamic field statistics
(PID.TID 0001.0001) // =======================================================
(PID.TID 0001.0001) %MON time_tsnumber                =                 72030
(PID.TID 0001.0001) %MON time_secondsf                =   6.2233920000000E+09
(PID.TID 0001.0001) %MON dynstat_eta_max              =   8.8672796492552E-01
(PID.TID 0001.0001) %MON dynstat_eta_min              =  -1.6026666959702E+00
(PID.TID 0001.0001) %MON dynstat_eta_mean             =   1.4097793272515E-14
(PID.TID 0001.0001) %MON dynstat_eta_sd               =   5.9682105392067E-01
(PID.TID 0001.0001) %MON dynstat_eta_del2             =   1.1306690086112E-02
(PID.TID 0001.0001) %MON dynstat_uvel_max             =   1.8092041922045E-01
(PID.TID 0001.0001) %MON dynstat_uvel_min             =  -2.7397084577054E-01
(PID.TID 0001.0001) %MON dynstat_uvel_mean            =  -4.7486995720475E-04
(PID.TID 0001.0001) %MON dynstat_uvel_sd              =   1.2019116966186E-02
(PID.TID 0001.0001) %MON dynstat_uvel_del2            =   1.5675919683204E-03
(PID.TID 0001.0001) %MON dynstat_vvel_max             =   1.7958844198835E-01
(PID.TID 0001.0001) %MON dynstat_vvel_min             =  -2.2198956356774E-01
(PID.TID 0001.0001) %MON dynstat_vvel_mean            =  -3.9214349411923E-04
(PID.TID 0001.0001) %MON dynstat_vvel_sd              =   1.2606660696187E-02
(PID.TID 0001.0001) %MON dynstat_vvel_del2            =   1.5860738681879E-03
(PID.TID 0001.0001) %MON dynstat_wvel_max             =   1.0917918969267E-04
(PID.TID 0001.0001) %MON dynstat_wvel_min             =  -1.9740244682677E-04
(PID.TID 0001.0001) %MON dynstat_wvel_mean            =  -2.6861195867167E-11
(PID.TID 0001.0001) %MON dynstat_wvel_sd              =   3.7486942267223E-06
(PID.TID 0001.0001) %MON dynstat_wvel_del2            =   8.3916769198802E-07
(PID.TID 0001.0001) %MON dynstat_theta_max            =   3.1226688113789E+01
(PID.TID 0001.0001) %MON dynstat_theta_min            =  -3.5762959949457E+00
(PID.TID 0001.0001) %MON dynstat_theta_mean           =   3.9109304076729E+00
(PID.TID 0001.0001) %MON dynstat_theta_sd             =   4.5746302430408E+00
(PID.TID 0001.0001) %MON dynstat_theta_del2           =   8.8068528062448E-02
(PID.TID 0001.0001) %MON dynstat_salt_max             =   4.1403687719659E+01
(PID.TID 0001.0001) %MON dynstat_salt_min             =   1.8394071637995E+01
(PID.TID 0001.0001) %MON dynstat_salt_mean            =   3.4772087030375E+01
(PID.TID 0001.0001) %MON dynstat_salt_sd              =   5.3139555632538E-01
(PID.TID 0001.0001) %MON dynstat_salt_del2            =   1.8805014937883E-02
(PID.TID 0001.0001) %MON dynstat_sst_max              =   3.1226688113789E+01
(PID.TID 0001.0001) %MON dynstat_sst_min              =  -2.0282869897789E+00
(PID.TID 0001.0001) %MON dynstat_sst_mean             =   1.8253024446690E+01
(PID.TID 0001.0001) %MON dynstat_sst_sd               =   9.7599095319689E+00
(PID.TID 0001.0001) %MON dynstat_sst_del2             =   2.1004942330910E-01
(PID.TID 0001.0001) %MON dynstat_sss_max              =   4.1403687719659E+01
(PID.TID 0001.0001) %MON dynstat_sss_min              =   1.8394071637995E+01
(PID.TID 0001.0001) %MON dynstat_sss_mean             =   3.4622614704677E+01
(PID.TID 0001.0001) %MON dynstat_sss_sd               =   1.4611347959850E+00
(PID.TID 0001.0001) %MON dynstat_sss_del2             =   7.9919112372455E-02
(PID.TID 0001.0001) %MON extforcing_qnet_max          =   4.2693997077631E+02
(PID.TID 0001.0001) %MON extforcing_qnet_min          =  -1.9343616982889E+02
(PID.TID 0001.0001) %MON extforcing_qnet_mean         =  -1.2968551416263E+01
(PID.TID 0001.0001) %MON extforcing_qnet_sd           =   9.9492223300472E+01
(PID.TID 0001.0001) %MON extforcing_qnet_del2         =   4.9945255312568E+00
(PID.TID 0001.0001) %MON extforcing_qsw_max           =   0.0000000000000E+00
(PID.TID 0001.0001) %MON extforcing_qsw_min           =   0.0000000000000E+00
(PID.TID 0001.0001) %MON extforcing_qsw_mean          =   0.0000000000000E+00
(PID.TID 0001.0001) %MON extforcing_qsw_sd            =   0.0000000000000E+00
(PID.TID 0001.0001) %MON extforcing_qsw_del2          =   0.0000000000000E+00
(PID.TID 0001.0001) %MON extforcing_empmr_max         =   7.6494447208479E-08
(PID.TID 0001.0001) %MON extforcing_empmr_min         =  -1.5362614137596E-07
(PID.TID 0001.0001) %MON extforcing_empmr_mean        =  -2.4569998834069E-24
(PID.TID 0001.0001) %MON extforcing_empmr_sd          =   2.4051723601802E-08
(PID.TID 0001.0001) %MON extforcing_empmr_del2        =   1.2835223797615E-09
(PID.TID 0001.0001) %MON extforcing_fu_max            =   2.4203671674909E-01
(PID.TID 0001.0001) %MON extforcing_fu_min            =  -1.9431438996982E-01
(PID.TID 0001.0001) %MON extforcing_fu_mean           =  -4.3504815744455E-03
(PID.TID 0001.0001) %MON extforcing_fu_sd             =   6.3986408003478E-02
(PID.TID 0001.0001) %MON extforcing_fu_del2           =   2.8143493580305E-03
(PID.TID 0001.0001) %MON extforcing_fv_max            =   2.8181226170264E-01
(PID.TID 0001.0001) %MON extforcing_fv_min            =  -2.9135458178179E-01
(PID.TID 0001.0001) %MON extforcing_fv_mean           =  -1.3720515805118E-02
(PID.TID 0001.0001) %MON extforcing_fv_sd             =   7.4610328396160E-02
(PID.TID 0001.0001) %MON extforcing_fv_del2           =   3.0765490778559E-03
(PID.TID 0001.0001) %MON advcfl_uvel_max              =   7.7703328727613E-02
(PID.TID 0001.0001) %MON advcfl_vvel_max              =   7.8280071782285E-02
(PID.TID 0001.0001) %MON advcfl_wvel_max              =   6.4360646814463E-02
(PID.TID 0001.0001) %MON advcfl_W_hf_max              =   1.0118290858458E-01
(PID.TID 0001.0001) %MON pe_b_mean                    =   4.7451805688878E-04
(PID.TID 0001.0001) %MON ke_max                       =   3.6492244736828E-02
(PID.TID 0001.0001) %MON ke_mean                      =   1.4027192239743E-04
(PID.TID 0001.0001) %MON ke_vol                       =   1.3398024453628E+18
(PID.TID 0001.0001) %MON vort_r_min                   =  -1.3165756651694E-06
(PID.TID 0001.0001) %MON vort_r_max                   =   1.2335616910283E-06
(PID.TID 0001.0001) %MON vort_a_mean                  =  -2.0493733748264E-05
(PID.TID 0001.0001) %MON vort_a_sd                    =   7.5053945673441E-05
(PID.TID 0001.0001) %MON vort_p_mean                  =  -2.4715772746394E-05
(PID.TID 0001.0001) %MON vort_p_sd                    =   1.2777070084781E-04
(PID.TID 0001.0001) %MON surfExpan_theta_mean         =   4.8656456434167E-08
(PID.TID 0001.0001) %MON surfExpan_salt_mean          =   1.5382034379995E-08
(PID.TID 0001.0001) // =======================================================
(PID.TID 0001.0001) // End MONITOR dynamic field statistics
(PID.TID 0001.0001) // =======================================================
 DRIVER_GET_EXPORT_STATE_3D:MASK. This code is stubbed!
 DRIVER_SET_IMPORT_STATE_3D:SWHEAT. This code is stubbed!
 cg2d: Sum(rhs),rhsMax =  -9.69180291576777E-12  1.38278596280779E+00
(PID.TID 0001.0001)                    cg2d_init_res =    1.42925866807557E-01
(PID.TID 0001.0001)                       cg2d_iters =    61
(PID.TID 0001.0001)                         cg2d_res =    5.09201995855116E-07
(PID.TID 0001.0001) // =======================================================
(PID.TID 0001.0001) // Begin MONITOR dynamic field statistics
(PID.TID 0001.0001) // =======================================================
(PID.TID 0001.0001) %MON time_tsnumber                =                 72031
(PID.TID 0001.0001) %MON time_secondsf                =   6.2234784000000E+09
(PID.TID 0001.0001) %MON dynstat_eta_max              =   8.8605059235108E-01
(PID.TID 0001.0001) %MON dynstat_eta_min              =  -1.6022337124306E+00
(PID.TID 0001.0001) %MON dynstat_eta_mean             =   1.4400085136058E-14
(PID.TID 0001.0001) %MON dynstat_eta_sd               =   5.9678741274743E-01
(PID.TID 0001.0001) %MON dynstat_eta_del2             =   1.1311411790056E-02
(PID.TID 0001.0001) %MON dynstat_uvel_max             =   1.8033058407293E-01
(PID.TID 0001.0001) %MON dynstat_uvel_min             =  -2.7331510666246E-01
(PID.TID 0001.0001) %MON dynstat_uvel_mean            =  -4.7442307828137E-04
(PID.TID 0001.0001) %MON dynstat_uvel_sd              =   1.2018253341557E-02
(PID.TID 0001.0001) %MON dynstat_uvel_del2            =   1.5681035231496E-03
(PID.TID 0001.0001) %MON dynstat_vvel_max             =   1.8041422676223E-01
(PID.TID 0001.0001) %MON dynstat_vvel_min             =  -2.2209340224423E-01
(PID.TID 0001.0001) %MON dynstat_vvel_mean            =  -3.9156912665337E-04
(PID.TID 0001.0001) %MON dynstat_vvel_sd              =   1.2603101499764E-02
(PID.TID 0001.0001) %MON dynstat_vvel_del2            =   1.5859718927721E-03
(PID.TID 0001.0001) %MON dynstat_wvel_max             =   1.0881453283022E-04
(PID.TID 0001.0001) %MON dynstat_wvel_min             =  -1.9721098571026E-04
(PID.TID 0001.0001) %MON dynstat_wvel_mean            =  -2.0731578579712E-11
(PID.TID 0001.0001) %MON dynstat_wvel_sd              =   3.7430176875342E-06
(PID.TID 0001.0001) %MON dynstat_wvel_del2            =   8.3952745297742E-07
(PID.TID 0001.0001) %MON dynstat_theta_max            =   3.1230759102911E+01
(PID.TID 0001.0001) %MON dynstat_theta_min            =  -3.5967737492576E+00
(PID.TID 0001.0001) %MON dynstat_theta_mean           =   3.9109945763717E+00
(PID.TID 0001.0001) %MON dynstat_theta_sd             =   4.5748660839825E+00
(PID.TID 0001.0001) %MON dynstat_theta_del2           =   8.8080550585668E-02
(PID.TID 0001.0001) %MON dynstat_salt_max             =   4.1404332847625E+01
(PID.TID 0001.0001) %MON dynstat_salt_min             =   1.8394481766910E+01
(PID.TID 0001.0001) %MON dynstat_salt_mean            =   3.4772087901533E+01
(PID.TID 0001.0001) %MON dynstat_salt_sd              =   5.3139232420015E-01
(PID.TID 0001.0001) %MON dynstat_salt_del2            =   1.8806521544872E-02
(PID.TID 0001.0001) %MON dynstat_sst_max              =   3.1230759102911E+01
(PID.TID 0001.0001) %MON dynstat_sst_min              =  -2.0270393947201E+00
(PID.TID 0001.0001) %MON dynstat_sst_mean             =   1.8258597795371E+01
(PID.TID 0001.0001) %MON dynstat_sst_sd               =   9.7616888600487E+00
(PID.TID 0001.0001) %MON dynstat_sst_del2             =   2.1010175661155E-01
(PID.TID 0001.0001) %MON dynstat_sss_max              =   4.1404332847625E+01
(PID.TID 0001.0001) %MON dynstat_sss_min              =   1.8394481766910E+01
(PID.TID 0001.0001) %MON dynstat_sss_mean             =   3.4622398508911E+01
(PID.TID 0001.0001) %MON dynstat_sss_sd               =   1.4609658855332E+00
(PID.TID 0001.0001) %MON dynstat_sss_del2             =   7.9916110305520E-02
(PID.TID 0001.0001) %MON extforcing_qnet_max          =   4.2514772914487E+02
(PID.TID 0001.0001) %MON extforcing_qnet_min          =  -1.9321554683639E+02
(PID.TID 0001.0001) %MON extforcing_qnet_mean         =  -1.3014215951618E+01
(PID.TID 0001.0001) %MON extforcing_qnet_sd           =   9.8590596387154E+01
(PID.TID 0001.0001) %MON extforcing_qnet_del2         =   4.9816752656801E+00
(PID.TID 0001.0001) %MON extforcing_qsw_max           =   0.0000000000000E+00
(PID.TID 0001.0001) %MON extforcing_qsw_min           =   0.0000000000000E+00
(PID.TID 0001.0001) %MON extforcing_qsw_mean          =   0.0000000000000E+00
(PID.TID 0001.0001) %MON extforcing_qsw_sd            =   0.0000000000000E+00
(PID.TID 0001.0001) %MON extforcing_qsw_del2          =   0.0000000000000E+00
(PID.TID 0001.0001) %MON extforcing_empmr_max         =   7.6494447208479E-08
(PID.TID 0001.0001) %MON extforcing_empmr_min         =  -1.5362614137596E-07
(PID.TID 0001.0001) %MON extforcing_empmr_mean        =  -2.0474999028391E-24
(PID.TID 0001.0001) %MON extforcing_empmr_sd          =   2.4051723601802E-08
(PID.TID 0001.0001) %MON extforcing_empmr_del2        =   1.2835223797615E-09
(PID.TID 0001.0001) %MON extforcing_fu_max            =   2.4387801653079E-01
(PID.TID 0001.0001) %MON extforcing_fu_min            =  -1.9631499553209E-01
(PID.TID 0001.0001) %MON extforcing_fu_mean           =  -4.3825823323879E-03
(PID.TID 0001.0001) %MON extforcing_fu_sd             =   6.3988371685681E-02
(PID.TID 0001.0001) %MON extforcing_fu_del2           =   2.8110565365174E-03
(PID.TID 0001.0001) %MON extforcing_fv_max            =   2.8176692286341E-01
(PID.TID 0001.0001) %MON extforcing_fv_min            =  -2.8791552960301E-01
(PID.TID 0001.0001) %MON extforcing_fv_mean           =  -1.3718672626754E-02
(PID.TID 0001.0001) %MON extforcing_fv_sd             =   7.4582882118588E-02
(PID.TID 0001.0001) %MON extforcing_fv_del2           =   3.0776600771981E-03
(PID.TID 0001.0001) %MON advcfl_uvel_max              =   7.7517348678053E-02
(PID.TID 0001.0001) %MON advcfl_vvel_max              =   7.8640019731388E-02
(PID.TID 0001.0001) %MON advcfl_wvel_max              =   6.4298223265532E-02
(PID.TID 0001.0001) %MON advcfl_W_hf_max              =   1.0002047247442E-01
(PID.TID 0001.0001) %MON pe_b_mean                    =   4.7446456382198E-04
(PID.TID 0001.0001) %MON ke_max                       =   3.6327126287891E-02
(PID.TID 0001.0001) %MON ke_mean                      =   1.4022036267145E-04
(PID.TID 0001.0001) %MON ke_vol                       =   1.3398024453628E+18
(PID.TID 0001.0001) %MON vort_r_min                   =  -1.3183249014691E-06
(PID.TID 0001.0001) %MON vort_r_max                   =   1.2302076018878E-06
(PID.TID 0001.0001) %MON vort_a_mean                  =  -2.0493733748264E-05
(PID.TID 0001.0001) %MON vort_a_sd                    =   7.5053945696456E-05
(PID.TID 0001.0001) %MON vort_p_mean                  =  -2.4715772695625E-05
(PID.TID 0001.0001) %MON vort_p_sd                    =   1.2777069700726E-04
(PID.TID 0001.0001) %MON surfExpan_theta_mean         =   4.8729611896136E-08
(PID.TID 0001.0001) %MON surfExpan_salt_mean          =   1.5374409018889E-08
(PID.TID 0001.0001) // =======================================================
(PID.TID 0001.0001) // End MONITOR dynamic field statistics
(PID.TID 0001.0001) // =======================================================
 DRIVER_GET_EXPORT_STATE_3D:MASK. This code is stubbed!
 DRIVER_SET_IMPORT_STATE_3D:SWHEAT. This code is stubbed!
 cg2d: Sum(rhs),rhsMax =  -9.35074240260292E-12  1.38393457238315E+00
(PID.TID 0001.0001)                    cg2d_init_res =    1.44048659637332E-01
(PID.TID 0001.0001)                       cg2d_iters =    61
(PID.TID 0001.0001)                         cg2d_res =    5.07039483481224E-07
(PID.TID 0001.0001) // =======================================================
(PID.TID 0001.0001) // Begin MONITOR dynamic field statistics
(PID.TID 0001.0001) // =======================================================
(PID.TID 0001.0001) %MON time_tsnumber                =                 72032
(PID.TID 0001.0001) %MON time_secondsf                =   6.2235648000000E+09
(PID.TID 0001.0001) %MON dynstat_eta_max              =   8.8538632455646E-01
(PID.TID 0001.0001) %MON dynstat_eta_min              =  -1.6018189405347E+00
(PID.TID 0001.0001) %MON dynstat_eta_mean             =   1.4482528371570E-14
(PID.TID 0001.0001) %MON dynstat_eta_sd               =   5.9675299073703E-01
(PID.TID 0001.0001) %MON dynstat_eta_del2             =   1.1315925493014E-02
(PID.TID 0001.0001) %MON dynstat_uvel_max             =   1.7972949600571E-01
(PID.TID 0001.0001) %MON dynstat_uvel_min             =  -2.7265061681549E-01
(PID.TID 0001.0001) %MON dynstat_uvel_mean            =  -4.7397699997008E-04
(PID.TID 0001.0001) %MON dynstat_uvel_sd              =   1.2017364862488E-02
(PID.TID 0001.0001) %MON dynstat_uvel_del2            =   1.5685670186102E-03
(PID.TID 0001.0001) %MON dynstat_vvel_max             =   1.8115673219833E-01
(PID.TID 0001.0001) %MON dynstat_vvel_min             =  -2.2219125957874E-01
(PID.TID 0001.0001) %MON dynstat_vvel_mean            =  -3.9098435184195E-04
(PID.TID 0001.0001) %MON dynstat_vvel_sd              =   1.2599753711742E-02
(PID.TID 0001.0001) %MON dynstat_vvel_del2            =   1.5859096144224E-03
(PID.TID 0001.0001) %MON dynstat_wvel_max             =   1.0841803268118E-04
(PID.TID 0001.0001) %MON dynstat_wvel_min             =  -1.9706454095188E-04
(PID.TID 0001.0001) %MON dynstat_wvel_mean            =  -1.5101273941876E-11
(PID.TID 0001.0001) %MON dynstat_wvel_sd              =   3.7372423944219E-06
(PID.TID 0001.0001) %MON dynstat_wvel_del2            =   8.3984205605728E-07
(PID.TID 0001.0001) %MON dynstat_theta_max            =   3.1234329314691E+01
(PID.TID 0001.0001) %MON dynstat_theta_min            =  -3.6172757878534E+00
(PID.TID 0001.0001) %MON dynstat_theta_mean           =   3.9110589186319E+00
(PID.TID 0001.0001) %MON dynstat_theta_sd             =   4.5751082574909E+00
(PID.TID 0001.0001) %MON dynstat_theta_del2           =   8.8095831223810E-02
(PID.TID 0001.0001) %MON dynstat_salt_max             =   4.1404981396265E+01
(PID.TID 0001.0001) %MON dynstat_salt_min             =   1.8394903227770E+01
(PID.TID 0001.0001) %MON dynstat_salt_mean            =   3.4772088787532E+01
(PID.TID 0001.0001) %MON dynstat_salt_sd              =   5.3138896648505E-01
(PID.TID 0001.0001) %MON dynstat_salt_del2            =   1.8807446223422E-02
(PID.TID 0001.0001) %MON dynstat_sst_max              =   3.1234329314691E+01
(PID.TID 0001.0001) %MON dynstat_sst_min              =  -2.0257363679592E+00
(PID.TID 0001.0001) %MON dynstat_sst_mean             =   1.8264201599434E+01
(PID.TID 0001.0001) %MON dynstat_sst_sd               =   9.7636366706297E+00
(PID.TID 0001.0001) %MON dynstat_sst_del2             =   2.1011156534246E-01
(PID.TID 0001.0001) %MON dynstat_sss_max              =   4.1404981396265E+01
(PID.TID 0001.0001) %MON dynstat_sss_min              =   1.8394903227770E+01
(PID.TID 0001.0001) %MON dynstat_sss_mean             =   3.4622187388007E+01
(PID.TID 0001.0001) %MON dynstat_sss_sd               =   1.4607883327080E+00
(PID.TID 0001.0001) %MON dynstat_sss_del2             =   7.9905341695354E-02
(PID.TID 0001.0001) %MON extforcing_qnet_max          =   4.2335548751342E+02
(PID.TID 0001.0001) %MON extforcing_qnet_min          =  -1.9299492384389E+02
(PID.TID 0001.0001) %MON extforcing_qnet_mean         =  -1.3059880486974E+01
(PID.TID 0001.0001) %MON extforcing_qnet_sd           =   9.7701768387528E+01
(PID.TID 0001.0001) %MON extforcing_qnet_del2         =   4.9701178753710E+00
(PID.TID 0001.0001) %MON extforcing_qsw_max           =   0.0000000000000E+00
(PID.TID 0001.0001) %MON extforcing_qsw_min           =   0.0000000000000E+00
(PID.TID 0001.0001) %MON extforcing_qsw_mean          =   0.0000000000000E+00
(PID.TID 0001.0001) %MON extforcing_qsw_sd            =   0.0000000000000E+00
(PID.TID 0001.0001) %MON extforcing_qsw_del2          =   0.0000000000000E+00
(PID.TID 0001.0001) %MON extforcing_empmr_max         =   7.6494447208479E-08
(PID.TID 0001.0001) %MON extforcing_empmr_min         =  -1.5362614137596E-07
(PID.TID 0001.0001) %MON extforcing_empmr_mean        =  -2.4569998834069E-24
(PID.TID 0001.0001) %MON extforcing_empmr_sd          =   2.4051723601802E-08
(PID.TID 0001.0001) %MON extforcing_empmr_del2        =   1.2835223797615E-09
(PID.TID 0001.0001) %MON extforcing_fu_max            =   2.4571931631249E-01
(PID.TID 0001.0001) %MON extforcing_fu_min            =  -1.9831560109435E-01
(PID.TID 0001.0001) %MON extforcing_fu_mean           =  -4.4146842357060E-03
(PID.TID 0001.0001) %MON extforcing_fu_sd             =   6.4004947534036E-02
(PID.TID 0001.0001) %MON extforcing_fu_del2           =   2.8110022930168E-03
(PID.TID 0001.0001) %MON extforcing_fv_max            =   2.8196075682438E-01
(PID.TID 0001.0001) %MON extforcing_fv_min            =  -2.8447647742423E-01
(PID.TID 0001.0001) %MON extforcing_fv_mean           =  -1.3716829279926E-02
(PID.TID 0001.0001) %MON extforcing_fv_sd             =   7.4573021380507E-02
(PID.TID 0001.0001) %MON extforcing_fv_del2           =   3.0818669049930E-03
(PID.TID 0001.0001) %MON advcfl_uvel_max              =   7.7328886752951E-02
(PID.TID 0001.0001) %MON advcfl_vvel_max              =   7.8963667390408E-02
(PID.TID 0001.0001) %MON advcfl_wvel_max              =   6.4250476748085E-02
(PID.TID 0001.0001) %MON advcfl_W_hf_max              =   9.8810525433950E-02
(PID.TID 0001.0001) %MON pe_b_mean                    =   4.7440983226165E-04
(PID.TID 0001.0001) %MON ke_max                       =   3.6161108493093E-02
(PID.TID 0001.0001) %MON ke_mean                      =   1.4017100865157E-04
(PID.TID 0001.0001) %MON ke_vol                       =   1.3398024453628E+18
(PID.TID 0001.0001) %MON vort_r_min                   =  -1.3198755010737E-06
(PID.TID 0001.0001) %MON vort_r_max                   =   1.2266139877185E-06
(PID.TID 0001.0001) %MON vort_a_mean                  =  -2.0493733748264E-05
(PID.TID 0001.0001) %MON vort_a_sd                    =   7.5053945727729E-05
(PID.TID 0001.0001) %MON vort_p_mean                  =  -2.4715772646712E-05
(PID.TID 0001.0001) %MON vort_p_sd                    =   1.2777069269516E-04
(PID.TID 0001.0001) %MON surfExpan_theta_mean         =   4.8774481381390E-08
(PID.TID 0001.0001) %MON surfExpan_salt_mean          =   1.5365152418027E-08
(PID.TID 0001.0001) // =======================================================
(PID.TID 0001.0001) // End MONITOR dynamic field statistics
(PID.TID 0001.0001) // =======================================================
 DRIVER_GET_EXPORT_STATE_3D:MASK. This code is stubbed!
 DRIVER_SET_IMPORT_STATE_3D:SWHEAT. This code is stubbed!
 cg2d: Sum(rhs),rhsMax =  -9.72022462519817E-12  1.38488386880078E+00
(PID.TID 0001.0001)                    cg2d_init_res =    1.44489722788569E-01
(PID.TID 0001.0001)                       cg2d_iters =    61
(PID.TID 0001.0001)                         cg2d_res =    5.04729264081680E-07
(PID.TID 0001.0001) // =======================================================
(PID.TID 0001.0001) // Begin MONITOR dynamic field statistics
(PID.TID 0001.0001) // =======================================================
(PID.TID 0001.0001) %MON time_tsnumber                =                 72033
(PID.TID 0001.0001) %MON time_secondsf                =   6.2236512000000E+09
(PID.TID 0001.0001) %MON dynstat_eta_max              =   8.8473289727120E-01
(PID.TID 0001.0001) %MON dynstat_eta_min              =  -1.6014230270812E+00
(PID.TID 0001.0001) %MON dynstat_eta_mean             =   1.4345122979050E-14
(PID.TID 0001.0001) %MON dynstat_eta_sd               =   5.9671770780006E-01
(PID.TID 0001.0001) %MON dynstat_eta_del2             =   1.1320645496362E-02
(PID.TID 0001.0001) %MON dynstat_uvel_max             =   1.7912222402409E-01
(PID.TID 0001.0001) %MON dynstat_uvel_min             =  -2.7197789129940E-01
(PID.TID 0001.0001) %MON dynstat_uvel_mean            =  -4.7352828618015E-04
(PID.TID 0001.0001) %MON dynstat_uvel_sd              =   1.2016474624512E-02
(PID.TID 0001.0001) %MON dynstat_uvel_del2            =   1.5690330378998E-03
(PID.TID 0001.0001) %MON dynstat_vvel_max             =   1.8181173082741E-01
(PID.TID 0001.0001) %MON dynstat_vvel_min             =  -2.2228344134314E-01
(PID.TID 0001.0001) %MON dynstat_vvel_mean            =  -3.9038920613738E-04
(PID.TID 0001.0001) %MON dynstat_vvel_sd              =   1.2596629158117E-02
(PID.TID 0001.0001) %MON dynstat_vvel_del2            =   1.5857984324240E-03
(PID.TID 0001.0001) %MON dynstat_wvel_max             =   1.0799683766119E-04
(PID.TID 0001.0001) %MON dynstat_wvel_min             =  -1.9696386912439E-04
(PID.TID 0001.0001) %MON dynstat_wvel_mean            =  -1.0167170532686E-11
(PID.TID 0001.0001) %MON dynstat_wvel_sd              =   3.7314260581385E-06
(PID.TID 0001.0001) %MON dynstat_wvel_del2            =   8.4017636519691E-07
(PID.TID 0001.0001) %MON dynstat_theta_max            =   3.1237415860835E+01
(PID.TID 0001.0001) %MON dynstat_theta_min            =  -3.6377914410482E+00
(PID.TID 0001.0001) %MON dynstat_theta_mean           =   3.9111234241001E+00
(PID.TID 0001.0001) %MON dynstat_theta_sd             =   4.5753564840382E+00
(PID.TID 0001.0001) %MON dynstat_theta_del2           =   8.8115840934220E-02
(PID.TID 0001.0001) %MON dynstat_salt_max             =   4.1405632722854E+01
(PID.TID 0001.0001) %MON dynstat_salt_min             =   1.8395341046183E+01
(PID.TID 0001.0001) %MON dynstat_salt_mean            =   3.4772089688328E+01
(PID.TID 0001.0001) %MON dynstat_salt_sd              =   5.3138538047079E-01
(PID.TID 0001.0001) %MON dynstat_salt_del2            =   1.8807847920598E-02
(PID.TID 0001.0001) %MON dynstat_sst_max              =   3.1237415860835E+01
(PID.TID 0001.0001) %MON dynstat_sst_min              =  -2.0239229055215E+00
(PID.TID 0001.0001) %MON dynstat_sst_mean             =   1.8269869024462E+01
(PID.TID 0001.0001) %MON dynstat_sst_sd               =   9.7657066913730E+00
(PID.TID 0001.0001) %MON dynstat_sst_del2             =   2.1012320578676E-01
(PID.TID 0001.0001) %MON dynstat_sss_max              =   4.1405632722854E+01
(PID.TID 0001.0001) %MON dynstat_sss_min              =   1.8395341046183E+01
(PID.TID 0001.0001) %MON dynstat_sss_mean             =   3.4621993360020E+01
(PID.TID 0001.0001) %MON dynstat_sss_sd               =   1.4606142198736E+00
(PID.TID 0001.0001) %MON dynstat_sss_del2             =   7.9884644371937E-02
(PID.TID 0001.0001) %MON extforcing_qnet_max          =   4.2156324588197E+02
(PID.TID 0001.0001) %MON extforcing_qnet_min          =  -1.9277430085139E+02
(PID.TID 0001.0001) %MON extforcing_qnet_mean         =  -1.3105545022329E+01
(PID.TID 0001.0001) %MON extforcing_qnet_sd           =   9.6826091770232E+01
(PID.TID 0001.0001) %MON extforcing_qnet_del2         =   4.9605020972664E+00
(PID.TID 0001.0001) %MON extforcing_qsw_max           =   0.0000000000000E+00
(PID.TID 0001.0001) %MON extforcing_qsw_min           =   0.0000000000000E+00
(PID.TID 0001.0001) %MON extforcing_qsw_mean          =   0.0000000000000E+00
(PID.TID 0001.0001) %MON extforcing_qsw_sd            =   0.0000000000000E+00
(PID.TID 0001.0001) %MON extforcing_qsw_del2          =   0.0000000000000E+00
(PID.TID 0001.0001) %MON extforcing_empmr_max         =   7.6494447208479E-08
(PID.TID 0001.0001) %MON extforcing_empmr_min         =  -1.5362614137596E-07
(PID.TID 0001.0001) %MON extforcing_empmr_mean        =  -2.0474999028391E-24
(PID.TID 0001.0001) %MON extforcing_empmr_sd          =   2.4051723601802E-08
(PID.TID 0001.0001) %MON extforcing_empmr_del2        =   1.2835223797615E-09
(PID.TID 0001.0001) %MON extforcing_fu_max            =   2.4756061609419E-01
(PID.TID 0001.0001) %MON extforcing_fu_min            =  -2.0074360949620E-01
(PID.TID 0001.0001) %MON extforcing_fu_mean           =  -4.4467873865671E-03
(PID.TID 0001.0001) %MON extforcing_fu_sd             =   6.4036124352106E-02
(PID.TID 0001.0001) %MON extforcing_fu_del2           =   2.8144591828632E-03
(PID.TID 0001.0001) %MON extforcing_fv_max            =   2.8215459078535E-01
(PID.TID 0001.0001) %MON extforcing_fv_min            =  -2.8103742524545E-01
(PID.TID 0001.0001) %MON extforcing_fv_mean           =  -1.3714985443581E-02
(PID.TID 0001.0001) %MON extforcing_fv_sd             =   7.4580753059508E-02
(PID.TID 0001.0001) %MON extforcing_fv_del2           =   3.0881608460644E-03
(PID.TID 0001.0001) %MON advcfl_uvel_max              =   7.7138089035870E-02
(PID.TID 0001.0001) %MON advcfl_vvel_max              =   7.9249172065063E-02
(PID.TID 0001.0001) %MON advcfl_wvel_max              =   6.4217653933386E-02
(PID.TID 0001.0001) %MON advcfl_W_hf_max              =   9.7553993186352E-02
(PID.TID 0001.0001) %MON pe_b_mean                    =   4.7435373509032E-04
(PID.TID 0001.0001) %MON ke_max                       =   3.5994252635445E-02
(PID.TID 0001.0001) %MON ke_mean                      =   1.4012425014735E-04
(PID.TID 0001.0001) %MON ke_vol                       =   1.3398024453628E+18
(PID.TID 0001.0001) %MON vort_r_min                   =  -1.3212447900279E-06
(PID.TID 0001.0001) %MON vort_r_max                   =   1.2228074536362E-06
(PID.TID 0001.0001) %MON vort_a_mean                  =  -2.0493733748264E-05
(PID.TID 0001.0001) %MON vort_a_sd                    =   7.5053945767434E-05
(PID.TID 0001.0001) %MON vort_p_mean                  =  -2.4715772599246E-05
(PID.TID 0001.0001) %MON vort_p_sd                    =   1.2777068789478E-04
(PID.TID 0001.0001) %MON surfExpan_theta_mean         =   4.8793073096822E-08
(PID.TID 0001.0001) %MON surfExpan_salt_mean          =   1.5352957161966E-08
(PID.TID 0001.0001) // =======================================================
(PID.TID 0001.0001) // End MONITOR dynamic field statistics
(PID.TID 0001.0001) // =======================================================
 DRIVER_GET_EXPORT_STATE_3D:MASK. This code is stubbed!
 DRIVER_SET_IMPORT_STATE_3D:SWHEAT. This code is stubbed!
 cg2d: Sum(rhs),rhsMax =  -9.77706804405898E-12  1.38620408666681E+00
(PID.TID 0001.0001)                    cg2d_init_res =    1.42335734967815E-01
(PID.TID 0001.0001)                       cg2d_iters =    61
(PID.TID 0001.0001)                         cg2d_res =    4.99833194858601E-07
(PID.TID 0001.0001) // =======================================================
(PID.TID 0001.0001) // Begin MONITOR dynamic field statistics
(PID.TID 0001.0001) // =======================================================
(PID.TID 0001.0001) %MON time_tsnumber                =                 72034
(PID.TID 0001.0001) %MON time_secondsf                =   6.2237376000000E+09
(PID.TID 0001.0001) %MON dynstat_eta_max              =   8.8408717134516E-01
(PID.TID 0001.0001) %MON dynstat_eta_min              =  -1.6010465094645E+00
(PID.TID 0001.0001) %MON dynstat_eta_mean             =   1.4345122979050E-14
(PID.TID 0001.0001) %MON dynstat_eta_sd               =   5.9668142759969E-01
(PID.TID 0001.0001) %MON dynstat_eta_del2             =   1.1325758127430E-02
(PID.TID 0001.0001) %MON dynstat_uvel_max             =   1.7851358745058E-01
(PID.TID 0001.0001) %MON dynstat_uvel_min             =  -2.7129746236333E-01
(PID.TID 0001.0001) %MON dynstat_uvel_mean            =  -4.7307487869222E-04
(PID.TID 0001.0001) %MON dynstat_uvel_sd              =   1.2015598620381E-02
(PID.TID 0001.0001) %MON dynstat_uvel_del2            =   1.5695492490117E-03
(PID.TID 0001.0001) %MON dynstat_vvel_max             =   1.8237559952703E-01
(PID.TID 0001.0001) %MON dynstat_vvel_min             =  -2.2237024331323E-01
(PID.TID 0001.0001) %MON dynstat_vvel_mean            =  -3.8978422079073E-04
(PID.TID 0001.0001) %MON dynstat_vvel_sd              =   1.2593737489777E-02
(PID.TID 0001.0001) %MON dynstat_vvel_del2            =   1.5857670089716E-03
(PID.TID 0001.0001) %MON dynstat_wvel_max             =   1.0755844070139E-04
(PID.TID 0001.0001) %MON dynstat_wvel_min             =  -1.9690891602894E-04
(PID.TID 0001.0001) %MON dynstat_wvel_mean            =  -5.6502170423821E-12
(PID.TID 0001.0001) %MON dynstat_wvel_sd              =   3.7256255214446E-06
(PID.TID 0001.0001) %MON dynstat_wvel_del2            =   8.4035553878615E-07
(PID.TID 0001.0001) %MON dynstat_theta_max            =   3.1240034682059E+01
(PID.TID 0001.0001) %MON dynstat_theta_min            =  -3.6582858717687E+00
(PID.TID 0001.0001) %MON dynstat_theta_mean           =   3.9111880765162E+00
(PID.TID 0001.0001) %MON dynstat_theta_sd             =   4.5756102615708E+00
(PID.TID 0001.0001) %MON dynstat_theta_del2           =   8.8137314558949E-02
(PID.TID 0001.0001) %MON dynstat_salt_max             =   4.1406286257043E+01
(PID.TID 0001.0001) %MON dynstat_salt_min             =   1.8395803249678E+01
(PID.TID 0001.0001) %MON dynstat_salt_mean            =   3.4772090603669E+01
(PID.TID 0001.0001) %MON dynstat_salt_sd              =   5.3138138139458E-01
(PID.TID 0001.0001) %MON dynstat_salt_del2            =   1.8806437017321E-02
(PID.TID 0001.0001) %MON dynstat_sst_max              =   3.1240034682059E+01
(PID.TID 0001.0001) %MON dynstat_sst_min              =  -2.0214850017144E+00
(PID.TID 0001.0001) %MON dynstat_sst_mean             =   1.8275573257816E+01
(PID.TID 0001.0001) %MON dynstat_sst_sd               =   9.7679897380974E+00
(PID.TID 0001.0001) %MON dynstat_sst_del2             =   2.1027288719985E-01
(PID.TID 0001.0001) %MON dynstat_sss_max              =   4.1406286257043E+01
(PID.TID 0001.0001) %MON dynstat_sss_min              =   1.8395803249678E+01
(PID.TID 0001.0001) %MON dynstat_sss_mean             =   3.4621816395902E+01
(PID.TID 0001.0001) %MON dynstat_sss_sd               =   1.4604511675122E+00
(PID.TID 0001.0001) %MON dynstat_sss_del2             =   7.9862229211364E-02
(PID.TID 0001.0001) %MON extforcing_qnet_max          =   4.1977100425052E+02
(PID.TID 0001.0001) %MON extforcing_qnet_min          =  -1.9255367785889E+02
(PID.TID 0001.0001) %MON extforcing_qnet_mean         =  -1.3151209557684E+01
(PID.TID 0001.0001) %MON extforcing_qnet_sd           =   9.5963926557412E+01
(PID.TID 0001.0001) %MON extforcing_qnet_del2         =   4.9524666254148E+00
(PID.TID 0001.0001) %MON extforcing_qsw_max           =   0.0000000000000E+00
(PID.TID 0001.0001) %MON extforcing_qsw_min           =   0.0000000000000E+00
(PID.TID 0001.0001) %MON extforcing_qsw_mean          =   0.0000000000000E+00
(PID.TID 0001.0001) %MON extforcing_qsw_sd            =   0.0000000000000E+00
(PID.TID 0001.0001) %MON extforcing_qsw_del2          =   0.0000000000000E+00
(PID.TID 0001.0001) %MON extforcing_empmr_max         =   7.6494447208479E-08
(PID.TID 0001.0001) %MON extforcing_empmr_min         =  -1.5362614137596E-07
(PID.TID 0001.0001) %MON extforcing_empmr_mean        =  -2.0474999028391E-24
(PID.TID 0001.0001) %MON extforcing_empmr_sd          =   2.4051723601802E-08
(PID.TID 0001.0001) %MON extforcing_empmr_del2        =   1.2835223797615E-09
(PID.TID 0001.0001) %MON extforcing_fu_max            =   2.4940191587590E-01
(PID.TID 0001.0001) %MON extforcing_fu_min            =  -2.0371197159644E-01
(PID.TID 0001.0001) %MON extforcing_fu_mean           =  -4.4788918990618E-03
(PID.TID 0001.0001) %MON extforcing_fu_sd             =   6.4081880971485E-02
(PID.TID 0001.0001) %MON extforcing_fu_del2           =   2.8205544598633E-03
(PID.TID 0001.0001) %MON extforcing_fv_max            =   2.8234842474632E-01
(PID.TID 0001.0001) %MON extforcing_fv_min            =  -2.7759837306666E-01
(PID.TID 0001.0001) %MON extforcing_fv_mean           =  -1.3713140818549E-02
(PID.TID 0001.0001) %MON extforcing_fv_sd             =   7.4606071554452E-02
(PID.TID 0001.0001) %MON extforcing_fv_del2           =   3.0972366246982E-03
(PID.TID 0001.0001) %MON advcfl_uvel_max              =   7.6945106482755E-02
(PID.TID 0001.0001) %MON advcfl_vvel_max              =   7.9494954487321E-02
(PID.TID 0001.0001) %MON advcfl_wvel_max              =   6.4199737150569E-02
(PID.TID 0001.0001) %MON advcfl_W_hf_max              =   9.6251803062559E-02
(PID.TID 0001.0001) %MON pe_b_mean                    =   4.7429605580526E-04
(PID.TID 0001.0001) %MON ke_max                       =   3.5826622657320E-02
(PID.TID 0001.0001) %MON ke_mean                      =   1.4008037386086E-04
(PID.TID 0001.0001) %MON ke_vol                       =   1.3398024453628E+18
(PID.TID 0001.0001) %MON vort_r_min                   =  -1.3224513765286E-06
(PID.TID 0001.0001) %MON vort_r_max                   =   1.2188188406830E-06
(PID.TID 0001.0001) %MON vort_a_mean                  =  -2.0493733748264E-05
(PID.TID 0001.0001) %MON vort_a_sd                    =   7.5053945815811E-05
(PID.TID 0001.0001) %MON vort_p_mean                  =  -2.4715772553042E-05
(PID.TID 0001.0001) %MON vort_p_sd                    =   1.2777068260442E-04
(PID.TID 0001.0001) %MON surfExpan_theta_mean         =   4.8805747804410E-08
(PID.TID 0001.0001) %MON surfExpan_salt_mean          =   1.5335944012191E-08
(PID.TID 0001.0001) // =======================================================
(PID.TID 0001.0001) // End MONITOR dynamic field statistics
(PID.TID 0001.0001) // =======================================================
 DRIVER_GET_EXPORT_STATE_3D:MASK. This code is stubbed!
 DRIVER_SET_IMPORT_STATE_3D:SWHEAT. This code is stubbed!
 cg2d: Sum(rhs),rhsMax =  -9.60653778747655E-12  1.38726157631232E+00
(PID.TID 0001.0001)                    cg2d_init_res =    1.41192316388700E-01
(PID.TID 0001.0001)                       cg2d_iters =    61
(PID.TID 0001.0001)                         cg2d_res =    4.98067261876069E-07
(PID.TID 0001.0001) // =======================================================
(PID.TID 0001.0001) // Begin MONITOR dynamic field statistics
(PID.TID 0001.0001) // =======================================================
(PID.TID 0001.0001) %MON time_tsnumber                =                 72035
(PID.TID 0001.0001) %MON time_secondsf                =   6.2238240000000E+09
(PID.TID 0001.0001) %MON dynstat_eta_max              =   8.8344721613241E-01
(PID.TID 0001.0001) %MON dynstat_eta_min              =  -1.6006882907938E+00
(PID.TID 0001.0001) %MON dynstat_eta_mean             =   1.4455047293066E-14
(PID.TID 0001.0001) %MON dynstat_eta_sd               =   5.9664406053915E-01
(PID.TID 0001.0001) %MON dynstat_eta_del2             =   1.1330757927796E-02
(PID.TID 0001.0001) %MON dynstat_uvel_max             =   1.7790810221671E-01
(PID.TID 0001.0001) %MON dynstat_uvel_min             =  -2.7060987856967E-01
(PID.TID 0001.0001) %MON dynstat_uvel_mean            =  -4.7261457497263E-04
(PID.TID 0001.0001) %MON dynstat_uvel_sd              =   1.2014743552960E-02
(PID.TID 0001.0001) %MON dynstat_uvel_del2            =   1.5699735734274E-03
(PID.TID 0001.0001) %MON dynstat_vvel_max             =   1.8284537169453E-01
(PID.TID 0001.0001) %MON dynstat_vvel_min             =  -2.2245194735257E-01
(PID.TID 0001.0001) %MON dynstat_vvel_mean            =  -3.8917074823909E-04
(PID.TID 0001.0001) %MON dynstat_vvel_sd              =   1.2591088526171E-02
(PID.TID 0001.0001) %MON dynstat_vvel_del2            =   1.5857461769220E-03
(PID.TID 0001.0001) %MON dynstat_wvel_max             =   1.0711066030880E-04
(PID.TID 0001.0001) %MON dynstat_wvel_min             =  -1.9689894752773E-04
(PID.TID 0001.0001) %MON dynstat_wvel_mean            =  -1.3267466042415E-12
(PID.TID 0001.0001) %MON dynstat_wvel_sd              =   3.7198865031610E-06
(PID.TID 0001.0001) %MON dynstat_wvel_del2            =   8.4042554923473E-07
(PID.TID 0001.0001) %MON dynstat_theta_max            =   3.1242200431124E+01
(PID.TID 0001.0001) %MON dynstat_theta_min            =  -3.6787494368108E+00
(PID.TID 0001.0001) %MON dynstat_theta_mean           =   3.9112528706925E+00
(PID.TID 0001.0001) %MON dynstat_theta_sd             =   4.5758673614172E+00
(PID.TID 0001.0001) %MON dynstat_theta_del2           =   8.8146490259725E-02
(PID.TID 0001.0001) %MON dynstat_salt_max             =   4.1406941483925E+01
(PID.TID 0001.0001) %MON dynstat_salt_min             =   1.8396303453583E+01
(PID.TID 0001.0001) %MON dynstat_salt_mean            =   3.4772091533323E+01
(PID.TID 0001.0001) %MON dynstat_salt_sd              =   5.3137602424046E-01
(PID.TID 0001.0001) %MON dynstat_salt_del2            =   1.8806674014938E-02
(PID.TID 0001.0001) %MON dynstat_sst_max              =   3.1242200431124E+01
(PID.TID 0001.0001) %MON dynstat_sst_min              =  -2.0187095238772E+00
(PID.TID 0001.0001) %MON dynstat_sst_mean             =   1.8281555097249E+01
(PID.TID 0001.0001) %MON dynstat_sst_sd               =   9.7702593038463E+00
(PID.TID 0001.0001) %MON dynstat_sst_del2             =   2.1031888291578E-01
(PID.TID 0001.0001) %MON dynstat_sss_max              =   4.1406941483925E+01
(PID.TID 0001.0001) %MON dynstat_sss_min              =   1.8396303453583E+01
(PID.TID 0001.0001) %MON dynstat_sss_mean             =   3.4621714183860E+01
(PID.TID 0001.0001) %MON dynstat_sss_sd               =   1.4603045127743E+00
(PID.TID 0001.0001) %MON dynstat_sss_del2             =   7.9805340453280E-02
(PID.TID 0001.0001) %MON extforcing_qnet_max          =   4.1797876261907E+02
(PID.TID 0001.0001) %MON extforcing_qnet_min          =  -1.9233305486639E+02
(PID.TID 0001.0001) %MON extforcing_qnet_mean         =  -1.3196874093039E+01
(PID.TID 0001.0001) %MON extforcing_qnet_sd           =   9.5115640167677E+01
(PID.TID 0001.0001) %MON extforcing_qnet_del2         =   4.9453768784960E+00
(PID.TID 0001.0001) %MON extforcing_qsw_max           =   0.0000000000000E+00
(PID.TID 0001.0001) %MON extforcing_qsw_min           =   0.0000000000000E+00
(PID.TID 0001.0001) %MON extforcing_qsw_mean          =   0.0000000000000E+00
(PID.TID 0001.0001) %MON extforcing_qsw_sd            =   0.0000000000000E+00
(PID.TID 0001.0001) %MON extforcing_qsw_del2          =   0.0000000000000E+00
(PID.TID 0001.0001) %MON extforcing_empmr_max         =   7.6494447208479E-08
(PID.TID 0001.0001) %MON extforcing_empmr_min         =  -1.5362614137596E-07
(PID.TID 0001.0001) %MON extforcing_empmr_mean        =  -1.2284999417034E-24
(PID.TID 0001.0001) %MON extforcing_empmr_sd          =   2.4051723601802E-08
(PID.TID 0001.0001) %MON extforcing_empmr_del2        =   1.2835223797615E-09
(PID.TID 0001.0001) %MON extforcing_fu_max            =   2.5124321565760E-01
(PID.TID 0001.0001) %MON extforcing_fu_min            =  -2.0668033369668E-01
(PID.TID 0001.0001) %MON extforcing_fu_mean           =  -4.5109978482548E-03
(PID.TID 0001.0001) %MON extforcing_fu_sd             =   6.4142186294097E-02
(PID.TID 0001.0001) %MON extforcing_fu_del2           =   2.8301354200034E-03
(PID.TID 0001.0001) %MON extforcing_fv_max            =   2.8254225870730E-01
(PID.TID 0001.0001) %MON extforcing_fv_min            =  -2.7752121532142E-01
(PID.TID 0001.0001) %MON extforcing_fv_mean           =  -1.3711295317882E-02
(PID.TID 0001.0001) %MON extforcing_fv_sd             =   7.4648958869613E-02
(PID.TID 0001.0001) %MON extforcing_fv_del2           =   3.1096169832377E-03
(PID.TID 0001.0001) %MON advcfl_uvel_max              =   7.6750094676312E-02
(PID.TID 0001.0001) %MON advcfl_vvel_max              =   7.9699721556886E-02
(PID.TID 0001.0001) %MON advcfl_wvel_max              =   6.4196487043005E-02
(PID.TID 0001.0001) %MON advcfl_W_hf_max              =   9.4904887235823E-02
(PID.TID 0001.0001) %MON pe_b_mean                    =   4.7423665226542E-04
(PID.TID 0001.0001) %MON ke_max                       =   3.5698896359383E-02
(PID.TID 0001.0001) %MON ke_mean                      =   1.4003956614497E-04
(PID.TID 0001.0001) %MON ke_vol                       =   1.3398024453628E+18
(PID.TID 0001.0001) %MON vort_r_min                   =  -1.3235149322939E-06
(PID.TID 0001.0001) %MON vort_r_max                   =   1.2146772971249E-06
(PID.TID 0001.0001) %MON vort_a_mean                  =  -2.0493733748264E-05
(PID.TID 0001.0001) %MON vort_a_sd                    =   7.5053945873141E-05
(PID.TID 0001.0001) %MON vort_p_mean                  =  -2.4715772507944E-05
(PID.TID 0001.0001) %MON vort_p_sd                    =   1.2777067684028E-04
(PID.TID 0001.0001) %MON surfExpan_theta_mean         =   4.8813728504054E-08
(PID.TID 0001.0001) %MON surfExpan_salt_mean          =   1.5311567399670E-08
(PID.TID 0001.0001) // =======================================================
(PID.TID 0001.0001) // End MONITOR dynamic field statistics
(PID.TID 0001.0001) // =======================================================
 DRIVER_GET_EXPORT_STATE_3D:MASK. This code is stubbed!
 DRIVER_SET_IMPORT_STATE_3D:SWHEAT. This code is stubbed!
 cg2d: Sum(rhs),rhsMax =  -9.89075488178059E-12  1.38846880565306E+00
(PID.TID 0001.0001)                    cg2d_init_res =    1.49910380075235E-01
(PID.TID 0001.0001)                       cg2d_iters =    61
(PID.TID 0001.0001)                         cg2d_res =    5.25384945412194E-07
(PID.TID 0001.0001) // =======================================================
(PID.TID 0001.0001) // Begin MONITOR dynamic field statistics
(PID.TID 0001.0001) // =======================================================
(PID.TID 0001.0001) %MON time_tsnumber                =                 72036
(PID.TID 0001.0001) %MON time_secondsf                =   6.2239104000000E+09
(PID.TID 0001.0001) %MON dynstat_eta_max              =   8.8281124032116E-01
(PID.TID 0001.0001) %MON dynstat_eta_min              =  -1.6003492148233E+00
(PID.TID 0001.0001) %MON dynstat_eta_mean             =   1.4564971607082E-14
(PID.TID 0001.0001) %MON dynstat_eta_sd               =   5.9660551635312E-01
(PID.TID 0001.0001) %MON dynstat_eta_del2             =   1.1335623998483E-02
(PID.TID 0001.0001) %MON dynstat_uvel_max             =   1.7730993499452E-01
(PID.TID 0001.0001) %MON dynstat_uvel_min             =  -2.6991570322051E-01
(PID.TID 0001.0001) %MON dynstat_uvel_mean            =  -4.7214615386833E-04
(PID.TID 0001.0001) %MON dynstat_uvel_sd              =   1.2013906850197E-02
(PID.TID 0001.0001) %MON dynstat_uvel_del2            =   1.5703095171687E-03
(PID.TID 0001.0001) %MON dynstat_vvel_max             =   1.8321872990463E-01
(PID.TID 0001.0001) %MON dynstat_vvel_min             =  -2.2252881964507E-01
(PID.TID 0001.0001) %MON dynstat_vvel_mean            =  -3.8855024725244E-04
(PID.TID 0001.0001) %MON dynstat_vvel_sd              =   1.2588690839632E-02
(PID.TID 0001.0001) %MON dynstat_vvel_del2            =   1.5857457213906E-03
(PID.TID 0001.0001) %MON dynstat_wvel_max             =   1.0666136990457E-04
(PID.TID 0001.0001) %MON dynstat_wvel_min             =  -1.9693243676044E-04
(PID.TID 0001.0001) %MON dynstat_wvel_mean            =   3.2243239546559E-12
(PID.TID 0001.0001) %MON dynstat_wvel_sd              =   3.7142542859916E-06
(PID.TID 0001.0001) %MON dynstat_wvel_del2            =   8.4037996080934E-07
(PID.TID 0001.0001) %MON dynstat_theta_max            =   3.1243926400006E+01
(PID.TID 0001.0001) %MON dynstat_theta_min            =  -3.6991385436214E+00
(PID.TID 0001.0001) %MON dynstat_theta_mean           =   3.9113178085181E+00
(PID.TID 0001.0001) %MON dynstat_theta_sd             =   4.5761292128601E+00
(PID.TID 0001.0001) %MON dynstat_theta_del2           =   8.8229249821459E-02
(PID.TID 0001.0001) %MON dynstat_salt_max             =   4.1407597933834E+01
(PID.TID 0001.0001) %MON dynstat_salt_min             =   1.8396822232049E+01
(PID.TID 0001.0001) %MON dynstat_salt_mean            =   3.4772092475910E+01
(PID.TID 0001.0001) %MON dynstat_salt_sd              =   5.3137055622907E-01
(PID.TID 0001.0001) %MON dynstat_salt_del2            =   1.8822828835068E-02
(PID.TID 0001.0001) %MON dynstat_sst_max              =   3.1243926400006E+01
(PID.TID 0001.0001) %MON dynstat_sst_min              =  -2.0170682789658E+00
(PID.TID 0001.0001) %MON dynstat_sst_mean             =   1.8287796108517E+01
(PID.TID 0001.0001) %MON dynstat_sst_sd               =   9.7725221172170E+00
(PID.TID 0001.0001) %MON dynstat_sst_del2             =   2.1092257272478E-01
(PID.TID 0001.0001) %MON dynstat_sss_max              =   4.1407597933834E+01
(PID.TID 0001.0001) %MON dynstat_sss_min              =   1.8396822232049E+01
(PID.TID 0001.0001) %MON dynstat_sss_mean             =   3.4621678676480E+01
(PID.TID 0001.0001) %MON dynstat_sss_sd               =   1.4601740353943E+00
(PID.TID 0001.0001) %MON dynstat_sss_del2             =   7.9930913977959E-02
(PID.TID 0001.0001) %MON extforcing_qnet_max          =   4.1618652098762E+02
(PID.TID 0001.0001) %MON extforcing_qnet_min          =  -1.9211243187389E+02
(PID.TID 0001.0001) %MON extforcing_qnet_mean         =  -1.3242538628394E+01
(PID.TID 0001.0001) %MON extforcing_qnet_sd           =   9.4281607220441E+01
(PID.TID 0001.0001) %MON extforcing_qnet_del2         =   4.9405010499661E+00
(PID.TID 0001.0001) %MON extforcing_qsw_max           =   0.0000000000000E+00
(PID.TID 0001.0001) %MON extforcing_qsw_min           =   0.0000000000000E+00
(PID.TID 0001.0001) %MON extforcing_qsw_mean          =   0.0000000000000E+00
(PID.TID 0001.0001) %MON extforcing_qsw_sd            =   0.0000000000000E+00
(PID.TID 0001.0001) %MON extforcing_qsw_del2          =   0.0000000000000E+00
(PID.TID 0001.0001) %MON extforcing_empmr_max         =   7.6494447208479E-08
(PID.TID 0001.0001) %MON extforcing_empmr_min         =  -1.5362614137596E-07
(PID.TID 0001.0001) %MON extforcing_empmr_mean        =  -2.0474999028391E-24
(PID.TID 0001.0001) %MON extforcing_empmr_sd          =   2.4051723601802E-08
(PID.TID 0001.0001) %MON extforcing_empmr_del2        =   1.2835223797615E-09
(PID.TID 0001.0001) %MON extforcing_fu_max            =   2.5308451543930E-01
(PID.TID 0001.0001) %MON extforcing_fu_min            =  -2.0964869579692E-01
(PID.TID 0001.0001) %MON extforcing_fu_mean           =  -4.5431053159245E-03
(PID.TID 0001.0001) %MON extforcing_fu_sd             =   6.4216999410935E-02
(PID.TID 0001.0001) %MON extforcing_fu_del2           =   2.8430910111984E-03
(PID.TID 0001.0001) %MON extforcing_fv_max            =   2.8273609266827E-01
(PID.TID 0001.0001) %MON extforcing_fv_min            =  -2.8035111742518E-01
(PID.TID 0001.0001) %MON extforcing_fv_mean           =  -1.3709448859574E-02
(PID.TID 0001.0001) %MON extforcing_fv_sd             =   7.4709384626947E-02
(PID.TID 0001.0001) %MON extforcing_fv_del2           =   3.1254607664189E-03
(PID.TID 0001.0001) %MON advcfl_uvel_max              =   7.6553213379697E-02
(PID.TID 0001.0001) %MON advcfl_vvel_max              =   7.9862463140719E-02
(PID.TID 0001.0001) %MON advcfl_wvel_max              =   6.4207405796612E-02
(PID.TID 0001.0001) %MON advcfl_W_hf_max              =   9.3514246731705E-02
(PID.TID 0001.0001) %MON pe_b_mean                    =   4.7417538131167E-04
(PID.TID 0001.0001) %MON ke_max                       =   3.5669636739285E-02
(PID.TID 0001.0001) %MON ke_mean                      =   1.4000189693481E-04
(PID.TID 0001.0001) %MON ke_vol                       =   1.3398024453628E+18
(PID.TID 0001.0001) %MON vort_r_min                   =  -1.3244559720760E-06
(PID.TID 0001.0001) %MON vort_r_max                   =   1.2104169243328E-06
(PID.TID 0001.0001) %MON vort_a_mean                  =  -2.0493733748264E-05
(PID.TID 0001.0001) %MON vort_a_sd                    =   7.5053945939800E-05
(PID.TID 0001.0001) %MON vort_p_mean                  =  -2.4715772464089E-05
(PID.TID 0001.0001) %MON vort_p_sd                    =   1.2777067062487E-04
(PID.TID 0001.0001) %MON surfExpan_theta_mean         =   4.8832279799152E-08
(PID.TID 0001.0001) %MON surfExpan_salt_mean          =   1.5278919322032E-08
(PID.TID 0001.0001) // =======================================================
(PID.TID 0001.0001) // End MONITOR dynamic field statistics
(PID.TID 0001.0001) // =======================================================
 DRIVER_GET_EXPORT_STATE_3D:MASK. This code is stubbed!
 DRIVER_SET_IMPORT_STATE_3D:SWHEAT. This code is stubbed!
 cg2d: Sum(rhs),rhsMax =  -9.37916411203332E-12  1.38965444344768E+00
(PID.TID 0001.0001)                    cg2d_init_res =    1.50476941982970E-01
(PID.TID 0001.0001)                       cg2d_iters =    61
(PID.TID 0001.0001)                         cg2d_res =    5.29017778130788E-07
(PID.TID 0001.0001) // =======================================================
(PID.TID 0001.0001) // Begin MONITOR dynamic field statistics
(PID.TID 0001.0001) // =======================================================
(PID.TID 0001.0001) %MON time_tsnumber                =                 72037
(PID.TID 0001.0001) %MON time_secondsf                =   6.2239968000000E+09
(PID.TID 0001.0001) %MON dynstat_eta_max              =   8.8217767589398E-01
(PID.TID 0001.0001) %MON dynstat_eta_min              =  -1.6000295078662E+00
(PID.TID 0001.0001) %MON dynstat_eta_mean             =   1.4647414842594E-14
(PID.TID 0001.0001) %MON dynstat_eta_sd               =   5.9656587004440E-01
(PID.TID 0001.0001) %MON dynstat_eta_del2             =   1.1340690650450E-02
(PID.TID 0001.0001) %MON dynstat_uvel_max             =   1.7672286490294E-01
(PID.TID 0001.0001) %MON dynstat_uvel_min             =  -2.6921551566621E-01
(PID.TID 0001.0001) %MON dynstat_uvel_mean            =  -4.7166960705096E-04
(PID.TID 0001.0001) %MON dynstat_uvel_sd              =   1.2013074585616E-02
(PID.TID 0001.0001) %MON dynstat_uvel_del2            =   1.5706666465928E-03
(PID.TID 0001.0001) %MON dynstat_vvel_max             =   1.8349403144066E-01
(PID.TID 0001.0001) %MON dynstat_vvel_min             =  -2.2260110902004E-01
(PID.TID 0001.0001) %MON dynstat_vvel_mean            =  -3.8792362695942E-04
(PID.TID 0001.0001) %MON dynstat_vvel_sd              =   1.2586554964504E-02
(PID.TID 0001.0001) %MON dynstat_vvel_del2            =   1.5858480700351E-03
(PID.TID 0001.0001) %MON dynstat_wvel_max             =   1.0621843094258E-04
(PID.TID 0001.0001) %MON dynstat_wvel_min             =  -1.9700726485553E-04
(PID.TID 0001.0001) %MON dynstat_wvel_mean            =   7.2892435860682E-12
(PID.TID 0001.0001) %MON dynstat_wvel_sd              =   3.7087601741652E-06
(PID.TID 0001.0001) %MON dynstat_wvel_del2            =   8.4024328019464E-07
(PID.TID 0001.0001) %MON dynstat_theta_max            =   3.1245224487680E+01
(PID.TID 0001.0001) %MON dynstat_theta_min            =  -3.7194463842784E+00
(PID.TID 0001.0001) %MON dynstat_theta_mean           =   3.9113827678960E+00
(PID.TID 0001.0001) %MON dynstat_theta_sd             =   4.5763937657383E+00
(PID.TID 0001.0001) %MON dynstat_theta_del2           =   8.8234566438056E-02
(PID.TID 0001.0001) %MON dynstat_salt_max             =   4.1408255170792E+01
(PID.TID 0001.0001) %MON dynstat_salt_min             =   1.8396830765767E+01
(PID.TID 0001.0001) %MON dynstat_salt_mean            =   3.4772093430220E+01
(PID.TID 0001.0001) %MON dynstat_salt_sd              =   5.3136501936648E-01
(PID.TID 0001.0001) %MON dynstat_salt_del2            =   1.8822220148365E-02
(PID.TID 0001.0001) %MON dynstat_sst_max              =   3.1245224487680E+01
(PID.TID 0001.0001) %MON dynstat_sst_min              =  -2.0145502723187E+00
(PID.TID 0001.0001) %MON dynstat_sst_mean             =   1.8293932358710E+01
(PID.TID 0001.0001) %MON dynstat_sst_sd               =   9.7748380549194E+00
(PID.TID 0001.0001) %MON dynstat_sst_del2             =   2.1092941701208E-01
(PID.TID 0001.0001) %MON dynstat_sss_max              =   4.1408255170792E+01
(PID.TID 0001.0001) %MON dynstat_sss_min              =   1.8396830765767E+01
(PID.TID 0001.0001) %MON dynstat_sss_mean             =   3.4621602389265E+01
(PID.TID 0001.0001) %MON dynstat_sss_sd               =   1.4599837967927E+00
(PID.TID 0001.0001) %MON dynstat_sss_del2             =   7.9917885036437E-02
(PID.TID 0001.0001) %MON extforcing_qnet_max          =   4.1439427935617E+02
(PID.TID 0001.0001) %MON extforcing_qnet_min          =  -1.9189180888139E+02
(PID.TID 0001.0001) %MON extforcing_qnet_mean         =  -1.3288203163750E+01
(PID.TID 0001.0001) %MON extforcing_qnet_sd           =   9.3462209298752E+01
(PID.TID 0001.0001) %MON extforcing_qnet_del2         =   4.9379814564347E+00
(PID.TID 0001.0001) %MON extforcing_qsw_max           =   0.0000000000000E+00
(PID.TID 0001.0001) %MON extforcing_qsw_min           =   0.0000000000000E+00
(PID.TID 0001.0001) %MON extforcing_qsw_mean          =   0.0000000000000E+00
(PID.TID 0001.0001) %MON extforcing_qsw_sd            =   0.0000000000000E+00
(PID.TID 0001.0001) %MON extforcing_qsw_del2          =   0.0000000000000E+00
(PID.TID 0001.0001) %MON extforcing_empmr_max         =   7.6494447208479E-08
(PID.TID 0001.0001) %MON extforcing_empmr_min         =  -1.5362614137596E-07
(PID.TID 0001.0001) %MON extforcing_empmr_mean        =  -2.4569998834069E-24
(PID.TID 0001.0001) %MON extforcing_empmr_sd          =   2.4051723601802E-08
(PID.TID 0001.0001) %MON extforcing_empmr_del2        =   1.2835223797615E-09
(PID.TID 0001.0001) %MON extforcing_fu_max            =   2.5492581522100E-01
(PID.TID 0001.0001) %MON extforcing_fu_min            =  -2.1261705789716E-01
(PID.TID 0001.0001) %MON extforcing_fu_mean           =  -4.5752143679237E-03
(PID.TID 0001.0001) %MON extforcing_fu_sd             =   6.4306269735718E-02
(PID.TID 0001.0001) %MON extforcing_fu_del2           =   2.8588379130730E-03
(PID.TID 0001.0001) %MON extforcing_fv_max            =   2.8292992662924E-01
(PID.TID 0001.0001) %MON extforcing_fv_min            =  -2.8318101952894E-01
(PID.TID 0001.0001) %MON extforcing_fv_mean           =  -1.3707601508274E-02
(PID.TID 0001.0001) %MON extforcing_fv_sd             =   7.4787306221245E-02
(PID.TID 0001.0001) %MON extforcing_fv_del2           =   3.1437777235908E-03
(PID.TID 0001.0001) %MON advcfl_uvel_max              =   7.6354626907658E-02
(PID.TID 0001.0001) %MON advcfl_vvel_max              =   7.9982463201765E-02
(PID.TID 0001.0001) %MON advcfl_wvel_max              =   6.4231802579314E-02
(PID.TID 0001.0001) %MON advcfl_W_hf_max              =   9.2081055107250E-02
(PID.TID 0001.0001) %MON pe_b_mean                    =   4.7411236252151E-04
(PID.TID 0001.0001) %MON ke_max                       =   3.5639702180217E-02
(PID.TID 0001.0001) %MON ke_mean                      =   1.3996733418361E-04
(PID.TID 0001.0001) %MON ke_vol                       =   1.3398024453628E+18
(PID.TID 0001.0001) %MON vort_r_min                   =  -1.3252956362483E-06
(PID.TID 0001.0001) %MON vort_r_max                   =   1.2060676025405E-06
(PID.TID 0001.0001) %MON vort_a_mean                  =  -2.0493733748264E-05
(PID.TID 0001.0001) %MON vort_a_sd                    =   7.5053946016384E-05
(PID.TID 0001.0001) %MON vort_p_mean                  =  -2.4715772421650E-05
(PID.TID 0001.0001) %MON vort_p_sd                    =   1.2777066399072E-04
(PID.TID 0001.0001) %MON surfExpan_theta_mean         =   4.8867382278628E-08
(PID.TID 0001.0001) %MON surfExpan_salt_mean          =   1.5236927262399E-08
(PID.TID 0001.0001) // =======================================================
(PID.TID 0001.0001) // End MONITOR dynamic field statistics
(PID.TID 0001.0001) // =======================================================
 DRIVER_GET_EXPORT_STATE_3D:MASK. This code is stubbed!
 DRIVER_SET_IMPORT_STATE_3D:SWHEAT. This code is stubbed!
 cg2d: Sum(rhs),rhsMax =  -9.57811607804615E-12  1.39086934766763E+00
(PID.TID 0001.0001)                    cg2d_init_res =    1.60180665038478E-01
(PID.TID 0001.0001)                       cg2d_iters =    61
(PID.TID 0001.0001)                         cg2d_res =    5.31794926907608E-07
(PID.TID 0001.0001) // =======================================================
(PID.TID 0001.0001) // Begin MONITOR dynamic field statistics
(PID.TID 0001.0001) // =======================================================
(PID.TID 0001.0001) %MON time_tsnumber                =                 72038
(PID.TID 0001.0001) %MON time_secondsf                =   6.2240832000000E+09
(PID.TID 0001.0001) %MON dynstat_eta_max              =   8.8154764318757E-01
(PID.TID 0001.0001) %MON dynstat_eta_min              =  -1.5997292128854E+00
(PID.TID 0001.0001) %MON dynstat_eta_mean             =   1.4702376999602E-14
(PID.TID 0001.0001) %MON dynstat_eta_sd               =   5.9652552752442E-01
(PID.TID 0001.0001) %MON dynstat_eta_del2             =   1.1346493025080E-02
(PID.TID 0001.0001) %MON dynstat_uvel_max             =   1.7615025263068E-01
(PID.TID 0001.0001) %MON dynstat_uvel_min             =  -2.6850991362842E-01
(PID.TID 0001.0001) %MON dynstat_uvel_mean            =  -4.7118275279685E-04
(PID.TID 0001.0001) %MON dynstat_uvel_sd              =   1.2012223191867E-02
(PID.TID 0001.0001) %MON dynstat_uvel_del2            =   1.5710300975198E-03
(PID.TID 0001.0001) %MON dynstat_vvel_max             =   1.8367023462208E-01
(PID.TID 0001.0001) %MON dynstat_vvel_min             =  -2.2266904472452E-01
(PID.TID 0001.0001) %MON dynstat_vvel_mean            =  -3.8728971371930E-04
(PID.TID 0001.0001) %MON dynstat_vvel_sd              =   1.2584688812661E-02
(PID.TID 0001.0001) %MON dynstat_vvel_del2            =   1.5860368849090E-03
(PID.TID 0001.0001) %MON dynstat_wvel_max             =   1.0578955434787E-04
(PID.TID 0001.0001) %MON dynstat_wvel_min             =  -1.9712081681727E-04
(PID.TID 0001.0001) %MON dynstat_wvel_mean            =   8.5774942637156E-12
(PID.TID 0001.0001) %MON dynstat_wvel_sd              =   3.7034148479442E-06
(PID.TID 0001.0001) %MON dynstat_wvel_del2            =   8.4006872602688E-07
(PID.TID 0001.0001) %MON dynstat_theta_max            =   3.1246105204437E+01
(PID.TID 0001.0001) %MON dynstat_theta_min            =  -3.7396212537913E+00
(PID.TID 0001.0001) %MON dynstat_theta_mean           =   3.9114477735790E+00
(PID.TID 0001.0001) %MON dynstat_theta_sd             =   4.5766627077942E+00
(PID.TID 0001.0001) %MON dynstat_theta_del2           =   8.8266772811988E-02
(PID.TID 0001.0001) %MON dynstat_salt_max             =   4.1408912784995E+01
(PID.TID 0001.0001) %MON dynstat_salt_min             =   1.8396864997551E+01
(PID.TID 0001.0001) %MON dynstat_salt_mean            =   3.4772094396861E+01
(PID.TID 0001.0001) %MON dynstat_salt_sd              =   5.3135926185336E-01
(PID.TID 0001.0001) %MON dynstat_salt_del2            =   1.8829206836970E-02
(PID.TID 0001.0001) %MON dynstat_sst_max              =   3.1246105204437E+01
(PID.TID 0001.0001) %MON dynstat_sst_min              =  -2.0123199743277E+00
(PID.TID 0001.0001) %MON dynstat_sst_mean             =   1.8300474457662E+01
(PID.TID 0001.0001) %MON dynstat_sst_sd               =   9.7767603767160E+00
(PID.TID 0001.0001) %MON dynstat_sst_del2             =   2.1110912627160E-01
(PID.TID 0001.0001) %MON dynstat_sss_max              =   4.1408912784995E+01
(PID.TID 0001.0001) %MON dynstat_sss_min              =   1.8396864997551E+01
(PID.TID 0001.0001) %MON dynstat_sss_mean             =   3.4621588234457E+01
(PID.TID 0001.0001) %MON dynstat_sss_sd               =   1.4597439384230E+00
(PID.TID 0001.0001) %MON dynstat_sss_del2             =   7.9939124787436E-02
(PID.TID 0001.0001) %MON extforcing_qnet_max          =   4.1260203772472E+02
(PID.TID 0001.0001) %MON extforcing_qnet_min          =  -1.9167118588889E+02
(PID.TID 0001.0001) %MON extforcing_qnet_mean         =  -1.3333867699105E+01
(PID.TID 0001.0001) %MON extforcing_qnet_sd           =   9.2657834667716E+01
(PID.TID 0001.0001) %MON extforcing_qnet_del2         =   4.9372579324831E+00
(PID.TID 0001.0001) %MON extforcing_qsw_max           =   0.0000000000000E+00
(PID.TID 0001.0001) %MON extforcing_qsw_min           =   0.0000000000000E+00
(PID.TID 0001.0001) %MON extforcing_qsw_mean          =   0.0000000000000E+00
(PID.TID 0001.0001) %MON extforcing_qsw_sd            =   0.0000000000000E+00
(PID.TID 0001.0001) %MON extforcing_qsw_del2          =   0.0000000000000E+00
(PID.TID 0001.0001) %MON extforcing_empmr_max         =   7.6494447208479E-08
(PID.TID 0001.0001) %MON extforcing_empmr_min         =  -1.5362614137596E-07
(PID.TID 0001.0001) %MON extforcing_empmr_mean        =  -2.0474999028391E-24
(PID.TID 0001.0001) %MON extforcing_empmr_sd          =   2.4051723601802E-08
(PID.TID 0001.0001) %MON extforcing_empmr_del2        =   1.2835223797615E-09
(PID.TID 0001.0001) %MON extforcing_fu_max            =   2.5676711500270E-01
(PID.TID 0001.0001) %MON extforcing_fu_min            =  -2.1558541999739E-01
(PID.TID 0001.0001) %MON extforcing_fu_mean           =  -4.6073250197639E-03
(PID.TID 0001.0001) %MON extforcing_fu_sd             =   6.4409937168838E-02
(PID.TID 0001.0001) %MON extforcing_fu_del2           =   2.8783542238932E-03
(PID.TID 0001.0001) %MON extforcing_fv_max            =   2.8327741463796E-01
(PID.TID 0001.0001) %MON extforcing_fv_min            =  -2.8601092163269E-01
(PID.TID 0001.0001) %MON extforcing_fv_mean           =  -1.3705753369652E-02
(PID.TID 0001.0001) %MON extforcing_fv_sd             =   7.4882668945855E-02
(PID.TID 0001.0001) %MON extforcing_fv_del2           =   3.1643430309226E-03
(PID.TID 0001.0001) %MON advcfl_uvel_max              =   7.6154504785397E-02
(PID.TID 0001.0001) %MON advcfl_vvel_max              =   8.0059267686157E-02
(PID.TID 0001.0001) %MON advcfl_wvel_max              =   6.4268824803819E-02
(PID.TID 0001.0001) %MON advcfl_W_hf_max              =   9.0606886217429E-02
(PID.TID 0001.0001) %MON pe_b_mean                    =   4.7404824138522E-04
(PID.TID 0001.0001) %MON ke_max                       =   3.5609115309015E-02
(PID.TID 0001.0001) %MON ke_mean                      =   1.3993570730378E-04
(PID.TID 0001.0001) %MON ke_vol                       =   1.3398024453628E+18
(PID.TID 0001.0001) %MON vort_r_min                   =  -1.3260554801621E-06
(PID.TID 0001.0001) %MON vort_r_max                   =   1.2016653229384E-06
(PID.TID 0001.0001) %MON vort_a_mean                  =  -2.0493733748264E-05
(PID.TID 0001.0001) %MON vort_a_sd                    =   7.5053946103957E-05
(PID.TID 0001.0001) %MON vort_p_mean                  =  -2.4715772380946E-05
(PID.TID 0001.0001) %MON vort_p_sd                    =   1.2777065697310E-04
(PID.TID 0001.0001) %MON surfExpan_theta_mean         =   4.8921165632650E-08
(PID.TID 0001.0001) %MON surfExpan_salt_mean          =   1.5189850624474E-08
(PID.TID 0001.0001) // =======================================================
(PID.TID 0001.0001) // End MONITOR dynamic field statistics
(PID.TID 0001.0001) // =======================================================
 DRIVER_GET_EXPORT_STATE_3D:MASK. This code is stubbed!
 DRIVER_SET_IMPORT_STATE_3D:SWHEAT. This code is stubbed!
 cg2d: Sum(rhs),rhsMax =  -9.52127265918534E-12  1.39201896687000E+00
(PID.TID 0001.0001)                    cg2d_init_res =    1.65888554363322E-01
(PID.TID 0001.0001)                       cg2d_iters =    61
(PID.TID 0001.0001)                         cg2d_res =    5.37705896409353E-07
(PID.TID 0001.0001) // =======================================================
(PID.TID 0001.0001) // Begin MONITOR dynamic field statistics
(PID.TID 0001.0001) // =======================================================
(PID.TID 0001.0001) %MON time_tsnumber                =                 72039
(PID.TID 0001.0001) %MON time_secondsf                =   6.2241696000000E+09
(PID.TID 0001.0001) %MON dynstat_eta_max              =   8.8091481336708E-01
(PID.TID 0001.0001) %MON dynstat_eta_min              =  -1.5994484732483E+00
(PID.TID 0001.0001) %MON dynstat_eta_mean             =   1.4482528371570E-14
(PID.TID 0001.0001) %MON dynstat_eta_sd               =   5.9648420752719E-01
(PID.TID 0001.0001) %MON dynstat_eta_del2             =   1.1352018987259E-02
(PID.TID 0001.0001) %MON dynstat_uvel_max             =   1.7559501671947E-01
(PID.TID 0001.0001) %MON dynstat_uvel_min             =  -2.6779950838423E-01
(PID.TID 0001.0001) %MON dynstat_uvel_mean            =  -4.7068869559894E-04
(PID.TID 0001.0001) %MON dynstat_uvel_sd              =   1.2011322349967E-02
(PID.TID 0001.0001) %MON dynstat_uvel_del2            =   1.5714134973632E-03
(PID.TID 0001.0001) %MON dynstat_vvel_max             =   1.8374719629740E-01
(PID.TID 0001.0001) %MON dynstat_vvel_min             =  -2.2273283621089E-01
(PID.TID 0001.0001) %MON dynstat_vvel_mean            =  -3.8665170613114E-04
(PID.TID 0001.0001) %MON dynstat_vvel_sd              =   1.2583101147585E-02
(PID.TID 0001.0001) %MON dynstat_vvel_del2            =   1.5863901988192E-03
(PID.TID 0001.0001) %MON dynstat_wvel_max             =   1.0538218079694E-04
(PID.TID 0001.0001) %MON dynstat_wvel_min             =  -1.9726992812664E-04
(PID.TID 0001.0001) %MON dynstat_wvel_mean            =   1.2287201633269E-11
(PID.TID 0001.0001) %MON dynstat_wvel_sd              =   3.6982280585429E-06
(PID.TID 0001.0001) %MON dynstat_wvel_del2            =   8.3985954345160E-07
(PID.TID 0001.0001) %MON dynstat_theta_max            =   3.1246577702092E+01
(PID.TID 0001.0001) %MON dynstat_theta_min            =  -3.7596594056940E+00
(PID.TID 0001.0001) %MON dynstat_theta_mean           =   3.9115127574942E+00
(PID.TID 0001.0001) %MON dynstat_theta_sd             =   4.5769427081493E+00
(PID.TID 0001.0001) %MON dynstat_theta_del2           =   8.8323489904154E-02
(PID.TID 0001.0001) %MON dynstat_salt_max             =   4.1409570381453E+01
(PID.TID 0001.0001) %MON dynstat_salt_min             =   1.8396936259296E+01
(PID.TID 0001.0001) %MON dynstat_salt_mean            =   3.4772095374621E+01
(PID.TID 0001.0001) %MON dynstat_salt_sd              =   5.3135439090162E-01
(PID.TID 0001.0001) %MON dynstat_salt_del2            =   1.8836408111741E-02
(PID.TID 0001.0001) %MON dynstat_sst_max              =   3.1246577702092E+01
(PID.TID 0001.0001) %MON dynstat_sst_min              =  -2.0101797019607E+00
(PID.TID 0001.0001) %MON dynstat_sst_mean             =   1.8306330024895E+01
(PID.TID 0001.0001) %MON dynstat_sst_sd               =   9.7798523114911E+00
(PID.TID 0001.0001) %MON dynstat_sst_del2             =   2.1141882558659E-01
(PID.TID 0001.0001) %MON dynstat_sss_max              =   4.1409570381453E+01
(PID.TID 0001.0001) %MON dynstat_sss_min              =   1.8396936259296E+01
(PID.TID 0001.0001) %MON dynstat_sss_mean             =   3.4621479418392E+01
(PID.TID 0001.0001) %MON dynstat_sss_sd               =   1.4595876240195E+00
(PID.TID 0001.0001) %MON dynstat_sss_del2             =   7.9978796721202E-02
(PID.TID 0001.0001) %MON extforcing_qnet_max          =   4.1080979609327E+02
(PID.TID 0001.0001) %MON extforcing_qnet_min          =  -1.9145056289639E+02
(PID.TID 0001.0001) %MON extforcing_qnet_mean         =  -1.3379532234460E+01
(PID.TID 0001.0001) %MON extforcing_qnet_sd           =   9.1868877945622E+01
(PID.TID 0001.0001) %MON extforcing_qnet_del2         =   4.9381934838399E+00
(PID.TID 0001.0001) %MON extforcing_qsw_max           =   0.0000000000000E+00
(PID.TID 0001.0001) %MON extforcing_qsw_min           =   0.0000000000000E+00
(PID.TID 0001.0001) %MON extforcing_qsw_mean          =   0.0000000000000E+00
(PID.TID 0001.0001) %MON extforcing_qsw_sd            =   0.0000000000000E+00
(PID.TID 0001.0001) %MON extforcing_qsw_del2          =   0.0000000000000E+00
(PID.TID 0001.0001) %MON extforcing_empmr_max         =   7.6494447208479E-08
(PID.TID 0001.0001) %MON extforcing_empmr_min         =  -1.5362614137596E-07
(PID.TID 0001.0001) %MON extforcing_empmr_mean        =  -2.0474999028391E-24
(PID.TID 0001.0001) %MON extforcing_empmr_sd          =   2.4051723601802E-08
(PID.TID 0001.0001) %MON extforcing_empmr_del2        =   1.2835223797615E-09
(PID.TID 0001.0001) %MON extforcing_fu_max            =   2.5860841478440E-01
(PID.TID 0001.0001) %MON extforcing_fu_min            =  -2.1855378209763E-01
(PID.TID 0001.0001) %MON extforcing_fu_mean           =  -4.6394372854156E-03
(PID.TID 0001.0001) %MON extforcing_fu_sd             =   6.4527932291764E-02
(PID.TID 0001.0001) %MON extforcing_fu_del2           =   2.9013095173427E-03
(PID.TID 0001.0001) %MON extforcing_fv_max            =   2.8371085489199E-01
(PID.TID 0001.0001) %MON extforcing_fv_min            =  -2.8884082373645E-01
(PID.TID 0001.0001) %MON extforcing_fv_mean           =  -1.3703904655112E-02
(PID.TID 0001.0001) %MON extforcing_fv_sd             =   7.4995406216565E-02
(PID.TID 0001.0001) %MON extforcing_fv_del2           =   3.1866147406635E-03
(PID.TID 0001.0001) %MON advcfl_uvel_max              =   7.5953020382692E-02
(PID.TID 0001.0001) %MON advcfl_vvel_max              =   8.0092814196178E-02
(PID.TID 0001.0001) %MON advcfl_wvel_max              =   6.4317440717515E-02
(PID.TID 0001.0001) %MON advcfl_W_hf_max              =   8.9091636948667E-02
(PID.TID 0001.0001) %MON pe_b_mean                    =   4.7398257112394E-04
(PID.TID 0001.0001) %MON ke_max                       =   3.5577895027241E-02
(PID.TID 0001.0001) %MON ke_mean                      =   1.3990678521104E-04
(PID.TID 0001.0001) %MON ke_vol                       =   1.3398024453628E+18
(PID.TID 0001.0001) %MON vort_r_min                   =  -1.3267572727296E-06
(PID.TID 0001.0001) %MON vort_r_max                   =   1.1972398355436E-06
(PID.TID 0001.0001) %MON vort_a_mean                  =  -2.0493733748264E-05
(PID.TID 0001.0001) %MON vort_a_sd                    =   7.5053946202430E-05
(PID.TID 0001.0001) %MON vort_p_mean                  =  -2.4715772342278E-05
(PID.TID 0001.0001) %MON vort_p_sd                    =   1.2777064960454E-04
(PID.TID 0001.0001) %MON surfExpan_theta_mean         =   4.9027917278364E-08
(PID.TID 0001.0001) %MON surfExpan_salt_mean          =   1.5139415567901E-08
(PID.TID 0001.0001) // =======================================================
(PID.TID 0001.0001) // End MONITOR dynamic field statistics
(PID.TID 0001.0001) // =======================================================
 DRIVER_GET_EXPORT_STATE_3D:MASK. This code is stubbed!
 DRIVER_SET_IMPORT_STATE_3D:SWHEAT. This code is stubbed!
 cg2d: Sum(rhs),rhsMax =  -9.91917659121100E-12  1.39318918145392E+00
(PID.TID 0001.0001)                    cg2d_init_res =    1.43165028104649E-01
(PID.TID 0001.0001)                       cg2d_iters =    61
(PID.TID 0001.0001)                         cg2d_res =    5.03502274074908E-07
(PID.TID 0001.0001) // =======================================================
(PID.TID 0001.0001) // Begin MONITOR dynamic field statistics
(PID.TID 0001.0001) // =======================================================
(PID.TID 0001.0001) %MON time_tsnumber                =                 72040
(PID.TID 0001.0001) %MON time_secondsf                =   6.2242560000000E+09
(PID.TID 0001.0001) %MON dynstat_eta_max              =   8.8026217609663E-01
(PID.TID 0001.0001) %MON dynstat_eta_min              =  -1.5991875321396E+00
(PID.TID 0001.0001) %MON dynstat_eta_mean             =   1.4510009450074E-14
(PID.TID 0001.0001) %MON dynstat_eta_sd               =   5.9644053774075E-01
(PID.TID 0001.0001) %MON dynstat_eta_del2             =   1.1356620309608E-02
(PID.TID 0001.0001) %MON dynstat_uvel_max             =   1.7505961733226E-01
(PID.TID 0001.0001) %MON dynstat_uvel_min             =  -2.6708491601648E-01
(PID.TID 0001.0001) %MON dynstat_uvel_mean            =  -4.7019743713000E-04
(PID.TID 0001.0001) %MON dynstat_uvel_sd              =   1.2010339800998E-02
(PID.TID 0001.0001) %MON dynstat_uvel_del2            =   1.5717889878937E-03
(PID.TID 0001.0001) %MON dynstat_vvel_max             =   1.8372562379167E-01
(PID.TID 0001.0001) %MON dynstat_vvel_min             =  -2.2279267725827E-01
(PID.TID 0001.0001) %MON dynstat_vvel_mean            =  -3.8601657830005E-04
(PID.TID 0001.0001) %MON dynstat_vvel_sd              =   1.2581800403894E-02
(PID.TID 0001.0001) %MON dynstat_vvel_del2            =   1.5867768348887E-03
(PID.TID 0001.0001) %MON dynstat_wvel_max             =   1.0500326281022E-04
(PID.TID 0001.0001) %MON dynstat_wvel_min             =  -1.9745090015496E-04
(PID.TID 0001.0001) %MON dynstat_wvel_mean            =   2.3547075763477E-11
(PID.TID 0001.0001) %MON dynstat_wvel_sd              =   3.6932308384333E-06
(PID.TID 0001.0001) %MON dynstat_wvel_del2            =   8.3968754716890E-07
(PID.TID 0001.0001) %MON dynstat_theta_max            =   3.1246649807631E+01
(PID.TID 0001.0001) %MON dynstat_theta_min            =  -3.7794995754208E+00
(PID.TID 0001.0001) %MON dynstat_theta_mean           =   3.9115778502111E+00
(PID.TID 0001.0001) %MON dynstat_theta_sd             =   4.5772273492992E+00
(PID.TID 0001.0001) %MON dynstat_theta_del2           =   8.8373226414919E-02
(PID.TID 0001.0001) %MON dynstat_salt_max             =   4.1410227572228E+01
(PID.TID 0001.0001) %MON dynstat_salt_min             =   1.8397063194256E+01
(PID.TID 0001.0001) %MON dynstat_salt_mean            =   3.4772096365271E+01
(PID.TID 0001.0001) %MON dynstat_salt_sd              =   5.3134931270774E-01
(PID.TID 0001.0001) %MON dynstat_salt_del2            =   1.8841841750586E-02
(PID.TID 0001.0001) %MON dynstat_sst_max              =   3.1246649807631E+01
(PID.TID 0001.0001) %MON dynstat_sst_min              =  -2.0081549903228E+00
(PID.TID 0001.0001) %MON dynstat_sst_mean             =   1.8312222098668E+01
(PID.TID 0001.0001) %MON dynstat_sst_sd               =   9.7830425147022E+00
(PID.TID 0001.0001) %MON dynstat_sst_del2             =   2.1163564476232E-01
(PID.TID 0001.0001) %MON dynstat_sss_max              =   4.1410227572228E+01
(PID.TID 0001.0001) %MON dynstat_sss_min              =   1.8397063194256E+01
(PID.TID 0001.0001) %MON dynstat_sss_mean             =   3.4621383818096E+01
(PID.TID 0001.0001) %MON dynstat_sss_sd               =   1.4594319790587E+00
(PID.TID 0001.0001) %MON dynstat_sss_del2             =   8.0012599046616E-02
(PID.TID 0001.0001) %MON extforcing_qnet_max          =   4.0901755446182E+02
(PID.TID 0001.0001) %MON extforcing_qnet_min          =  -1.9122993990389E+02
(PID.TID 0001.0001) %MON extforcing_qnet_mean         =  -1.3425196769815E+01
(PID.TID 0001.0001) %MON extforcing_qnet_sd           =   9.1095739724956E+01
(PID.TID 0001.0001) %MON extforcing_qnet_del2         =   4.9409163455189E+00
(PID.TID 0001.0001) %MON extforcing_qsw_max           =   0.0000000000000E+00
(PID.TID 0001.0001) %MON extforcing_qsw_min           =   0.0000000000000E+00
(PID.TID 0001.0001) %MON extforcing_qsw_mean          =   0.0000000000000E+00
(PID.TID 0001.0001) %MON extforcing_qsw_sd            =   0.0000000000000E+00
(PID.TID 0001.0001) %MON extforcing_qsw_del2          =   0.0000000000000E+00
(PID.TID 0001.0001) %MON extforcing_empmr_max         =   7.6494447208479E-08
(PID.TID 0001.0001) %MON extforcing_empmr_min         =  -1.5362614137596E-07
(PID.TID 0001.0001) %MON extforcing_empmr_mean        =  -2.0474999028391E-24
(PID.TID 0001.0001) %MON extforcing_empmr_sd          =   2.4051723601802E-08
(PID.TID 0001.0001) %MON extforcing_empmr_del2        =   1.2835223797615E-09
(PID.TID 0001.0001) %MON extforcing_fu_max            =   2.6044971456610E-01
(PID.TID 0001.0001) %MON extforcing_fu_min            =  -2.2152214419787E-01
(PID.TID 0001.0001) %MON extforcing_fu_mean           =  -4.6715511250215E-03
(PID.TID 0001.0001) %MON extforcing_fu_sd             =   6.4660176707906E-02
(PID.TID 0001.0001) %MON extforcing_fu_del2           =   2.9276826446996E-03
(PID.TID 0001.0001) %MON extforcing_fv_max            =   2.8414429514601E-01
(PID.TID 0001.0001) %MON extforcing_fv_min            =  -2.9167072584021E-01
(PID.TID 0001.0001) %MON extforcing_fv_mean           =  -1.3702055492067E-02
(PID.TID 0001.0001) %MON extforcing_fv_sd             =   7.5125439727292E-02
(PID.TID 0001.0001) %MON extforcing_fv_del2           =   3.2110132703466E-03
(PID.TID 0001.0001) %MON advcfl_uvel_max              =   7.5750348432319E-02
(PID.TID 0001.0001) %MON advcfl_vvel_max              =   8.0083411044847E-02
(PID.TID 0001.0001) %MON advcfl_wvel_max              =   6.4376444427880E-02
(PID.TID 0001.0001) %MON advcfl_W_hf_max              =   8.7538451090691E-02
(PID.TID 0001.0001) %MON pe_b_mean                    =   4.7391317126490E-04
(PID.TID 0001.0001) %MON ke_max                       =   3.5546055478529E-02
(PID.TID 0001.0001) %MON ke_mean                      =   1.3988031617332E-04
(PID.TID 0001.0001) %MON ke_vol                       =   1.3398024453628E+18
(PID.TID 0001.0001) %MON vort_r_min                   =  -1.3274228028087E-06
(PID.TID 0001.0001) %MON vort_r_max                   =   1.1928335487886E-06
(PID.TID 0001.0001) %MON vort_a_mean                  =  -2.0493733748264E-05
(PID.TID 0001.0001) %MON vort_a_sd                    =   7.5053946310578E-05
(PID.TID 0001.0001) %MON vort_p_mean                  =  -2.4715772305465E-05
(PID.TID 0001.0001) %MON vort_p_sd                    =   1.2777064192979E-04
(PID.TID 0001.0001) %MON surfExpan_theta_mean         =   4.9192056653250E-08
(PID.TID 0001.0001) %MON surfExpan_salt_mean          =   1.5084895147699E-08
(PID.TID 0001.0001) // =======================================================
(PID.TID 0001.0001) // End MONITOR dynamic field statistics
(PID.TID 0001.0001) // =======================================================
(PID.TID 0001.0001) %CHECKPOINT     72040 0000072040
 DRIVER_GET_EXPORT_STATE_3D:MASK. This code is stubbed!
 DRIVER_SET_IMPORT_STATE_3D:SWHEAT. This code is stubbed!
 cg2d: Sum(rhs),rhsMax =  -1.00044417195022E-11  1.39425287019304E+00
(PID.TID 0001.0001)                    cg2d_init_res =    1.44985408943095E-01
(PID.TID 0001.0001)                       cg2d_iters =    61
(PID.TID 0001.0001)                         cg2d_res =    4.99584298265701E-07
(PID.TID 0001.0001) // =======================================================
(PID.TID 0001.0001) // Begin MONITOR dynamic field statistics
(PID.TID 0001.0001) // =======================================================
(PID.TID 0001.0001) %MON time_tsnumber                =                 72041
(PID.TID 0001.0001) %MON time_secondsf                =   6.2243424000000E+09
(PID.TID 0001.0001) %MON dynstat_eta_max              =   8.7959804006338E-01
(PID.TID 0001.0001) %MON dynstat_eta_min              =  -1.5989467030866E+00
(PID.TID 0001.0001) %MON dynstat_eta_mean             =   1.4235198665035E-14
(PID.TID 0001.0001) %MON dynstat_eta_sd               =   5.9639495935338E-01
(PID.TID 0001.0001) %MON dynstat_eta_del2             =   1.1360748848304E-02
(PID.TID 0001.0001) %MON dynstat_uvel_max             =   1.7454604772483E-01
(PID.TID 0001.0001) %MON dynstat_uvel_min             =  -2.6636675158408E-01
(PID.TID 0001.0001) %MON dynstat_uvel_mean            =  -4.6970552146400E-04
(PID.TID 0001.0001) %MON dynstat_uvel_sd              =   1.2009235456602E-02
(PID.TID 0001.0001) %MON dynstat_uvel_del2            =   1.5721897313029E-03
(PID.TID 0001.0001) %MON dynstat_vvel_max             =   1.8360629906553E-01
(PID.TID 0001.0001) %MON dynstat_vvel_min             =  -2.2284873963618E-01
(PID.TID 0001.0001) %MON dynstat_vvel_mean            =  -3.8538116350875E-04
(PID.TID 0001.0001) %MON dynstat_vvel_sd              =   1.2580791555243E-02
(PID.TID 0001.0001) %MON dynstat_vvel_del2            =   1.5871254626596E-03
(PID.TID 0001.0001) %MON dynstat_wvel_max             =   1.0465926144273E-04
(PID.TID 0001.0001) %MON dynstat_wvel_min             =  -1.9765973489012E-04
(PID.TID 0001.0001) %MON dynstat_wvel_mean            =   2.9243999618586E-11
(PID.TID 0001.0001) %MON dynstat_wvel_sd              =   3.6884187904188E-06
(PID.TID 0001.0001) %MON dynstat_wvel_del2            =   8.3953700530691E-07
(PID.TID 0001.0001) %MON dynstat_theta_max            =   3.1246328064131E+01
(PID.TID 0001.0001) %MON dynstat_theta_min            =  -3.7991455810594E+00
(PID.TID 0001.0001) %MON dynstat_theta_mean           =   3.9116430469099E+00
(PID.TID 0001.0001) %MON dynstat_theta_sd             =   4.5775159423697E+00
(PID.TID 0001.0001) %MON dynstat_theta_del2           =   8.8414351272268E-02
(PID.TID 0001.0001) %MON dynstat_salt_max             =   4.1410883965970E+01
(PID.TID 0001.0001) %MON dynstat_salt_min             =   1.8397278834909E+01
(PID.TID 0001.0001) %MON dynstat_salt_mean            =   3.4772097368171E+01
(PID.TID 0001.0001) %MON dynstat_salt_sd              =   5.3134368305978E-01
(PID.TID 0001.0001) %MON dynstat_salt_del2            =   1.8842159736486E-02
(PID.TID 0001.0001) %MON dynstat_sst_max              =   3.1246328064131E+01
(PID.TID 0001.0001) %MON dynstat_sst_min              =  -2.0062154767979E+00
(PID.TID 0001.0001) %MON dynstat_sst_mean             =   1.8318279855352E+01
(PID.TID 0001.0001) %MON dynstat_sst_sd               =   9.7862610823942E+00
(PID.TID 0001.0001) %MON dynstat_sst_del2             =   2.1185597704277E-01
(PID.TID 0001.0001) %MON dynstat_sss_max              =   4.1410883965970E+01
(PID.TID 0001.0001) %MON dynstat_sss_min              =   1.8397278834909E+01
(PID.TID 0001.0001) %MON dynstat_sss_mean             =   3.4621335632583E+01
(PID.TID 0001.0001) %MON dynstat_sss_sd               =   1.4592210291392E+00
(PID.TID 0001.0001) %MON dynstat_sss_del2             =   8.0022942161276E-02
(PID.TID 0001.0001) %MON extforcing_qnet_max          =   4.0722531283037E+02
(PID.TID 0001.0001) %MON extforcing_qnet_min          =  -1.9100931691139E+02
(PID.TID 0001.0001) %MON extforcing_qnet_mean         =  -1.3470861305171E+01
(PID.TID 0001.0001) %MON extforcing_qnet_sd           =   9.0338826140582E+01
(PID.TID 0001.0001) %MON extforcing_qnet_del2         =   4.9463272710223E+00
(PID.TID 0001.0001) %MON extforcing_qsw_max           =   0.0000000000000E+00
(PID.TID 0001.0001) %MON extforcing_qsw_min           =   0.0000000000000E+00
(PID.TID 0001.0001) %MON extforcing_qsw_mean          =   0.0000000000000E+00
(PID.TID 0001.0001) %MON extforcing_qsw_sd            =   0.0000000000000E+00
(PID.TID 0001.0001) %MON extforcing_qsw_del2          =   0.0000000000000E+00
(PID.TID 0001.0001) %MON extforcing_empmr_max         =   7.6494447208479E-08
(PID.TID 0001.0001) %MON extforcing_empmr_min         =  -1.5362614137596E-07
(PID.TID 0001.0001) %MON extforcing_empmr_mean        =  -2.0474999028391E-24
(PID.TID 0001.0001) %MON extforcing_empmr_sd          =   2.4051723601802E-08
(PID.TID 0001.0001) %MON extforcing_empmr_del2        =   1.2835223797615E-09
(PID.TID 0001.0001) %MON extforcing_fu_max            =   2.6229101434780E-01
(PID.TID 0001.0001) %MON extforcing_fu_min            =  -2.2449050629811E-01
(PID.TID 0001.0001) %MON extforcing_fu_mean           =  -4.7036663941267E-03
(PID.TID 0001.0001) %MON extforcing_fu_sd             =   6.4806583308306E-02
(PID.TID 0001.0001) %MON extforcing_fu_del2           =   2.9567154461624E-03
(PID.TID 0001.0001) %MON extforcing_fv_max            =   2.8457773540003E-01
(PID.TID 0001.0001) %MON extforcing_fv_min            =  -2.9450062794396E-01
(PID.TID 0001.0001) %MON extforcing_fv_mean           =  -1.3700205975993E-02
(PID.TID 0001.0001) %MON extforcing_fv_sd             =   7.5272679744204E-02
(PID.TID 0001.0001) %MON extforcing_fv_del2           =   3.2375942795778E-03
(PID.TID 0001.0001) %MON advcfl_uvel_max              =   7.5546663376654E-02
(PID.TID 0001.0001) %MON advcfl_vvel_max              =   8.0031399077798E-02
(PID.TID 0001.0001) %MON advcfl_wvel_max              =   6.4444532432101E-02
(PID.TID 0001.0001) %MON advcfl_W_hf_max              =   8.5945133491559E-02
(PID.TID 0001.0001) %MON pe_b_mean                    =   4.7384074368356E-04
(PID.TID 0001.0001) %MON ke_max                       =   3.5513605672729E-02
(PID.TID 0001.0001) %MON ke_mean                      =   1.3985591254099E-04
(PID.TID 0001.0001) %MON ke_vol                       =   1.3398024453628E+18
(PID.TID 0001.0001) %MON vort_r_min                   =  -1.3280736918303E-06
(PID.TID 0001.0001) %MON vort_r_max                   =   1.1884681838396E-06
(PID.TID 0001.0001) %MON vort_a_mean                  =  -2.0493733748264E-05
(PID.TID 0001.0001) %MON vort_a_sd                    =   7.5053946429645E-05
(PID.TID 0001.0001) %MON vort_p_mean                  =  -2.4715772270572E-05
(PID.TID 0001.0001) %MON vort_p_sd                    =   1.2777063400474E-04
(PID.TID 0001.0001) %MON surfExpan_theta_mean         =   4.9359559384600E-08
(PID.TID 0001.0001) %MON surfExpan_salt_mean          =   1.5036961765301E-08
(PID.TID 0001.0001) // =======================================================
(PID.TID 0001.0001) // End MONITOR dynamic field statistics
(PID.TID 0001.0001) // =======================================================
 DRIVER_GET_EXPORT_STATE_3D:MASK. This code is stubbed!
 DRIVER_SET_IMPORT_STATE_3D:SWHEAT. This code is stubbed!
 cg2d: Sum(rhs),rhsMax =  -9.89075488178059E-12  1.39534073326666E+00
(PID.TID 0001.0001)                    cg2d_init_res =    1.52184206950581E-01
(PID.TID 0001.0001)                       cg2d_iters =    61
(PID.TID 0001.0001)                         cg2d_res =    5.02508442262239E-07
(PID.TID 0001.0001) // =======================================================
(PID.TID 0001.0001) // Begin MONITOR dynamic field statistics
(PID.TID 0001.0001) // =======================================================
(PID.TID 0001.0001) %MON time_tsnumber                =                 72042
(PID.TID 0001.0001) %MON time_secondsf                =   6.2244288000000E+09
(PID.TID 0001.0001) %MON dynstat_eta_max              =   8.7892645099134E-01
(PID.TID 0001.0001) %MON dynstat_eta_min              =  -1.5987265893256E+00
(PID.TID 0001.0001) %MON dynstat_eta_mean             =   1.4125274351019E-14
(PID.TID 0001.0001) %MON dynstat_eta_sd               =   5.9634812013240E-01
(PID.TID 0001.0001) %MON dynstat_eta_del2             =   1.1364994266966E-02
(PID.TID 0001.0001) %MON dynstat_uvel_max             =   1.7405583377255E-01
(PID.TID 0001.0001) %MON dynstat_uvel_min             =  -2.6564562627392E-01
(PID.TID 0001.0001) %MON dynstat_uvel_mean            =  -4.6921114472394E-04
(PID.TID 0001.0001) %MON dynstat_uvel_sd              =   1.2007966412726E-02
(PID.TID 0001.0001) %MON dynstat_uvel_del2            =   1.5726111412016E-03
(PID.TID 0001.0001) %MON dynstat_vvel_max             =   1.8339072854159E-01
(PID.TID 0001.0001) %MON dynstat_vvel_min             =  -2.2290117552542E-01
(PID.TID 0001.0001) %MON dynstat_vvel_mean            =  -3.8474663009742E-04
(PID.TID 0001.0001) %MON dynstat_vvel_sd              =   1.2580076082608E-02
(PID.TID 0001.0001) %MON dynstat_vvel_del2            =   1.5875038293047E-03
(PID.TID 0001.0001) %MON dynstat_wvel_max             =   1.0435597587457E-04
(PID.TID 0001.0001) %MON dynstat_wvel_min             =  -1.9789221663138E-04
(PID.TID 0001.0001) %MON dynstat_wvel_mean            =   3.3663586276857E-11
(PID.TID 0001.0001) %MON dynstat_wvel_sd              =   3.6837764737793E-06
(PID.TID 0001.0001) %MON dynstat_wvel_del2            =   8.3930369800946E-07
(PID.TID 0001.0001) %MON dynstat_theta_max            =   3.1245617804880E+01
(PID.TID 0001.0001) %MON dynstat_theta_min            =  -3.8185268850673E+00
(PID.TID 0001.0001) %MON dynstat_theta_mean           =   3.9117083094262E+00
(PID.TID 0001.0001) %MON dynstat_theta_sd             =   4.5778106619740E+00
(PID.TID 0001.0001) %MON dynstat_theta_del2           =   8.8467844895760E-02
(PID.TID 0001.0001) %MON dynstat_salt_max             =   4.1411539164323E+01
(PID.TID 0001.0001) %MON dynstat_salt_min             =   1.8397647778034E+01
(PID.TID 0001.0001) %MON dynstat_salt_mean            =   3.4772098382336E+01
(PID.TID 0001.0001) %MON dynstat_salt_sd              =   5.3133882667563E-01
(PID.TID 0001.0001) %MON dynstat_salt_del2            =   1.8848406082624E-02
(PID.TID 0001.0001) %MON dynstat_sst_max              =   3.1245617804880E+01
(PID.TID 0001.0001) %MON dynstat_sst_min              =  -2.0043851945079E+00
(PID.TID 0001.0001) %MON dynstat_sst_mean             =   1.8324365836365E+01
(PID.TID 0001.0001) %MON dynstat_sst_sd               =   9.7896394523414E+00
(PID.TID 0001.0001) %MON dynstat_sst_del2             =   2.1226896183327E-01
(PID.TID 0001.0001) %MON dynstat_sss_max              =   4.1411539164323E+01
(PID.TID 0001.0001) %MON dynstat_sss_min              =   1.8397647778034E+01
(PID.TID 0001.0001) %MON dynstat_sss_mean             =   3.4621298946333E+01
(PID.TID 0001.0001) %MON dynstat_sss_sd               =   1.4590060474396E+00
(PID.TID 0001.0001) %MON dynstat_sss_del2             =   8.0111021300299E-02
(PID.TID 0001.0001) %MON extforcing_qnet_max          =   4.0543307119892E+02
(PID.TID 0001.0001) %MON extforcing_qnet_min          =  -1.9078869391889E+02
(PID.TID 0001.0001) %MON extforcing_qnet_mean         =  -1.3516525840526E+01
(PID.TID 0001.0001) %MON extforcing_qnet_sd           =   8.9598548382500E+01
(PID.TID 0001.0001) %MON extforcing_qnet_del2         =   4.9535833674856E+00
(PID.TID 0001.0001) %MON extforcing_qsw_max           =   0.0000000000000E+00
(PID.TID 0001.0001) %MON extforcing_qsw_min           =   0.0000000000000E+00
(PID.TID 0001.0001) %MON extforcing_qsw_mean          =   0.0000000000000E+00
(PID.TID 0001.0001) %MON extforcing_qsw_sd            =   0.0000000000000E+00
(PID.TID 0001.0001) %MON extforcing_qsw_del2          =   0.0000000000000E+00
(PID.TID 0001.0001) %MON extforcing_empmr_max         =   7.6494447208479E-08
(PID.TID 0001.0001) %MON extforcing_empmr_min         =  -1.5362614137596E-07
(PID.TID 0001.0001) %MON extforcing_empmr_mean        =  -2.0474999028391E-24
(PID.TID 0001.0001) %MON extforcing_empmr_sd          =   2.4051723601802E-08
(PID.TID 0001.0001) %MON extforcing_empmr_del2        =   1.2835223797615E-09
(PID.TID 0001.0001) %MON extforcing_fu_max            =   2.6413231412950E-01
(PID.TID 0001.0001) %MON extforcing_fu_min            =  -2.2745886839835E-01
(PID.TID 0001.0001) %MON extforcing_fu_mean           =  -4.7357829936184E-03
(PID.TID 0001.0001) %MON extforcing_fu_sd             =   6.4967056365551E-02
(PID.TID 0001.0001) %MON extforcing_fu_del2           =   2.9893059289909E-03
(PID.TID 0001.0001) %MON extforcing_fv_max            =   2.8501117565406E-01
(PID.TID 0001.0001) %MON extforcing_fv_min            =  -2.9733053004772E-01
(PID.TID 0001.0001) %MON extforcing_fv_mean           =  -1.3698356284231E-02
(PID.TID 0001.0001) %MON extforcing_fv_sd             =   7.5437025462618E-02
(PID.TID 0001.0001) %MON extforcing_fv_del2           =   3.2661304023746E-03
(PID.TID 0001.0001) %MON advcfl_uvel_max              =   7.5342138559891E-02
(PID.TID 0001.0001) %MON advcfl_vvel_max              =   7.9937434923416E-02
(PID.TID 0001.0001) %MON advcfl_wvel_max              =   6.4520330252648E-02
(PID.TID 0001.0001) %MON advcfl_W_hf_max              =   8.4314940059690E-02
(PID.TID 0001.0001) %MON pe_b_mean                    =   4.7376631830683E-04
(PID.TID 0001.0001) %MON ke_max                       =   3.5480549497307E-02
(PID.TID 0001.0001) %MON ke_mean                      =   1.3983311751963E-04
(PID.TID 0001.0001) %MON ke_vol                       =   1.3398024453628E+18
(PID.TID 0001.0001) %MON vort_r_min                   =  -1.3287312111248E-06
(PID.TID 0001.0001) %MON vort_r_max                   =   1.1841833389145E-06
(PID.TID 0001.0001) %MON vort_a_mean                  =  -2.0493733748264E-05
(PID.TID 0001.0001) %MON vort_a_sd                    =   7.5053946559974E-05
(PID.TID 0001.0001) %MON vort_p_mean                  =  -2.4715772238183E-05
(PID.TID 0001.0001) %MON vort_p_sd                    =   1.2777062586038E-04
(PID.TID 0001.0001) %MON surfExpan_theta_mean         =   4.9561193713783E-08
(PID.TID 0001.0001) %MON surfExpan_salt_mean          =   1.4998092961522E-08
(PID.TID 0001.0001) // =======================================================
(PID.TID 0001.0001) // End MONITOR dynamic field statistics
(PID.TID 0001.0001) // =======================================================
 DRIVER_GET_EXPORT_STATE_3D:MASK. This code is stubbed!
 DRIVER_SET_IMPORT_STATE_3D:SWHEAT. This code is stubbed!
 cg2d: Sum(rhs),rhsMax =  -9.77706804405898E-12  1.39627126519665E+00
(PID.TID 0001.0001)                    cg2d_init_res =    1.43943320823152E-01
(PID.TID 0001.0001)                       cg2d_iters =    61
(PID.TID 0001.0001)                         cg2d_res =    4.93373784296689E-07
(PID.TID 0001.0001) // =======================================================
(PID.TID 0001.0001) // Begin MONITOR dynamic field statistics
(PID.TID 0001.0001) // =======================================================
(PID.TID 0001.0001) %MON time_tsnumber                =                 72043
(PID.TID 0001.0001) %MON time_secondsf                =   6.2245152000000E+09
(PID.TID 0001.0001) %MON dynstat_eta_max              =   8.7824784701529E-01
(PID.TID 0001.0001) %MON dynstat_eta_min              =  -1.5985279525243E+00
(PID.TID 0001.0001) %MON dynstat_eta_mean             =   1.4290160822043E-14
(PID.TID 0001.0001) %MON dynstat_eta_sd               =   5.9630065375717E-01
(PID.TID 0001.0001) %MON dynstat_eta_del2             =   1.1369422979604E-02
(PID.TID 0001.0001) %MON dynstat_uvel_max             =   1.7359004111960E-01
(PID.TID 0001.0001) %MON dynstat_uvel_min             =  -2.6492214741228E-01
(PID.TID 0001.0001) %MON dynstat_uvel_mean            =  -4.6871324777999E-04
(PID.TID 0001.0001) %MON dynstat_uvel_sd              =   1.2006490279204E-02
(PID.TID 0001.0001) %MON dynstat_uvel_del2            =   1.5730226081641E-03
(PID.TID 0001.0001) %MON dynstat_vvel_max             =   1.8308127117943E-01
(PID.TID 0001.0001) %MON dynstat_vvel_min             =  -2.2295010880728E-01
(PID.TID 0001.0001) %MON dynstat_vvel_mean            =  -3.8411462005798E-04
(PID.TID 0001.0001) %MON dynstat_vvel_sd              =   1.2579650897648E-02
(PID.TID 0001.0001) %MON dynstat_vvel_del2            =   1.5878465550294E-03
(PID.TID 0001.0001) %MON dynstat_wvel_max             =   1.0409848654377E-04
(PID.TID 0001.0001) %MON dynstat_wvel_min             =  -1.9814402630734E-04
(PID.TID 0001.0001) %MON dynstat_wvel_mean            =   3.6940416232745E-11
(PID.TID 0001.0001) %MON dynstat_wvel_sd              =   3.6792854431017E-06
(PID.TID 0001.0001) %MON dynstat_wvel_del2            =   8.3907440129601E-07
(PID.TID 0001.0001) %MON dynstat_theta_max            =   3.1244523265464E+01
(PID.TID 0001.0001) %MON dynstat_theta_min            =  -3.8376413995197E+00
(PID.TID 0001.0001) %MON dynstat_theta_mean           =   3.9117736316107E+00
(PID.TID 0001.0001) %MON dynstat_theta_sd             =   4.5781110146857E+00
(PID.TID 0001.0001) %MON dynstat_theta_del2           =   8.8526244835243E-02
(PID.TID 0001.0001) %MON dynstat_salt_max             =   4.1412192760000E+01
(PID.TID 0001.0001) %MON dynstat_salt_min             =   1.8398315012805E+01
(PID.TID 0001.0001) %MON dynstat_salt_mean            =   3.4772099407469E+01
(PID.TID 0001.0001) %MON dynstat_salt_sd              =   5.3133453689397E-01
(PID.TID 0001.0001) %MON dynstat_salt_del2            =   1.8855578013478E-02
(PID.TID 0001.0001) %MON dynstat_sst_max              =   3.1244523265464E+01
(PID.TID 0001.0001) %MON dynstat_sst_min              =  -2.0026589716045E+00
(PID.TID 0001.0001) %MON dynstat_sst_mean             =   1.8330151121273E+01
(PID.TID 0001.0001) %MON dynstat_sst_sd               =   9.7933566278916E+00
(PID.TID 0001.0001) %MON dynstat_sst_del2             =   2.1254037532429E-01
(PID.TID 0001.0001) %MON dynstat_sss_max              =   4.1412192760000E+01
(PID.TID 0001.0001) %MON dynstat_sss_min              =   1.8398315012805E+01
(PID.TID 0001.0001) %MON dynstat_sss_mean             =   3.4621199498212E+01
(PID.TID 0001.0001) %MON dynstat_sss_sd               =   1.4588719478746E+00
(PID.TID 0001.0001) %MON dynstat_sss_del2             =   8.0158897416073E-02
(PID.TID 0001.0001) %MON extforcing_qnet_max          =   4.0380986656091E+02
(PID.TID 0001.0001) %MON extforcing_qnet_min          =  -1.9056807092639E+02
(PID.TID 0001.0001) %MON extforcing_qnet_mean         =  -1.3562190375881E+01
(PID.TID 0001.0001) %MON extforcing_qnet_sd           =   8.8875322150842E+01
(PID.TID 0001.0001) %MON extforcing_qnet_del2         =   4.9623845613686E+00
(PID.TID 0001.0001) %MON extforcing_qsw_max           =   0.0000000000000E+00
(PID.TID 0001.0001) %MON extforcing_qsw_min           =   0.0000000000000E+00
(PID.TID 0001.0001) %MON extforcing_qsw_mean          =   0.0000000000000E+00
(PID.TID 0001.0001) %MON extforcing_qsw_sd            =   0.0000000000000E+00
(PID.TID 0001.0001) %MON extforcing_qsw_del2          =   0.0000000000000E+00
(PID.TID 0001.0001) %MON extforcing_empmr_max         =   7.6494447208479E-08
(PID.TID 0001.0001) %MON extforcing_empmr_min         =  -1.5362614137596E-07
(PID.TID 0001.0001) %MON extforcing_empmr_mean        =  -2.0474999028391E-24
(PID.TID 0001.0001) %MON extforcing_empmr_sd          =   2.4051723601802E-08
(PID.TID 0001.0001) %MON extforcing_empmr_del2        =   1.2835223797615E-09
(PID.TID 0001.0001) %MON extforcing_fu_max            =   2.6597361391120E-01
(PID.TID 0001.0001) %MON extforcing_fu_min            =  -2.3042723049859E-01
(PID.TID 0001.0001) %MON extforcing_fu_mean           =  -4.7679008279504E-03
(PID.TID 0001.0001) %MON extforcing_fu_sd             =   6.5141491973737E-02
(PID.TID 0001.0001) %MON extforcing_fu_del2           =   3.0253993303248E-03
(PID.TID 0001.0001) %MON extforcing_fv_max            =   2.8544461590808E-01
(PID.TID 0001.0001) %MON extforcing_fv_min            =  -3.0016043215148E-01
(PID.TID 0001.0001) %MON extforcing_fv_mean           =  -1.3696506650253E-02
(PID.TID 0001.0001) %MON extforcing_fv_sd             =   7.5618365352426E-02
(PID.TID 0001.0001) %MON extforcing_fv_del2           =   3.2964137555759E-03
(PID.TID 0001.0001) %MON advcfl_uvel_max              =   7.5136946231288E-02
(PID.TID 0001.0001) %MON advcfl_vvel_max              =   7.9802546818950E-02
(PID.TID 0001.0001) %MON advcfl_wvel_max              =   6.4602429709263E-02
(PID.TID 0001.0001) %MON advcfl_W_hf_max              =   8.2647697591678E-02
(PID.TID 0001.0001) %MON pe_b_mean                    =   4.7369090237405E-04
(PID.TID 0001.0001) %MON ke_max                       =   3.5446886417633E-02
(PID.TID 0001.0001) %MON ke_mean                      =   1.3981142762421E-04
(PID.TID 0001.0001) %MON ke_vol                       =   1.3398024453628E+18
(PID.TID 0001.0001) %MON vort_r_min                   =  -1.3294161080400E-06
(PID.TID 0001.0001) %MON vort_r_max                   =   1.1799964171718E-06
(PID.TID 0001.0001) %MON vort_a_mean                  =  -2.0493733748264E-05
(PID.TID 0001.0001) %MON vort_a_sd                    =   7.5053946701882E-05
(PID.TID 0001.0001) %MON vort_p_mean                  =  -2.4715772208339E-05
(PID.TID 0001.0001) %MON vort_p_sd                    =   1.2777061754604E-04
(PID.TID 0001.0001) %MON surfExpan_theta_mean         =   4.9796540375993E-08
(PID.TID 0001.0001) %MON surfExpan_salt_mean          =   1.4970664330230E-08
(PID.TID 0001.0001) // =======================================================
(PID.TID 0001.0001) // End MONITOR dynamic field statistics
(PID.TID 0001.0001) // =======================================================
 DRIVER_GET_EXPORT_STATE_3D:MASK. This code is stubbed!
 DRIVER_SET_IMPORT_STATE_3D:SWHEAT. This code is stubbed!
 cg2d: Sum(rhs),rhsMax =  -9.57811607804615E-12  1.39724542956605E+00
(PID.TID 0001.0001)                    cg2d_init_res =    1.40566088715497E-01
(PID.TID 0001.0001)                       cg2d_iters =    61
(PID.TID 0001.0001)                         cg2d_res =    4.90088980657440E-07
(PID.TID 0001.0001) // =======================================================
(PID.TID 0001.0001) // Begin MONITOR dynamic field statistics
(PID.TID 0001.0001) // =======================================================
(PID.TID 0001.0001) %MON time_tsnumber                =                 72044
(PID.TID 0001.0001) %MON time_secondsf                =   6.2246016000000E+09
(PID.TID 0001.0001) %MON dynstat_eta_max              =   8.7755870311753E-01
(PID.TID 0001.0001) %MON dynstat_eta_min              =  -1.5983515585282E+00
(PID.TID 0001.0001) %MON dynstat_eta_mean             =   1.4015350037003E-14
(PID.TID 0001.0001) %MON dynstat_eta_sd               =   5.9625307370614E-01
(PID.TID 0001.0001) %MON dynstat_eta_del2             =   1.1373722062034E-02
(PID.TID 0001.0001) %MON dynstat_uvel_max             =   1.7344705387719E-01
(PID.TID 0001.0001) %MON dynstat_uvel_min             =  -2.6419691615358E-01
(PID.TID 0001.0001) %MON dynstat_uvel_mean            =  -4.6821077770664E-04
(PID.TID 0001.0001) %MON dynstat_uvel_sd              =   1.2004767879905E-02
(PID.TID 0001.0001) %MON dynstat_uvel_del2            =   1.5734502163860E-03
(PID.TID 0001.0001) %MON dynstat_vvel_max             =   1.8268086907107E-01
(PID.TID 0001.0001) %MON dynstat_vvel_min             =  -2.2299563613015E-01
(PID.TID 0001.0001) %MON dynstat_vvel_mean            =  -3.8348608237135E-04
(PID.TID 0001.0001) %MON dynstat_vvel_sd              =   1.2579507907424E-02
(PID.TID 0001.0001) %MON dynstat_vvel_del2            =   1.5881980120518E-03
(PID.TID 0001.0001) %MON dynstat_wvel_max             =   1.0389109069071E-04
(PID.TID 0001.0001) %MON dynstat_wvel_min             =  -1.9841071857430E-04
(PID.TID 0001.0001) %MON dynstat_wvel_mean            =   3.9635915518104E-11
(PID.TID 0001.0001) %MON dynstat_wvel_sd              =   3.6749248333577E-06
(PID.TID 0001.0001) %MON dynstat_wvel_del2            =   8.3888236344463E-07
(PID.TID 0001.0001) %MON dynstat_theta_max            =   3.1243047713789E+01
(PID.TID 0001.0001) %MON dynstat_theta_min            =  -3.8564495544137E+00
(PID.TID 0001.0001) %MON dynstat_theta_mean           =   3.9118390811106E+00
(PID.TID 0001.0001) %MON dynstat_theta_sd             =   4.5784155116502E+00
(PID.TID 0001.0001) %MON dynstat_theta_del2           =   8.8599127978806E-02
(PID.TID 0001.0001) %MON dynstat_salt_max             =   4.1412844340098E+01
(PID.TID 0001.0001) %MON dynstat_salt_min             =   1.8399681124231E+01
(PID.TID 0001.0001) %MON dynstat_salt_mean            =   3.4772100444653E+01
(PID.TID 0001.0001) %MON dynstat_salt_sd              =   5.3132990159500E-01
(PID.TID 0001.0001) %MON dynstat_salt_del2            =   1.8866490205025E-02
(PID.TID 0001.0001) %MON dynstat_sst_max              =   3.1243047713789E+01
(PID.TID 0001.0001) %MON dynstat_sst_min              =  -2.0010351844020E+00
(PID.TID 0001.0001) %MON dynstat_sst_mean             =   1.8335958740383E+01
(PID.TID 0001.0001) %MON dynstat_sst_sd               =   9.7972380437666E+00
(PID.TID 0001.0001) %MON dynstat_sst_del2             =   2.1275931233770E-01
(PID.TID 0001.0001) %MON dynstat_sss_max              =   4.1412844340098E+01
(PID.TID 0001.0001) %MON dynstat_sss_min              =   1.8399681124231E+01
(PID.TID 0001.0001) %MON dynstat_sss_mean             =   3.4621115251611E+01
(PID.TID 0001.0001) %MON dynstat_sss_sd               =   1.4587566450707E+00
(PID.TID 0001.0001) %MON dynstat_sss_del2             =   8.0192906274101E-02
(PID.TID 0001.0001) %MON extforcing_qnet_max          =   4.0251818589816E+02
(PID.TID 0001.0001) %MON extforcing_qnet_min          =  -1.9034744793389E+02
(PID.TID 0001.0001) %MON extforcing_qnet_mean         =  -1.3607854911236E+01
(PID.TID 0001.0001) %MON extforcing_qnet_sd           =   8.8169567050953E+01
(PID.TID 0001.0001) %MON extforcing_qnet_del2         =   4.9724412464787E+00
(PID.TID 0001.0001) %MON extforcing_qsw_max           =   0.0000000000000E+00
(PID.TID 0001.0001) %MON extforcing_qsw_min           =   0.0000000000000E+00
(PID.TID 0001.0001) %MON extforcing_qsw_mean          =   0.0000000000000E+00
(PID.TID 0001.0001) %MON extforcing_qsw_sd            =   0.0000000000000E+00
(PID.TID 0001.0001) %MON extforcing_qsw_del2          =   0.0000000000000E+00
(PID.TID 0001.0001) %MON extforcing_empmr_max         =   7.6494447208479E-08
(PID.TID 0001.0001) %MON extforcing_empmr_min         =  -1.5362614137596E-07
(PID.TID 0001.0001) %MON extforcing_empmr_mean        =  -2.0474999028391E-24
(PID.TID 0001.0001) %MON extforcing_empmr_sd          =   2.4051723601802E-08
(PID.TID 0001.0001) %MON extforcing_empmr_del2        =   1.2835223797615E-09
(PID.TID 0001.0001) %MON extforcing_fu_max            =   2.6781491369290E-01
(PID.TID 0001.0001) %MON extforcing_fu_min            =  -2.3339559259883E-01
(PID.TID 0001.0001) %MON extforcing_fu_mean           =  -4.8000197788559E-03
(PID.TID 0001.0001) %MON extforcing_fu_sd             =   6.5329778363028E-02
(PID.TID 0001.0001) %MON extforcing_fu_del2           =   3.0648246338014E-03
(PID.TID 0001.0001) %MON extforcing_fv_max            =   2.8587805616211E-01
(PID.TID 0001.0001) %MON extforcing_fv_min            =  -3.0299033425523E-01
(PID.TID 0001.0001) %MON extforcing_fv_mean           =  -1.3694657299763E-02
(PID.TID 0001.0001) %MON extforcing_fv_sd             =   7.5816577479841E-02
(PID.TID 0001.0001) %MON extforcing_fv_del2           =   3.3288141562228E-03
(PID.TID 0001.0001) %MON advcfl_uvel_max              =   7.4931256889635E-02
(PID.TID 0001.0001) %MON advcfl_vvel_max              =   7.9628017180866E-02
(PID.TID 0001.0001) %MON advcfl_wvel_max              =   6.4689381452149E-02
(PID.TID 0001.0001) %MON advcfl_W_hf_max              =   8.0944827428227E-02
(PID.TID 0001.0001) %MON pe_b_mean                    =   4.7361531185447E-04
(PID.TID 0001.0001) %MON ke_max                       =   3.5412611695522E-02
(PID.TID 0001.0001) %MON ke_mean                      =   1.3979031675640E-04
(PID.TID 0001.0001) %MON ke_vol                       =   1.3398024453628E+18
(PID.TID 0001.0001) %MON vort_r_min                   =  -1.3301484441837E-06
(PID.TID 0001.0001) %MON vort_r_max                   =   1.1759548871980E-06
(PID.TID 0001.0001) %MON vort_a_mean                  =  -2.0493733748264E-05
(PID.TID 0001.0001) %MON vort_a_sd                    =   7.5053946855727E-05
(PID.TID 0001.0001) %MON vort_p_mean                  =  -2.4715772180816E-05
(PID.TID 0001.0001) %MON vort_p_sd                    =   1.2777060910774E-04
(PID.TID 0001.0001) %MON surfExpan_theta_mean         =   5.0073723318530E-08
(PID.TID 0001.0001) %MON surfExpan_salt_mean          =   1.4957139234819E-08
(PID.TID 0001.0001) // =======================================================
(PID.TID 0001.0001) // End MONITOR dynamic field statistics
(PID.TID 0001.0001) // =======================================================
 DRIVER_GET_EXPORT_STATE_3D:MASK. This code is stubbed!
 DRIVER_SET_IMPORT_STATE_3D:SWHEAT. This code is stubbed!
 cg2d: Sum(rhs),rhsMax =  -9.89075488178059E-12  1.39800756120889E+00
(PID.TID 0001.0001)                    cg2d_init_res =    1.40636403395551E-01
(PID.TID 0001.0001)                       cg2d_iters =    60
(PID.TID 0001.0001)                         cg2d_res =    5.77337312769420E-07
(PID.TID 0001.0001) // =======================================================
(PID.TID 0001.0001) // Begin MONITOR dynamic field statistics
(PID.TID 0001.0001) // =======================================================
(PID.TID 0001.0001) %MON time_tsnumber                =                 72045
(PID.TID 0001.0001) %MON time_secondsf                =   6.2246880000000E+09
(PID.TID 0001.0001) %MON dynstat_eta_max              =   8.7685593872797E-01
(PID.TID 0001.0001) %MON dynstat_eta_min              =  -1.5981979141860E+00
(PID.TID 0001.0001) %MON dynstat_eta_mean             =   1.4345122979050E-14
(PID.TID 0001.0001) %MON dynstat_eta_sd               =   5.9620582878877E-01
(PID.TID 0001.0001) %MON dynstat_eta_del2             =   1.1377831186117E-02
(PID.TID 0001.0001) %MON dynstat_uvel_max             =   1.7354745027322E-01
(PID.TID 0001.0001) %MON dynstat_uvel_min             =  -2.6347052019446E-01
(PID.TID 0001.0001) %MON dynstat_uvel_mean            =  -4.6770269415775E-04
(PID.TID 0001.0001) %MON dynstat_uvel_sd              =   1.2002763700125E-02
(PID.TID 0001.0001) %MON dynstat_uvel_del2            =   1.5739138425385E-03
(PID.TID 0001.0001) %MON dynstat_vvel_max             =   1.8219300593041E-01
(PID.TID 0001.0001) %MON dynstat_vvel_min             =  -2.2303783141111E-01
(PID.TID 0001.0001) %MON dynstat_vvel_mean            =  -3.8286194271340E-04
(PID.TID 0001.0001) %MON dynstat_vvel_sd              =   1.2579633605969E-02
(PID.TID 0001.0001) %MON dynstat_vvel_del2            =   1.5886418445258E-03
(PID.TID 0001.0001) %MON dynstat_wvel_max             =   1.0373718765447E-04
(PID.TID 0001.0001) %MON dynstat_wvel_min             =  -1.9868764350287E-04
(PID.TID 0001.0001) %MON dynstat_wvel_mean            =   4.2010168839618E-11
(PID.TID 0001.0001) %MON dynstat_wvel_sd              =   3.6706724207919E-06
(PID.TID 0001.0001) %MON dynstat_wvel_del2            =   8.3872138852882E-07
(PID.TID 0001.0001) %MON dynstat_theta_max            =   3.1241193574533E+01
(PID.TID 0001.0001) %MON dynstat_theta_min            =  -3.8749249454057E+00
(PID.TID 0001.0001) %MON dynstat_theta_mean           =   3.9119046560893E+00
(PID.TID 0001.0001) %MON dynstat_theta_sd             =   4.5787245065404E+00
(PID.TID 0001.0001) %MON dynstat_theta_del2           =   8.8673926096370E-02
(PID.TID 0001.0001) %MON dynstat_salt_max             =   4.1413493493040E+01
(PID.TID 0001.0001) %MON dynstat_salt_min             =   1.8403304239563E+01
(PID.TID 0001.0001) %MON dynstat_salt_mean            =   3.4772101493619E+01
(PID.TID 0001.0001) %MON dynstat_salt_sd              =   5.3132533707136E-01
(PID.TID 0001.0001) %MON dynstat_salt_del2            =   1.8875250984830E-02
(PID.TID 0001.0001) %MON dynstat_sst_max              =   3.1241193574533E+01
(PID.TID 0001.0001) %MON dynstat_sst_min              =  -1.9995114222656E+00
(PID.TID 0001.0001) %MON dynstat_sst_mean             =   1.8341719539346E+01
(PID.TID 0001.0001) %MON dynstat_sst_sd               =   9.8012296833327E+00
(PID.TID 0001.0001) %MON dynstat_sst_del2             =   2.1295550913638E-01
(PID.TID 0001.0001) %MON dynstat_sss_max              =   4.1413493493040E+01
(PID.TID 0001.0001) %MON dynstat_sss_min              =   1.8403304239563E+01
(PID.TID 0001.0001) %MON dynstat_sss_mean             =   3.4621022861074E+01
(PID.TID 0001.0001) %MON dynstat_sss_sd               =   1.4586108812703E+00
(PID.TID 0001.0001) %MON dynstat_sss_del2             =   8.0214286479962E-02
(PID.TID 0001.0001) %MON extforcing_qnet_max          =   4.0122650523542E+02
(PID.TID 0001.0001) %MON extforcing_qnet_min          =  -1.9012682494139E+02
(PID.TID 0001.0001) %MON extforcing_qnet_mean         =  -1.3653519446591E+01
(PID.TID 0001.0001) %MON extforcing_qnet_sd           =   8.7481705926786E+01
(PID.TID 0001.0001) %MON extforcing_qnet_del2         =   4.9842123870664E+00
(PID.TID 0001.0001) %MON extforcing_qsw_max           =   0.0000000000000E+00
(PID.TID 0001.0001) %MON extforcing_qsw_min           =   0.0000000000000E+00
(PID.TID 0001.0001) %MON extforcing_qsw_mean          =   0.0000000000000E+00
(PID.TID 0001.0001) %MON extforcing_qsw_sd            =   0.0000000000000E+00
(PID.TID 0001.0001) %MON extforcing_qsw_del2          =   0.0000000000000E+00
(PID.TID 0001.0001) %MON extforcing_empmr_max         =   7.6494447208479E-08
(PID.TID 0001.0001) %MON extforcing_empmr_min         =  -1.5362614137596E-07
(PID.TID 0001.0001) %MON extforcing_empmr_mean        =  -2.0474999028391E-24
(PID.TID 0001.0001) %MON extforcing_empmr_sd          =   2.4051723601802E-08
(PID.TID 0001.0001) %MON extforcing_empmr_del2        =   1.2835223797615E-09
(PID.TID 0001.0001) %MON extforcing_fu_max            =   2.6965621347460E-01
(PID.TID 0001.0001) %MON extforcing_fu_min            =  -2.3636395469907E-01
(PID.TID 0001.0001) %MON extforcing_fu_mean           =  -4.8321396945496E-03
(PID.TID 0001.0001) %MON extforcing_fu_sd             =   6.5531796233264E-02
(PID.TID 0001.0001) %MON extforcing_fu_del2           =   3.1063851433098E-03
(PID.TID 0001.0001) %MON extforcing_fv_max            =   2.8631149641613E-01
(PID.TID 0001.0001) %MON extforcing_fv_min            =  -3.0582023635899E-01
(PID.TID 0001.0001) %MON extforcing_fv_mean           =  -1.3692808450585E-02
(PID.TID 0001.0001) %MON extforcing_fv_sd             =   7.6031529884447E-02
(PID.TID 0001.0001) %MON extforcing_fv_del2           =   3.3626356883484E-03
(PID.TID 0001.0001) %MON advcfl_uvel_max              =   7.4725237216852E-02
(PID.TID 0001.0001) %MON advcfl_vvel_max              =   7.9415364510974E-02
(PID.TID 0001.0001) %MON advcfl_wvel_max              =   6.4779669428860E-02
(PID.TID 0001.0001) %MON advcfl_W_hf_max              =   7.9875329776766E-02
(PID.TID 0001.0001) %MON pe_b_mean                    =   4.7354025973057E-04
(PID.TID 0001.0001) %MON ke_max                       =   3.5377715647752E-02
(PID.TID 0001.0001) %MON ke_mean                      =   1.3976923663979E-04
(PID.TID 0001.0001) %MON ke_vol                       =   1.3398024453628E+18
(PID.TID 0001.0001) %MON vort_r_min                   =  -1.3309474476865E-06
(PID.TID 0001.0001) %MON vort_r_max                   =   1.1720647278373E-06
(PID.TID 0001.0001) %MON vort_a_mean                  =  -2.0493733748264E-05
(PID.TID 0001.0001) %MON vort_a_sd                    =   7.5053947021717E-05
(PID.TID 0001.0001) %MON vort_p_mean                  =  -2.4715772155390E-05
(PID.TID 0001.0001) %MON vort_p_sd                    =   1.2777060060062E-04
(PID.TID 0001.0001) %MON surfExpan_theta_mean         =   5.0381804776704E-08
(PID.TID 0001.0001) %MON surfExpan_salt_mean          =   1.4956674362474E-08
(PID.TID 0001.0001) // =======================================================
(PID.TID 0001.0001) // End MONITOR dynamic field statistics
(PID.TID 0001.0001) // =======================================================
 DRIVER_GET_EXPORT_STATE_3D:MASK. This code is stubbed!
 DRIVER_SET_IMPORT_STATE_3D:SWHEAT. This code is stubbed!
S/R EXTERNAL_FIELDS_LOAD: Reading new data:    2    3     72045  6.224688000000E+09
(PID.TID 0001.0001)  MDS_READ_FIELD: opening global file: trenberth_taux.bin
(PID.TID 0001.0001)  MDS_READ_FIELD: opening global file: trenberth_taux.bin
(PID.TID 0001.0001)  MDS_READ_FIELD: opening global file: trenberth_tauy.bin
(PID.TID 0001.0001)  MDS_READ_FIELD: opening global file: trenberth_tauy.bin
(PID.TID 0001.0001)  MDS_READ_FIELD: opening global file: shiQnet_cs32.bin
(PID.TID 0001.0001)  MDS_READ_FIELD: opening global file: shiQnet_cs32.bin
(PID.TID 0001.0001)  MDS_READ_FIELD: opening global file: shiEmPR_cs32.bin
(PID.TID 0001.0001)  MDS_READ_FIELD: opening global file: shiEmPR_cs32.bin
(PID.TID 0001.0001)  MDS_READ_FIELD: opening global file: lev_surfT_cs_12m.bin
(PID.TID 0001.0001)  MDS_READ_FIELD: opening global file: lev_surfT_cs_12m.bin
(PID.TID 0001.0001)  MDS_READ_FIELD: opening global file: lev_surfS_cs_12m.bin
(PID.TID 0001.0001)  MDS_READ_FIELD: opening global file: lev_surfS_cs_12m.bin
 cg2d: Sum(rhs),rhsMax =  -9.77706804405898E-12  1.39885084821981E+00
(PID.TID 0001.0001)                    cg2d_init_res =    1.40264588751025E-01
(PID.TID 0001.0001)                       cg2d_iters =    60
(PID.TID 0001.0001)                         cg2d_res =    5.78084220540283E-07
(PID.TID 0001.0001) // =======================================================
(PID.TID 0001.0001) // Begin MONITOR dynamic field statistics
(PID.TID 0001.0001) // =======================================================
(PID.TID 0001.0001) %MON time_tsnumber                =                 72046
(PID.TID 0001.0001) %MON time_secondsf                =   6.2247744000000E+09
(PID.TID 0001.0001) %MON dynstat_eta_max              =   8.7614027355209E-01
(PID.TID 0001.0001) %MON dynstat_eta_min              =  -1.5980673201509E+00
(PID.TID 0001.0001) %MON dynstat_eta_mean             =   1.4207717586531E-14
(PID.TID 0001.0001) %MON dynstat_eta_sd               =   5.9615943721492E-01
(PID.TID 0001.0001) %MON dynstat_eta_del2             =   1.1381948907621E-02
(PID.TID 0001.0001) %MON dynstat_uvel_max             =   1.7366764275378E-01
(PID.TID 0001.0001) %MON dynstat_uvel_min             =  -2.6274352711389E-01
(PID.TID 0001.0001) %MON dynstat_uvel_mean            =  -4.6718810405265E-04
(PID.TID 0001.0001) %MON dynstat_uvel_sd              =   1.2000447409123E-02
(PID.TID 0001.0001) %MON dynstat_uvel_del2            =   1.5743582316934E-03
(PID.TID 0001.0001) %MON dynstat_vvel_max             =   1.8162170548369E-01
(PID.TID 0001.0001) %MON dynstat_vvel_min             =  -2.2307674769098E-01
(PID.TID 0001.0001) %MON dynstat_vvel_mean            =  -3.8224236302441E-04
(PID.TID 0001.0001) %MON dynstat_vvel_sd              =   1.2580009777022E-02
(PID.TID 0001.0001) %MON dynstat_vvel_del2            =   1.5891142022688E-03
(PID.TID 0001.0001) %MON dynstat_wvel_max             =   1.0363923330315E-04
(PID.TID 0001.0001) %MON dynstat_wvel_min             =  -1.9897014071420E-04
(PID.TID 0001.0001) %MON dynstat_wvel_mean            =   4.3352916989487E-11
(PID.TID 0001.0001) %MON dynstat_wvel_sd              =   3.6665058120021E-06
(PID.TID 0001.0001) %MON dynstat_wvel_del2            =   8.3847607657312E-07
(PID.TID 0001.0001) %MON dynstat_theta_max            =   3.1238962543054E+01
(PID.TID 0001.0001) %MON dynstat_theta_min            =  -3.8930322793367E+00
(PID.TID 0001.0001) %MON dynstat_theta_mean           =   3.9119703743759E+00
(PID.TID 0001.0001) %MON dynstat_theta_sd             =   4.5790357785571E+00
(PID.TID 0001.0001) %MON dynstat_theta_del2           =   8.8707603033436E-02
(PID.TID 0001.0001) %MON dynstat_salt_max             =   4.1414139818577E+01
(PID.TID 0001.0001) %MON dynstat_salt_min             =   1.8413250729139E+01
(PID.TID 0001.0001) %MON dynstat_salt_mean            =   3.4772102554529E+01
(PID.TID 0001.0001) %MON dynstat_salt_sd              =   5.3131977295543E-01
(PID.TID 0001.0001) %MON dynstat_salt_del2            =   1.8874663874631E-02
(PID.TID 0001.0001) %MON dynstat_sst_max              =   3.1238962543054E+01
(PID.TID 0001.0001) %MON dynstat_sst_min              =  -1.9980842059930E+00
(PID.TID 0001.0001) %MON dynstat_sst_mean             =   1.8347523162079E+01
(PID.TID 0001.0001) %MON dynstat_sst_sd               =   9.8052951886596E+00
(PID.TID 0001.0001) %MON dynstat_sst_del2             =   2.1321719023456E-01
(PID.TID 0001.0001) %MON dynstat_sss_max              =   4.1414139818577E+01
(PID.TID 0001.0001) %MON dynstat_sss_min              =   1.8413250729139E+01
(PID.TID 0001.0001) %MON dynstat_sss_mean             =   3.4620939139608E+01
(PID.TID 0001.0001) %MON dynstat_sss_sd               =   1.4584198643711E+00
(PID.TID 0001.0001) %MON dynstat_sss_del2             =   8.0238572581665E-02
(PID.TID 0001.0001) %MON extforcing_qnet_max          =   3.9993482457267E+02
(PID.TID 0001.0001) %MON extforcing_qnet_min          =  -1.8990620194889E+02
(PID.TID 0001.0001) %MON extforcing_qnet_mean         =  -1.3699183981947E+01
(PID.TID 0001.0001) %MON extforcing_qnet_sd           =   8.6812164131190E+01
(PID.TID 0001.0001) %MON extforcing_qnet_del2         =   4.9977605001168E+00
(PID.TID 0001.0001) %MON extforcing_qsw_max           =   0.0000000000000E+00
(PID.TID 0001.0001) %MON extforcing_qsw_min           =   0.0000000000000E+00
(PID.TID 0001.0001) %MON extforcing_qsw_mean          =   0.0000000000000E+00
(PID.TID 0001.0001) %MON extforcing_qsw_sd            =   0.0000000000000E+00
(PID.TID 0001.0001) %MON extforcing_qsw_del2          =   0.0000000000000E+00
(PID.TID 0001.0001) %MON extforcing_empmr_max         =   7.6494447208479E-08
(PID.TID 0001.0001) %MON extforcing_empmr_min         =  -1.5362614137596E-07
(PID.TID 0001.0001) %MON extforcing_empmr_mean        =  -2.0474999028391E-24
(PID.TID 0001.0001) %MON extforcing_empmr_sd          =   2.4051723601802E-08
(PID.TID 0001.0001) %MON extforcing_empmr_del2        =   1.2835223797615E-09
(PID.TID 0001.0001) %MON extforcing_fu_max            =   2.7149751325630E-01
(PID.TID 0001.0001) %MON extforcing_fu_min            =  -2.3933231679931E-01
(PID.TID 0001.0001) %MON extforcing_fu_mean           =  -4.8642604184457E-03
(PID.TID 0001.0001) %MON extforcing_fu_sd             =   6.5747419115888E-02
(PID.TID 0001.0001) %MON extforcing_fu_del2           =   3.1495281868983E-03
(PID.TID 0001.0001) %MON extforcing_fv_max            =   2.8674493667015E-01
(PID.TID 0001.0001) %MON extforcing_fv_min            =  -3.0865013846275E-01
(PID.TID 0001.0001) %MON extforcing_fv_mean           =  -1.3690960291158E-02
(PID.TID 0001.0001) %MON extforcing_fv_sd             =   7.6263081012760E-02
(PID.TID 0001.0001) %MON extforcing_fv_del2           =   3.3987995076921E-03
(PID.TID 0001.0001) %MON advcfl_uvel_max              =   7.4519048189098E-02
(PID.TID 0001.0001) %MON advcfl_vvel_max              =   7.9166342694853E-02
(PID.TID 0001.0001) %MON advcfl_wvel_max              =   6.4871774180027E-02
(PID.TID 0001.0001) %MON advcfl_W_hf_max              =   7.9988906682483E-02
(PID.TID 0001.0001) %MON pe_b_mean                    =   4.7346656899433E-04
(PID.TID 0001.0001) %MON ke_max                       =   3.5342183220884E-02
(PID.TID 0001.0001) %MON ke_mean                      =   1.3974764163533E-04
(PID.TID 0001.0001) %MON ke_vol                       =   1.3398024453628E+18
(PID.TID 0001.0001) %MON vort_r_min                   =  -1.3318313774624E-06
(PID.TID 0001.0001) %MON vort_r_max                   =   1.1683659382344E-06
(PID.TID 0001.0001) %MON vort_a_mean                  =  -2.0493733748264E-05
(PID.TID 0001.0001) %MON vort_a_sd                    =   7.5053947200155E-05
(PID.TID 0001.0001) %MON vort_p_mean                  =  -2.4715772131997E-05
(PID.TID 0001.0001) %MON vort_p_sd                    =   1.2777059208031E-04
(PID.TID 0001.0001) %MON surfExpan_theta_mean         =   5.0712060182553E-08
(PID.TID 0001.0001) %MON surfExpan_salt_mean          =   1.4969410748746E-08
(PID.TID 0001.0001) // =======================================================
(PID.TID 0001.0001) // End MONITOR dynamic field statistics
(PID.TID 0001.0001) // =======================================================
 DRIVER_GET_EXPORT_STATE_3D:MASK. This code is stubbed!
 DRIVER_SET_IMPORT_STATE_3D:SWHEAT. This code is stubbed!
 cg2d: Sum(rhs),rhsMax =  -9.54969436861575E-12  1.39939042997462E+00
(PID.TID 0001.0001)                    cg2d_init_res =    1.40521128649974E-01
(PID.TID 0001.0001)                       cg2d_iters =    61
(PID.TID 0001.0001)                         cg2d_res =    4.84253092470605E-07
(PID.TID 0001.0001) // =======================================================
(PID.TID 0001.0001) // Begin MONITOR dynamic field statistics
(PID.TID 0001.0001) // =======================================================
(PID.TID 0001.0001) %MON time_tsnumber                =                 72047
(PID.TID 0001.0001) %MON time_secondsf                =   6.2248608000000E+09
(PID.TID 0001.0001) %MON dynstat_eta_max              =   8.7543415376577E-01
(PID.TID 0001.0001) %MON dynstat_eta_min              =  -1.5980055260734E+00
(PID.TID 0001.0001) %MON dynstat_eta_mean             =   1.4619933764090E-14
(PID.TID 0001.0001) %MON dynstat_eta_sd               =   5.9611749847435E-01
(PID.TID 0001.0001) %MON dynstat_eta_del2             =   1.1386012521617E-02
(PID.TID 0001.0001) %MON dynstat_uvel_max             =   1.7388321072881E-01
(PID.TID 0001.0001) %MON dynstat_uvel_min             =  -2.6202108773510E-01
(PID.TID 0001.0001) %MON dynstat_uvel_mean            =  -4.6671649697618E-04
(PID.TID 0001.0001) %MON dynstat_uvel_sd              =   1.1997644824254E-02
(PID.TID 0001.0001) %MON dynstat_uvel_del2            =   1.5746745486504E-03
(PID.TID 0001.0001) %MON dynstat_vvel_max             =   1.8090230141674E-01
(PID.TID 0001.0001) %MON dynstat_vvel_min             =  -2.2311059701192E-01
(PID.TID 0001.0001) %MON dynstat_vvel_mean            =  -3.8161193723586E-04
(PID.TID 0001.0001) %MON dynstat_vvel_sd              =   1.2580903275221E-02
(PID.TID 0001.0001) %MON dynstat_vvel_del2            =   1.5895636277946E-03
(PID.TID 0001.0001) %MON dynstat_wvel_max             =   1.0359618585942E-04
(PID.TID 0001.0001) %MON dynstat_wvel_min             =  -1.9924440138576E-04
(PID.TID 0001.0001) %MON dynstat_wvel_mean            =   6.3380564296629E-11
(PID.TID 0001.0001) %MON dynstat_wvel_sd              =   3.6624473653887E-06
(PID.TID 0001.0001) %MON dynstat_wvel_del2            =   8.3822111427327E-07
(PID.TID 0001.0001) %MON dynstat_theta_max            =   3.1237078462694E+01
(PID.TID 0001.0001) %MON dynstat_theta_min            =  -3.9107621763773E+00
(PID.TID 0001.0001) %MON dynstat_theta_mean           =   3.9120338493761E+00
(PID.TID 0001.0001) %MON dynstat_theta_sd             =   4.5793444463010E+00
(PID.TID 0001.0001) %MON dynstat_theta_del2           =   8.8734219104930E-02
(PID.TID 0001.0001) %MON dynstat_salt_max             =   4.1414810370388E+01
(PID.TID 0001.0001) %MON dynstat_salt_min             =   1.8413673539919E+01
(PID.TID 0001.0001) %MON dynstat_salt_mean            =   3.4772103619836E+01
(PID.TID 0001.0001) %MON dynstat_salt_sd              =   5.3131433021225E-01
(PID.TID 0001.0001) %MON dynstat_salt_del2            =   1.8875389602960E-02
(PID.TID 0001.0001) %MON dynstat_sst_max              =   3.1237078462694E+01
(PID.TID 0001.0001) %MON dynstat_sst_min              =  -1.9958815000248E+00
(PID.TID 0001.0001) %MON dynstat_sst_mean             =   1.8353165165393E+01
(PID.TID 0001.0001) %MON dynstat_sst_sd               =   9.8094583635832E+00
(PID.TID 0001.0001) %MON dynstat_sst_del2             =   2.1349755511126E-01
(PID.TID 0001.0001) %MON dynstat_sss_max              =   4.1414810370388E+01
(PID.TID 0001.0001) %MON dynstat_sss_min              =   1.8413673539919E+01
(PID.TID 0001.0001) %MON dynstat_sss_mean             =   3.4620883135375E+01
(PID.TID 0001.0001) %MON dynstat_sss_sd               =   1.4581978520860E+00
(PID.TID 0001.0001) %MON dynstat_sss_del2             =   8.0274017082397E-02
(PID.TID 0001.0001) %MON extforcing_qnet_max          =   3.9455027982402E+02
(PID.TID 0001.0001) %MON extforcing_qnet_min          =  -1.8860205515447E+02
(PID.TID 0001.0001) %MON extforcing_qnet_mean         =  -1.3495865835952E+01
(PID.TID 0001.0001) %MON extforcing_qnet_sd           =   8.5513320384978E+01
(PID.TID 0001.0001) %MON extforcing_qnet_del2         =   4.9667776929008E+00
(PID.TID 0001.0001) %MON extforcing_qsw_max           =   0.0000000000000E+00
(PID.TID 0001.0001) %MON extforcing_qsw_min           =   0.0000000000000E+00
(PID.TID 0001.0001) %MON extforcing_qsw_mean          =   0.0000000000000E+00
(PID.TID 0001.0001) %MON extforcing_qsw_sd            =   0.0000000000000E+00
(PID.TID 0001.0001) %MON extforcing_qsw_del2          =   0.0000000000000E+00
(PID.TID 0001.0001) %MON extforcing_empmr_max         =   7.6494447208479E-08
(PID.TID 0001.0001) %MON extforcing_empmr_min         =  -1.5362614137596E-07
(PID.TID 0001.0001) %MON extforcing_empmr_mean        =  -1.6379999222713E-24
(PID.TID 0001.0001) %MON extforcing_empmr_sd          =   2.4051723601802E-08
(PID.TID 0001.0001) %MON extforcing_empmr_del2        =   1.2835223797615E-09
(PID.TID 0001.0001) %MON extforcing_fu_max            =   2.6983795128906E-01
(PID.TID 0001.0001) %MON extforcing_fu_min            =  -2.4124760111361E-01
(PID.TID 0001.0001) %MON extforcing_fu_mean           =  -4.9890764704912E-03
(PID.TID 0001.0001) %MON extforcing_fu_sd             =   6.5698063076646E-02
(PID.TID 0001.0001) %MON extforcing_fu_del2           =   3.1081401694320E-03
(PID.TID 0001.0001) %MON extforcing_fv_max            =   2.8425241617652E-01
(PID.TID 0001.0001) %MON extforcing_fv_min            =  -3.0904892064708E-01
(PID.TID 0001.0001) %MON extforcing_fv_mean           =  -1.3656287708260E-02
(PID.TID 0001.0001) %MON extforcing_fv_sd             =   7.6112395273001E-02
(PID.TID 0001.0001) %MON extforcing_fv_del2           =   3.3563090236459E-03
(PID.TID 0001.0001) %MON advcfl_uvel_max              =   7.4314150677547E-02
(PID.TID 0001.0001) %MON advcfl_vvel_max              =   7.8852764597187E-02
(PID.TID 0001.0001) %MON advcfl_wvel_max              =   6.4961193508415E-02
(PID.TID 0001.0001) %MON advcfl_W_hf_max              =   8.0099171406801E-02
(PID.TID 0001.0001) %MON pe_b_mean                    =   4.7339995630005E-04
(PID.TID 0001.0001) %MON ke_max                       =   3.5307792127174E-02
(PID.TID 0001.0001) %MON ke_mean                      =   1.3972674496835E-04
(PID.TID 0001.0001) %MON ke_vol                       =   1.3398024453628E+18
(PID.TID 0001.0001) %MON vort_r_min                   =  -1.3325588148063E-06
(PID.TID 0001.0001) %MON vort_r_max                   =   1.1649525478815E-06
(PID.TID 0001.0001) %MON vort_a_mean                  =  -2.0493733748264E-05
(PID.TID 0001.0001) %MON vort_a_sd                    =   7.5053947389584E-05
(PID.TID 0001.0001) %MON vort_p_mean                  =  -2.4715772110237E-05
(PID.TID 0001.0001) %MON vort_p_sd                    =   1.2777058360154E-04
(PID.TID 0001.0001) %MON surfExpan_theta_mean         =   5.1443898618655E-08
(PID.TID 0001.0001) %MON surfExpan_salt_mean          =   1.4927321166260E-08
(PID.TID 0001.0001) // =======================================================
(PID.TID 0001.0001) // End MONITOR dynamic field statistics
(PID.TID 0001.0001) // =======================================================
 DRIVER_GET_EXPORT_STATE_3D:MASK. This code is stubbed!
 DRIVER_SET_IMPORT_STATE_3D:SWHEAT. This code is stubbed!
 cg2d: Sum(rhs),rhsMax =  -9.77706804405898E-12  1.40008823935431E+00
(PID.TID 0001.0001)                    cg2d_init_res =    1.39238097034001E-01
(PID.TID 0001.0001)                       cg2d_iters =    60
(PID.TID 0001.0001)                         cg2d_res =    5.67079546651232E-07
(PID.TID 0001.0001) // =======================================================
(PID.TID 0001.0001) // Begin MONITOR dynamic field statistics
(PID.TID 0001.0001) // =======================================================
(PID.TID 0001.0001) %MON time_tsnumber                =                 72048
(PID.TID 0001.0001) %MON time_secondsf                =   6.2249472000000E+09
(PID.TID 0001.0001) %MON dynstat_eta_max              =   8.7513759907614E-01
(PID.TID 0001.0001) %MON dynstat_eta_min              =  -1.5980004686282E+00
(PID.TID 0001.0001) %MON dynstat_eta_mean             =   1.4537490528578E-14
(PID.TID 0001.0001) %MON dynstat_eta_sd               =   5.9608050994012E-01
(PID.TID 0001.0001) %MON dynstat_eta_del2             =   1.1390368535814E-02
(PID.TID 0001.0001) %MON dynstat_uvel_max             =   1.7417165020623E-01
(PID.TID 0001.0001) %MON dynstat_uvel_min             =  -2.6130174048170E-01
(PID.TID 0001.0001) %MON dynstat_uvel_mean            =  -4.6626006603830E-04
(PID.TID 0001.0001) %MON dynstat_uvel_sd              =   1.1994303226551E-02
(PID.TID 0001.0001) %MON dynstat_uvel_del2            =   1.5749386391933E-03
(PID.TID 0001.0001) %MON dynstat_vvel_max             =   1.8007342480637E-01
(PID.TID 0001.0001) %MON dynstat_vvel_min             =  -2.2314009318087E-01
(PID.TID 0001.0001) %MON dynstat_vvel_mean            =  -3.8098890913684E-04
(PID.TID 0001.0001) %MON dynstat_vvel_sd              =   1.2582214963827E-02
(PID.TID 0001.0001) %MON dynstat_vvel_del2            =   1.5900928441377E-03
(PID.TID 0001.0001) %MON dynstat_wvel_max             =   1.0360719707139E-04
(PID.TID 0001.0001) %MON dynstat_wvel_min             =  -1.9950991841859E-04
(PID.TID 0001.0001) %MON dynstat_wvel_mean            =   6.9482861679761E-11
(PID.TID 0001.0001) %MON dynstat_wvel_sd              =   3.6583978558544E-06
(PID.TID 0001.0001) %MON dynstat_wvel_del2            =   8.3803257833784E-07
(PID.TID 0001.0001) %MON dynstat_theta_max            =   3.1235532952145E+01
(PID.TID 0001.0001) %MON dynstat_theta_min            =  -3.9280796852380E+00
(PID.TID 0001.0001) %MON dynstat_theta_mean           =   3.9120950255018E+00
(PID.TID 0001.0001) %MON dynstat_theta_sd             =   4.5796511552027E+00
(PID.TID 0001.0001) %MON dynstat_theta_del2           =   8.8799752685861E-02
(PID.TID 0001.0001) %MON dynstat_salt_max             =   4.1415500863274E+01
(PID.TID 0001.0001) %MON dynstat_salt_min             =   1.8414081115493E+01
(PID.TID 0001.0001) %MON dynstat_salt_mean            =   3.4772104685346E+01
(PID.TID 0001.0001) %MON dynstat_salt_sd              =   5.3130932996339E-01
(PID.TID 0001.0001) %MON dynstat_salt_del2            =   1.8887688491787E-02
(PID.TID 0001.0001) %MON dynstat_sst_max              =   3.1235532952145E+01
(PID.TID 0001.0001) %MON dynstat_sst_min              =  -1.9937736680146E+00
(PID.TID 0001.0001) %MON dynstat_sst_mean             =   1.8358576166312E+01
(PID.TID 0001.0001) %MON dynstat_sst_sd               =   9.8137852616104E+00
(PID.TID 0001.0001) %MON dynstat_sst_del2             =   2.1379493922262E-01
(PID.TID 0001.0001) %MON dynstat_sss_max              =   4.1415500863274E+01
(PID.TID 0001.0001) %MON dynstat_sss_min              =   1.8414081115493E+01
(PID.TID 0001.0001) %MON dynstat_sss_mean             =   3.4620834245796E+01
(PID.TID 0001.0001) %MON dynstat_sss_sd               =   1.4580274789801E+00
(PID.TID 0001.0001) %MON dynstat_sss_del2             =   8.0333308464128E-02
(PID.TID 0001.0001) %MON extforcing_qnet_max          =   3.8916573507537E+02
(PID.TID 0001.0001) %MON extforcing_qnet_min          =  -1.8729790836006E+02
(PID.TID 0001.0001) %MON extforcing_qnet_mean         =  -1.3292547689957E+01
(PID.TID 0001.0001) %MON extforcing_qnet_sd           =   8.4232910607793E+01
(PID.TID 0001.0001) %MON extforcing_qnet_del2         =   4.9375069016563E+00
(PID.TID 0001.0001) %MON extforcing_qsw_max           =   0.0000000000000E+00
(PID.TID 0001.0001) %MON extforcing_qsw_min           =   0.0000000000000E+00
(PID.TID 0001.0001) %MON extforcing_qsw_mean          =   0.0000000000000E+00
(PID.TID 0001.0001) %MON extforcing_qsw_sd            =   0.0000000000000E+00
(PID.TID 0001.0001) %MON extforcing_qsw_del2          =   0.0000000000000E+00
(PID.TID 0001.0001) %MON extforcing_empmr_max         =   7.6494447208479E-08
(PID.TID 0001.0001) %MON extforcing_empmr_min         =  -1.5362614137596E-07
(PID.TID 0001.0001) %MON extforcing_empmr_mean        =  -2.0474999028391E-24
(PID.TID 0001.0001) %MON extforcing_empmr_sd          =   2.4051723601802E-08
(PID.TID 0001.0001) %MON extforcing_empmr_del2        =   1.2835223797615E-09
(PID.TID 0001.0001) %MON extforcing_fu_max            =   2.6817838932182E-01
(PID.TID 0001.0001) %MON extforcing_fu_min            =  -2.4316288542792E-01
(PID.TID 0001.0001) %MON extforcing_fu_mean           =  -5.1138918397696E-03
(PID.TID 0001.0001) %MON extforcing_fu_sd             =   6.5664282213300E-02
(PID.TID 0001.0001) %MON extforcing_fu_del2           =   3.0686177614499E-03
(PID.TID 0001.0001) %MON extforcing_fv_max            =   2.8175989568288E-01
(PID.TID 0001.0001) %MON extforcing_fv_min            =  -3.0944770283141E-01
(PID.TID 0001.0001) %MON extforcing_fv_mean           =  -1.3621617345390E-02
(PID.TID 0001.0001) %MON extforcing_fv_sd             =   7.5982074048756E-02
(PID.TID 0001.0001) %MON extforcing_fv_del2           =   3.3173280648646E-03
(PID.TID 0001.0001) %MON advcfl_uvel_max              =   7.4110130151410E-02
(PID.TID 0001.0001) %MON advcfl_vvel_max              =   7.8491468960117E-02
(PID.TID 0001.0001) %MON advcfl_wvel_max              =   6.5047762080626E-02
(PID.TID 0001.0001) %MON advcfl_W_hf_max              =   8.0205924673205E-02
(PID.TID 0001.0001) %MON pe_b_mean                    =   4.7334121007205E-04
(PID.TID 0001.0001) %MON ke_max                       =   3.5273855321893E-02
(PID.TID 0001.0001) %MON ke_mean                      =   1.3970480774948E-04
(PID.TID 0001.0001) %MON ke_vol                       =   1.3398024453628E+18
(PID.TID 0001.0001) %MON vort_r_min                   =  -1.3331988367524E-06
(PID.TID 0001.0001) %MON vort_r_max                   =   1.1618519962980E-06
(PID.TID 0001.0001) %MON vort_a_mean                  =  -2.0493733748264E-05
(PID.TID 0001.0001) %MON vort_a_sd                    =   7.5053947584828E-05
(PID.TID 0001.0001) %MON vort_p_mean                  =  -2.4715772094535E-05
(PID.TID 0001.0001) %MON vort_p_sd                    =   1.2777057543284E-04
(PID.TID 0001.0001) %MON surfExpan_theta_mean         =   5.2313766272494E-08
(PID.TID 0001.0001) %MON surfExpan_salt_mean          =   1.4927976170458E-08
(PID.TID 0001.0001) // =======================================================
(PID.TID 0001.0001) // End MONITOR dynamic field statistics
(PID.TID 0001.0001) // =======================================================
 DRIVER_GET_EXPORT_STATE_3D:MASK. This code is stubbed!
 DRIVER_SET_IMPORT_STATE_3D:SWHEAT. This code is stubbed!
 cg2d: Sum(rhs),rhsMax =  -9.43600753089413E-12  1.40042941825551E+00
(PID.TID 0001.0001)                    cg2d_init_res =    1.37960859642754E-01
(PID.TID 0001.0001)                       cg2d_iters =    60
(PID.TID 0001.0001)                         cg2d_res =    5.48591769066937E-07
(PID.TID 0001.0001) // =======================================================
(PID.TID 0001.0001) // Begin MONITOR dynamic field statistics
(PID.TID 0001.0001) // =======================================================
(PID.TID 0001.0001) %MON time_tsnumber                =                 72049
(PID.TID 0001.0001) %MON time_secondsf                =   6.2250336000000E+09
(PID.TID 0001.0001) %MON dynstat_eta_max              =   8.7489170517019E-01
(PID.TID 0001.0001) %MON dynstat_eta_min              =  -1.5980328772965E+00
(PID.TID 0001.0001) %MON dynstat_eta_mean             =   1.4070312194011E-14
(PID.TID 0001.0001) %MON dynstat_eta_sd               =   5.9604931184589E-01
(PID.TID 0001.0001) %MON dynstat_eta_del2             =   1.1394529549909E-02
(PID.TID 0001.0001) %MON dynstat_uvel_max             =   1.7452822652751E-01
(PID.TID 0001.0001) %MON dynstat_uvel_min             =  -2.6058584227038E-01
(PID.TID 0001.0001) %MON dynstat_uvel_mean            =  -4.6580447518118E-04
(PID.TID 0001.0001) %MON dynstat_uvel_sd              =   1.1990402088995E-02
(PID.TID 0001.0001) %MON dynstat_uvel_del2            =   1.5751969328787E-03
(PID.TID 0001.0001) %MON dynstat_vvel_max             =   1.7914349687460E-01
(PID.TID 0001.0001) %MON dynstat_vvel_min             =  -2.2316524702636E-01
(PID.TID 0001.0001) %MON dynstat_vvel_mean            =  -3.8039478261792E-04
(PID.TID 0001.0001) %MON dynstat_vvel_sd              =   1.2583944192406E-02
(PID.TID 0001.0001) %MON dynstat_vvel_del2            =   1.5906041384761E-03
(PID.TID 0001.0001) %MON dynstat_wvel_max             =   1.0367148429944E-04
(PID.TID 0001.0001) %MON dynstat_wvel_min             =  -1.9976207471747E-04
(PID.TID 0001.0001) %MON dynstat_wvel_mean            =   6.0847775737781E-11
(PID.TID 0001.0001) %MON dynstat_wvel_sd              =   3.6543153932526E-06
(PID.TID 0001.0001) %MON dynstat_wvel_del2            =   8.3783996624217E-07
(PID.TID 0001.0001) %MON dynstat_theta_max            =   3.1234319991492E+01
(PID.TID 0001.0001) %MON dynstat_theta_min            =  -3.9449682949706E+00
(PID.TID 0001.0001) %MON dynstat_theta_mean           =   3.9121538769994E+00
(PID.TID 0001.0001) %MON dynstat_theta_sd             =   4.5799549883962E+00
(PID.TID 0001.0001) %MON dynstat_theta_del2           =   8.8871147401740E-02
(PID.TID 0001.0001) %MON dynstat_salt_max             =   4.1416208585331E+01
(PID.TID 0001.0001) %MON dynstat_salt_min             =   1.8414473104893E+01
(PID.TID 0001.0001) %MON dynstat_salt_mean            =   3.4772105751322E+01
(PID.TID 0001.0001) %MON dynstat_salt_sd              =   5.3130430572189E-01
(PID.TID 0001.0001) %MON dynstat_salt_del2            =   1.8898378517747E-02
(PID.TID 0001.0001) %MON dynstat_sst_max              =   3.1234319991492E+01
(PID.TID 0001.0001) %MON dynstat_sst_min              =  -1.9917644358187E+00
(PID.TID 0001.0001) %MON dynstat_sst_mean             =   1.8363753772020E+01
(PID.TID 0001.0001) %MON dynstat_sst_sd               =   9.8182498394037E+00
(PID.TID 0001.0001) %MON dynstat_sst_del2             =   2.1410067736246E-01
(PID.TID 0001.0001) %MON dynstat_sss_max              =   4.1416208585331E+01
(PID.TID 0001.0001) %MON dynstat_sss_min              =   1.8414473104893E+01
(PID.TID 0001.0001) %MON dynstat_sss_mean             =   3.4620798275370E+01
(PID.TID 0001.0001) %MON dynstat_sss_sd               =   1.4578703623430E+00
(PID.TID 0001.0001) %MON dynstat_sss_del2             =   8.0383640150324E-02
(PID.TID 0001.0001) %MON extforcing_qnet_max          =   3.8378119032672E+02
(PID.TID 0001.0001) %MON extforcing_qnet_min          =  -1.8599376156564E+02
(PID.TID 0001.0001) %MON extforcing_qnet_mean         =  -1.3089229543962E+01
(PID.TID 0001.0001) %MON extforcing_qnet_sd           =   8.2971788215818E+01
(PID.TID 0001.0001) %MON extforcing_qnet_del2         =   4.9103285940114E+00
(PID.TID 0001.0001) %MON extforcing_qsw_max           =   0.0000000000000E+00
(PID.TID 0001.0001) %MON extforcing_qsw_min           =   0.0000000000000E+00
(PID.TID 0001.0001) %MON extforcing_qsw_mean          =   0.0000000000000E+00
(PID.TID 0001.0001) %MON extforcing_qsw_sd            =   0.0000000000000E+00
(PID.TID 0001.0001) %MON extforcing_qsw_del2          =   0.0000000000000E+00
(PID.TID 0001.0001) %MON extforcing_empmr_max         =   7.6494447208479E-08
(PID.TID 0001.0001) %MON extforcing_empmr_min         =  -1.5362614137596E-07
(PID.TID 0001.0001) %MON extforcing_empmr_mean        =  -1.6379999222713E-24
(PID.TID 0001.0001) %MON extforcing_empmr_sd          =   2.4051723601802E-08
(PID.TID 0001.0001) %MON extforcing_empmr_del2        =   1.2835223797615E-09
(PID.TID 0001.0001) %MON extforcing_fu_max            =   2.6654913199001E-01
(PID.TID 0001.0001) %MON extforcing_fu_min            =  -2.4507816974223E-01
(PID.TID 0001.0001) %MON extforcing_fu_mean           =  -5.2387082289897E-03
(PID.TID 0001.0001) %MON extforcing_fu_sd             =   6.5646100358025E-02
(PID.TID 0001.0001) %MON extforcing_fu_del2           =   3.0316326676124E-03
(PID.TID 0001.0001) %MON extforcing_fv_max            =   2.7926737518924E-01
(PID.TID 0001.0001) %MON extforcing_fv_min            =  -3.0984648501574E-01
(PID.TID 0001.0001) %MON extforcing_fv_mean           =  -1.3586948366401E-02
(PID.TID 0001.0001) %MON extforcing_fv_sd             =   7.5872222289808E-02
(PID.TID 0001.0001) %MON extforcing_fv_del2           =   3.2809461072639E-03
(PID.TID 0001.0001) %MON advcfl_uvel_max              =   7.3907087839032E-02
(PID.TID 0001.0001) %MON advcfl_vvel_max              =   7.8086126475682E-02
(PID.TID 0001.0001) %MON advcfl_wvel_max              =   6.5129974549393E-02
(PID.TID 0001.0001) %MON advcfl_W_hf_max              =   8.0307304404656E-02
(PID.TID 0001.0001) %MON pe_b_mean                    =   4.7329166321730E-04
(PID.TID 0001.0001) %MON ke_max                       =   3.5240347200118E-02
(PID.TID 0001.0001) %MON ke_mean                      =   1.3968160424440E-04
(PID.TID 0001.0001) %MON ke_vol                       =   1.3398024453628E+18
(PID.TID 0001.0001) %MON vort_r_min                   =  -1.3337609612824E-06
(PID.TID 0001.0001) %MON vort_r_max                   =   1.1590969203524E-06
(PID.TID 0001.0001) %MON vort_a_mean                  =  -2.0493733748264E-05
(PID.TID 0001.0001) %MON vort_a_sd                    =   7.5053947782530E-05
(PID.TID 0001.0001) %MON vort_p_mean                  =  -2.4715772086181E-05
(PID.TID 0001.0001) %MON vort_p_sd                    =   1.2777056765366E-04
(PID.TID 0001.0001) %MON surfExpan_theta_mean         =   5.3196994513354E-08
(PID.TID 0001.0001) %MON surfExpan_salt_mean          =   1.4960724898969E-08
(PID.TID 0001.0001) // =======================================================
(PID.TID 0001.0001) // End MONITOR dynamic field statistics
(PID.TID 0001.0001) // =======================================================
 DRIVER_GET_EXPORT_STATE_3D:MASK. This code is stubbed!
 DRIVER_SET_IMPORT_STATE_3D:SWHEAT. This code is stubbed!
 cg2d: Sum(rhs),rhsMax =  -9.80548975348938E-12  1.40098824491545E+00
(PID.TID 0001.0001)                    cg2d_init_res =    1.36786900783741E-01
(PID.TID 0001.0001)                       cg2d_iters =    60
(PID.TID 0001.0001)                         cg2d_res =    5.29241280816073E-07
(PID.TID 0001.0001) // =======================================================
(PID.TID 0001.0001) // Begin MONITOR dynamic field statistics
(PID.TID 0001.0001) // =======================================================
(PID.TID 0001.0001) %MON time_tsnumber                =                 72050
(PID.TID 0001.0001) %MON time_secondsf                =   6.2251200000000E+09
(PID.TID 0001.0001) %MON dynstat_eta_max              =   8.7467591942714E-01
(PID.TID 0001.0001) %MON dynstat_eta_min              =  -1.5980979185819E+00
(PID.TID 0001.0001) %MON dynstat_eta_mean             =   1.4482528371570E-14
(PID.TID 0001.0001) %MON dynstat_eta_sd               =   5.9602672440364E-01
(PID.TID 0001.0001) %MON dynstat_eta_del2             =   1.1398342998952E-02
(PID.TID 0001.0001) %MON dynstat_uvel_max             =   1.7495019180456E-01
(PID.TID 0001.0001) %MON dynstat_uvel_min             =  -2.5987364968169E-01
(PID.TID 0001.0001) %MON dynstat_uvel_mean            =  -4.6533428167289E-04
(PID.TID 0001.0001) %MON dynstat_uvel_sd              =   1.1985916377562E-02
(PID.TID 0001.0001) %MON dynstat_uvel_del2            =   1.5754804570504E-03
(PID.TID 0001.0001) %MON dynstat_vvel_max             =   1.7812201144454E-01
(PID.TID 0001.0001) %MON dynstat_vvel_min             =  -2.2318603126458E-01
(PID.TID 0001.0001) %MON dynstat_vvel_mean            =  -3.7984371898070E-04
(PID.TID 0001.0001) %MON dynstat_vvel_sd              =   1.2586090442312E-02
(PID.TID 0001.0001) %MON dynstat_vvel_del2            =   1.5910727727159E-03
(PID.TID 0001.0001) %MON dynstat_wvel_max             =   1.0378614767268E-04
(PID.TID 0001.0001) %MON dynstat_wvel_min             =  -1.9999424257760E-04
(PID.TID 0001.0001) %MON dynstat_wvel_mean            =   3.7251442953255E-11
(PID.TID 0001.0001) %MON dynstat_wvel_sd              =   3.6501495728342E-06
(PID.TID 0001.0001) %MON dynstat_wvel_del2            =   8.3769764260144E-07
(PID.TID 0001.0001) %MON dynstat_theta_max            =   3.1233432046421E+01
(PID.TID 0001.0001) %MON dynstat_theta_min            =  -3.9613923060791E+00
(PID.TID 0001.0001) %MON dynstat_theta_mean           =   3.9122104594103E+00
(PID.TID 0001.0001) %MON dynstat_theta_sd             =   4.5802561970098E+00
(PID.TID 0001.0001) %MON dynstat_theta_del2           =   8.8940813953525E-02
(PID.TID 0001.0001) %MON dynstat_salt_max             =   4.1416931248664E+01
(PID.TID 0001.0001) %MON dynstat_salt_min             =   1.8414849008633E+01
(PID.TID 0001.0001) %MON dynstat_salt_mean            =   3.4772106817628E+01
(PID.TID 0001.0001) %MON dynstat_salt_sd              =   5.3129934025915E-01
(PID.TID 0001.0001) %MON dynstat_salt_del2            =   1.8906923592748E-02
(PID.TID 0001.0001) %MON dynstat_sst_max              =   3.1233432046421E+01
(PID.TID 0001.0001) %MON dynstat_sst_min              =  -1.9898530942807E+00
(PID.TID 0001.0001) %MON dynstat_sst_mean             =   1.8368687616026E+01
(PID.TID 0001.0001) %MON dynstat_sst_sd               =   9.8228879565542E+00
(PID.TID 0001.0001) %MON dynstat_sst_del2             =   2.1438604272443E-01
(PID.TID 0001.0001) %MON dynstat_sss_max              =   4.1416931248664E+01
(PID.TID 0001.0001) %MON dynstat_sss_min              =   1.8414849008633E+01
(PID.TID 0001.0001) %MON dynstat_sss_mean             =   3.4620765138075E+01
(PID.TID 0001.0001) %MON dynstat_sss_sd               =   1.4576838711724E+00
(PID.TID 0001.0001) %MON dynstat_sss_del2             =   8.0419589102705E-02
(PID.TID 0001.0001) %MON extforcing_qnet_max          =   3.7839664557807E+02
(PID.TID 0001.0001) %MON extforcing_qnet_min          =  -1.8468961477123E+02
(PID.TID 0001.0001) %MON extforcing_qnet_mean         =  -1.2885911397967E+01
(PID.TID 0001.0001) %MON extforcing_qnet_sd           =   8.1730846037920E+01
(PID.TID 0001.0001) %MON extforcing_qnet_del2         =   4.8855778427420E+00
(PID.TID 0001.0001) %MON extforcing_qsw_max           =   0.0000000000000E+00
(PID.TID 0001.0001) %MON extforcing_qsw_min           =   0.0000000000000E+00
(PID.TID 0001.0001) %MON extforcing_qsw_mean          =   0.0000000000000E+00
(PID.TID 0001.0001) %MON extforcing_qsw_sd            =   0.0000000000000E+00
(PID.TID 0001.0001) %MON extforcing_qsw_del2          =   0.0000000000000E+00
(PID.TID 0001.0001) %MON extforcing_empmr_max         =   7.6494447208479E-08
(PID.TID 0001.0001) %MON extforcing_empmr_min         =  -1.5362614137596E-07
(PID.TID 0001.0001) %MON extforcing_empmr_mean        =  -2.0474999028391E-24
(PID.TID 0001.0001) %MON extforcing_empmr_sd          =   2.4051723601802E-08
(PID.TID 0001.0001) %MON extforcing_empmr_del2        =   1.2835223797615E-09
(PID.TID 0001.0001) %MON extforcing_fu_max            =   2.6534204091263E-01
(PID.TID 0001.0001) %MON extforcing_fu_min            =  -2.4699345405653E-01
(PID.TID 0001.0001) %MON extforcing_fu_mean           =  -5.3635268521975E-03
(PID.TID 0001.0001) %MON extforcing_fu_sd             =   6.5643530929380E-02
(PID.TID 0001.0001) %MON extforcing_fu_del2           =   2.9977064931866E-03
(PID.TID 0001.0001) %MON extforcing_fv_max            =   2.7677485469560E-01
(PID.TID 0001.0001) %MON extforcing_fv_min            =  -3.1024526720007E-01
(PID.TID 0001.0001) %MON extforcing_fv_mean           =  -1.3552280600457E-02
(PID.TID 0001.0001) %MON extforcing_fv_sd             =   7.5782929885559E-02
(PID.TID 0001.0001) %MON extforcing_fv_del2           =   3.2475673538201E-03
(PID.TID 0001.0001) %MON advcfl_uvel_max              =   7.3705096511523E-02
(PID.TID 0001.0001) %MON advcfl_vvel_max              =   7.7640875367626E-02
(PID.TID 0001.0001) %MON advcfl_wvel_max              =   6.5205670032849E-02
(PID.TID 0001.0001) %MON advcfl_W_hf_max              =   8.0400645384248E-02
(PID.TID 0001.0001) %MON pe_b_mean                    =   4.7325579287793E-04
(PID.TID 0001.0001) %MON ke_max                       =   3.5207227893966E-02
(PID.TID 0001.0001) %MON ke_mean                      =   1.3965685915272E-04
(PID.TID 0001.0001) %MON ke_vol                       =   1.3398024453628E+18
(PID.TID 0001.0001) %MON vort_r_min                   =  -1.3342464318100E-06
(PID.TID 0001.0001) %MON vort_r_max                   =   1.1567106133314E-06
(PID.TID 0001.0001) %MON vort_a_mean                  =  -2.0493733748264E-05
(PID.TID 0001.0001) %MON vort_a_sd                    =   7.5053947982054E-05
(PID.TID 0001.0001) %MON vort_p_mean                  =  -2.4715772083023E-05
(PID.TID 0001.0001) %MON vort_p_sd                    =   1.2777056041170E-04
(PID.TID 0001.0001) %MON surfExpan_theta_mean         =   5.4073882267631E-08
(PID.TID 0001.0001) %MON surfExpan_salt_mean          =   1.5022852203792E-08
(PID.TID 0001.0001) // =======================================================
(PID.TID 0001.0001) // End MONITOR dynamic field statistics
(PID.TID 0001.0001) // =======================================================
 DRIVER_GET_EXPORT_STATE_3D:MASK. This code is stubbed!
 DRIVER_SET_IMPORT_STATE_3D:SWHEAT. This code is stubbed!
 cg2d: Sum(rhs),rhsMax =  -9.97602001007181E-12  1.40104078213369E+00
(PID.TID 0001.0001)                    cg2d_init_res =    1.35579629394575E-01
(PID.TID 0001.0001)                       cg2d_iters =    60
(PID.TID 0001.0001)                         cg2d_res =    5.03262876037060E-07
(PID.TID 0001.0001) // =======================================================
(PID.TID 0001.0001) // Begin MONITOR dynamic field statistics
(PID.TID 0001.0001) // =======================================================
(PID.TID 0001.0001) %MON time_tsnumber                =                 72051
(PID.TID 0001.0001) %MON time_secondsf                =   6.2252064000000E+09
(PID.TID 0001.0001) %MON dynstat_eta_max              =   8.7450272865330E-01
(PID.TID 0001.0001) %MON dynstat_eta_min              =  -1.5981918147272E+00
(PID.TID 0001.0001) %MON dynstat_eta_mean             =   1.4372604057554E-14
(PID.TID 0001.0001) %MON dynstat_eta_sd               =   5.9601586387203E-01
(PID.TID 0001.0001) %MON dynstat_eta_del2             =   1.1401598022687E-02
(PID.TID 0001.0001) %MON dynstat_uvel_max             =   1.7543405700447E-01
(PID.TID 0001.0001) %MON dynstat_uvel_min             =  -2.5916534727215E-01
(PID.TID 0001.0001) %MON dynstat_uvel_mean            =  -4.6483695329676E-04
(PID.TID 0001.0001) %MON dynstat_uvel_sd              =   1.1980836276349E-02
(PID.TID 0001.0001) %MON dynstat_uvel_del2            =   1.5757533049130E-03
(PID.TID 0001.0001) %MON dynstat_vvel_max             =   1.7701916830904E-01
(PID.TID 0001.0001) %MON dynstat_vvel_min             =  -2.2320239029571E-01
(PID.TID 0001.0001) %MON dynstat_vvel_mean            =  -3.7934121324485E-04
(PID.TID 0001.0001) %MON dynstat_vvel_sd              =   1.2588646909369E-02
(PID.TID 0001.0001) %MON dynstat_vvel_del2            =   1.5915850372985E-03
(PID.TID 0001.0001) %MON dynstat_wvel_max             =   1.0394794982865E-04
(PID.TID 0001.0001) %MON dynstat_wvel_min             =  -2.0020238106587E-04
(PID.TID 0001.0001) %MON dynstat_wvel_mean            =   4.2577519406031E-12
(PID.TID 0001.0001) %MON dynstat_wvel_sd              =   3.6458611643092E-06
(PID.TID 0001.0001) %MON dynstat_wvel_del2            =   8.3758334751197E-07
(PID.TID 0001.0001) %MON dynstat_theta_max            =   3.1232860434909E+01
(PID.TID 0001.0001) %MON dynstat_theta_min            =  -3.9773397961810E+00
(PID.TID 0001.0001) %MON dynstat_theta_mean           =   3.9122648707644E+00
(PID.TID 0001.0001) %MON dynstat_theta_sd             =   4.5805547670159E+00
(PID.TID 0001.0001) %MON dynstat_theta_del2           =   8.9010003872844E-02
(PID.TID 0001.0001) %MON dynstat_salt_max             =   4.1417667136092E+01
(PID.TID 0001.0001) %MON dynstat_salt_min             =   1.8415208314733E+01
(PID.TID 0001.0001) %MON dynstat_salt_mean            =   3.4772107884392E+01
(PID.TID 0001.0001) %MON dynstat_salt_sd              =   5.3129438892538E-01
(PID.TID 0001.0001) %MON dynstat_salt_del2            =   1.8913785261135E-02
(PID.TID 0001.0001) %MON dynstat_sst_max              =   3.1232860434909E+01
(PID.TID 0001.0001) %MON dynstat_sst_min              =  -1.9880461198721E+00
(PID.TID 0001.0001) %MON dynstat_sst_mean             =   1.8373320922189E+01
(PID.TID 0001.0001) %MON dynstat_sst_sd               =   9.8277338698355E+00
(PID.TID 0001.0001) %MON dynstat_sst_del2             =   2.1468036907604E-01
(PID.TID 0001.0001) %MON dynstat_sss_max              =   4.1417667136092E+01
(PID.TID 0001.0001) %MON dynstat_sss_min              =   1.8415208314733E+01
(PID.TID 0001.0001) %MON dynstat_sss_mean             =   3.4620727727369E+01
(PID.TID 0001.0001) %MON dynstat_sss_sd               =   1.4575041557957E+00
(PID.TID 0001.0001) %MON dynstat_sss_del2             =   8.0447393939190E-02
(PID.TID 0001.0001) %MON extforcing_qnet_max          =   3.7301210082942E+02
(PID.TID 0001.0001) %MON extforcing_qnet_min          =  -1.8338546797681E+02
(PID.TID 0001.0001) %MON extforcing_qnet_mean         =  -1.2682593251972E+01
(PID.TID 0001.0001) %MON extforcing_qnet_sd           =   8.0511017211878E+01
(PID.TID 0001.0001) %MON extforcing_qnet_del2         =   4.8621380300133E+00
(PID.TID 0001.0001) %MON extforcing_qsw_max           =   0.0000000000000E+00
(PID.TID 0001.0001) %MON extforcing_qsw_min           =   0.0000000000000E+00
(PID.TID 0001.0001) %MON extforcing_qsw_mean          =   0.0000000000000E+00
(PID.TID 0001.0001) %MON extforcing_qsw_sd            =   0.0000000000000E+00
(PID.TID 0001.0001) %MON extforcing_qsw_del2          =   0.0000000000000E+00
(PID.TID 0001.0001) %MON extforcing_empmr_max         =   7.6494447208479E-08
(PID.TID 0001.0001) %MON extforcing_empmr_min         =  -1.5362614137596E-07
(PID.TID 0001.0001) %MON extforcing_empmr_mean        =  -2.0474999028391E-24
(PID.TID 0001.0001) %MON extforcing_empmr_sd          =   2.4051723601802E-08
(PID.TID 0001.0001) %MON extforcing_empmr_del2        =   1.2835223797615E-09
(PID.TID 0001.0001) %MON extforcing_fu_max            =   2.6413494983525E-01
(PID.TID 0001.0001) %MON extforcing_fu_min            =  -2.4890873837084E-01
(PID.TID 0001.0001) %MON extforcing_fu_mean           =  -5.4883483286334E-03
(PID.TID 0001.0001) %MON extforcing_fu_sd             =   6.5656576338472E-02
(PID.TID 0001.0001) %MON extforcing_fu_del2           =   2.9672376146050E-03
(PID.TID 0001.0001) %MON extforcing_fv_max            =   2.7445865834269E-01
(PID.TID 0001.0001) %MON extforcing_fv_min            =  -3.1064404938440E-01
(PID.TID 0001.0001) %MON extforcing_fv_mean           =  -1.3517613969438E-02
(PID.TID 0001.0001) %MON extforcing_fv_sd             =   7.5714270547031E-02
(PID.TID 0001.0001) %MON extforcing_fv_del2           =   3.2165256971016E-03
(PID.TID 0001.0001) %MON advcfl_uvel_max              =   7.3504208512608E-02
(PID.TID 0001.0001) %MON advcfl_vvel_max              =   7.7160161581950E-02
(PID.TID 0001.0001) %MON advcfl_wvel_max              =   6.5273531034306E-02
(PID.TID 0001.0001) %MON advcfl_W_hf_max              =   8.0484323735899E-02
(PID.TID 0001.0001) %MON pe_b_mean                    =   4.7323854612553E-04
(PID.TID 0001.0001) %MON ke_max                       =   3.5174441137314E-02
(PID.TID 0001.0001) %MON ke_mean                      =   1.3963039127718E-04
(PID.TID 0001.0001) %MON ke_vol                       =   1.3398024453628E+18
(PID.TID 0001.0001) %MON vort_r_min                   =  -1.3346565268095E-06
(PID.TID 0001.0001) %MON vort_r_max                   =   1.1547200451618E-06
(PID.TID 0001.0001) %MON vort_a_mean                  =  -2.0493733748264E-05
(PID.TID 0001.0001) %MON vort_a_sd                    =   7.5053948185188E-05
(PID.TID 0001.0001) %MON vort_p_mean                  =  -2.4715772081381E-05
(PID.TID 0001.0001) %MON vort_p_sd                    =   1.2777055389117E-04
(PID.TID 0001.0001) %MON surfExpan_theta_mean         =   5.4956658215262E-08
(PID.TID 0001.0001) %MON surfExpan_salt_mean          =   1.5109725709963E-08
(PID.TID 0001.0001) // =======================================================
(PID.TID 0001.0001) // End MONITOR dynamic field statistics
(PID.TID 0001.0001) // =======================================================
 DRIVER_GET_EXPORT_STATE_3D:MASK. This code is stubbed!
 DRIVER_SET_IMPORT_STATE_3D:SWHEAT. This code is stubbed!
 cg2d: Sum(rhs),rhsMax =  -9.77706804405898E-12  1.40141289263279E+00
(PID.TID 0001.0001)                    cg2d_init_res =    1.34144932073642E-01
(PID.TID 0001.0001)                       cg2d_iters =    59
(PID.TID 0001.0001)                         cg2d_res =    5.77340446435860E-07
(PID.TID 0001.0001) // =======================================================
(PID.TID 0001.0001) // Begin MONITOR dynamic field statistics
(PID.TID 0001.0001) // =======================================================
(PID.TID 0001.0001) %MON time_tsnumber                =                 72052
(PID.TID 0001.0001) %MON time_secondsf                =   6.2252928000000E+09
(PID.TID 0001.0001) %MON dynstat_eta_max              =   8.7438090480133E-01
(PID.TID 0001.0001) %MON dynstat_eta_min              =  -1.5983102876196E+00
(PID.TID 0001.0001) %MON dynstat_eta_mean             =   1.4400085136058E-14
(PID.TID 0001.0001) %MON dynstat_eta_sd               =   5.9601900600880E-01
(PID.TID 0001.0001) %MON dynstat_eta_del2             =   1.1404130088506E-02
(PID.TID 0001.0001) %MON dynstat_uvel_max             =   1.7597571620422E-01
(PID.TID 0001.0001) %MON dynstat_uvel_min             =  -2.5846108527547E-01
(PID.TID 0001.0001) %MON dynstat_uvel_mean            =  -4.6430525815380E-04
(PID.TID 0001.0001) %MON dynstat_uvel_sd              =   1.1975167858911E-02
(PID.TID 0001.0001) %MON dynstat_uvel_del2            =   1.5759809145983E-03
(PID.TID 0001.0001) %MON dynstat_vvel_max             =   1.7584581131745E-01
(PID.TID 0001.0001) %MON dynstat_vvel_min             =  -2.2321424311393E-01
(PID.TID 0001.0001) %MON dynstat_vvel_mean            =  -3.7888375228481E-04
(PID.TID 0001.0001) %MON dynstat_vvel_sd              =   1.2591602432330E-02
(PID.TID 0001.0001) %MON dynstat_vvel_del2            =   1.5921069002693E-03
(PID.TID 0001.0001) %MON dynstat_wvel_max             =   1.0415296660500E-04
(PID.TID 0001.0001) %MON dynstat_wvel_min             =  -2.0038322595188E-04
(PID.TID 0001.0001) %MON dynstat_wvel_mean            =  -3.2494909912145E-11
(PID.TID 0001.0001) %MON dynstat_wvel_sd              =   3.6414188096523E-06
(PID.TID 0001.0001) %MON dynstat_wvel_del2            =   8.3756232166052E-07
(PID.TID 0001.0001) %MON dynstat_theta_max            =   3.1232595534637E+01
(PID.TID 0001.0001) %MON dynstat_theta_min            =  -3.9927718744168E+00
(PID.TID 0001.0001) %MON dynstat_theta_mean           =   3.9123171376522E+00
(PID.TID 0001.0001) %MON dynstat_theta_sd             =   4.5808507175311E+00
(PID.TID 0001.0001) %MON dynstat_theta_del2           =   8.9073930085810E-02
(PID.TID 0001.0001) %MON dynstat_salt_max             =   4.1418414966641E+01
(PID.TID 0001.0001) %MON dynstat_salt_min             =   1.8415550453508E+01
(PID.TID 0001.0001) %MON dynstat_salt_mean            =   3.4772108951931E+01
(PID.TID 0001.0001) %MON dynstat_salt_sd              =   5.3128943635793E-01
(PID.TID 0001.0001) %MON dynstat_salt_del2            =   1.8921674767012E-02
(PID.TID 0001.0001) %MON dynstat_sst_max              =   3.1232595534637E+01
(PID.TID 0001.0001) %MON dynstat_sst_min              =  -1.9863216121029E+00
(PID.TID 0001.0001) %MON dynstat_sst_mean             =   1.8377678877647E+01
(PID.TID 0001.0001) %MON dynstat_sst_sd               =   9.8327854893119E+00
(PID.TID 0001.0001) %MON dynstat_sst_del2             =   2.1491753218298E-01
(PID.TID 0001.0001) %MON dynstat_sss_max              =   4.1418414966641E+01
(PID.TID 0001.0001) %MON dynstat_sss_min              =   1.8415550453508E+01
(PID.TID 0001.0001) %MON dynstat_sss_mean             =   3.4620689711427E+01
(PID.TID 0001.0001) %MON dynstat_sss_sd               =   1.4573349564115E+00
(PID.TID 0001.0001) %MON dynstat_sss_del2             =   8.0462525531816E-02
(PID.TID 0001.0001) %MON extforcing_qnet_max          =   3.6762755608077E+02
(PID.TID 0001.0001) %MON extforcing_qnet_min          =  -1.8208132118239E+02
(PID.TID 0001.0001) %MON extforcing_qnet_mean         =  -1.2479275105978E+01
(PID.TID 0001.0001) %MON extforcing_qnet_sd           =   7.9313275906255E+01
(PID.TID 0001.0001) %MON extforcing_qnet_del2         =   4.8406512449366E+00
(PID.TID 0001.0001) %MON extforcing_qsw_max           =   0.0000000000000E+00
(PID.TID 0001.0001) %MON extforcing_qsw_min           =   0.0000000000000E+00
(PID.TID 0001.0001) %MON extforcing_qsw_mean          =   0.0000000000000E+00
(PID.TID 0001.0001) %MON extforcing_qsw_sd            =   0.0000000000000E+00
(PID.TID 0001.0001) %MON extforcing_qsw_del2          =   0.0000000000000E+00
(PID.TID 0001.0001) %MON extforcing_empmr_max         =   7.6494447208479E-08
(PID.TID 0001.0001) %MON extforcing_empmr_min         =  -1.5362614137596E-07
(PID.TID 0001.0001) %MON extforcing_empmr_mean        =  -1.6379999222713E-24
(PID.TID 0001.0001) %MON extforcing_empmr_sd          =   2.4051723601802E-08
(PID.TID 0001.0001) %MON extforcing_empmr_del2        =   1.2835223797615E-09
(PID.TID 0001.0001) %MON extforcing_fu_max            =   2.6292785875787E-01
(PID.TID 0001.0001) %MON extforcing_fu_min            =  -2.5082402268515E-01
(PID.TID 0001.0001) %MON extforcing_fu_mean           =  -5.6131728249665E-03
(PID.TID 0001.0001) %MON extforcing_fu_sd             =   6.5685227687513E-02
(PID.TID 0001.0001) %MON extforcing_fu_del2           =   2.9400497891626E-03
(PID.TID 0001.0001) %MON extforcing_fv_max            =   2.7241550355563E-01
(PID.TID 0001.0001) %MON extforcing_fv_min            =  -3.1104283156873E-01
(PID.TID 0001.0001) %MON extforcing_fv_mean           =  -1.3482948402876E-02
(PID.TID 0001.0001) %MON extforcing_fv_sd             =   7.5666301114492E-02
(PID.TID 0001.0001) %MON extforcing_fv_del2           =   3.1888823839677E-03
(PID.TID 0001.0001) %MON advcfl_uvel_max              =   7.3304466451426E-02
(PID.TID 0001.0001) %MON advcfl_vvel_max              =   7.6648711799823E-02
(PID.TID 0001.0001) %MON advcfl_wvel_max              =   6.5332493291479E-02
(PID.TID 0001.0001) %MON advcfl_W_hf_max              =   8.0557029044614E-02
(PID.TID 0001.0001) %MON pe_b_mean                    =   4.7324353587244E-04
(PID.TID 0001.0001) %MON ke_max                       =   3.5141923926468E-02
(PID.TID 0001.0001) %MON ke_mean                      =   1.3960214399405E-04
(PID.TID 0001.0001) %MON ke_vol                       =   1.3398024453628E+18
(PID.TID 0001.0001) %MON vort_r_min                   =  -1.3349926011647E-06
(PID.TID 0001.0001) %MON vort_r_max                   =   1.1531498546017E-06
(PID.TID 0001.0001) %MON vort_a_mean                  =  -2.0493733748264E-05
(PID.TID 0001.0001) %MON vort_a_sd                    =   7.5053948394866E-05
(PID.TID 0001.0001) %MON vort_p_mean                  =  -2.4715772078059E-05
(PID.TID 0001.0001) %MON vort_p_sd                    =   1.2777054824165E-04
(PID.TID 0001.0001) %MON surfExpan_theta_mean         =   5.5852148502661E-08
(PID.TID 0001.0001) %MON surfExpan_salt_mean          =   1.5215139287348E-08
(PID.TID 0001.0001) // =======================================================
(PID.TID 0001.0001) // End MONITOR dynamic field statistics
(PID.TID 0001.0001) // =======================================================
 DRIVER_GET_EXPORT_STATE_3D:MASK. This code is stubbed!
 DRIVER_SET_IMPORT_STATE_3D:SWHEAT. This code is stubbed!
 cg2d: Sum(rhs),rhsMax =  -9.37916411203332E-12  1.40118125965050E+00
(PID.TID 0001.0001)                    cg2d_init_res =    1.32720616554839E-01
(PID.TID 0001.0001)                       cg2d_iters =    59
(PID.TID 0001.0001)                         cg2d_res =    5.00753913633105E-07
(PID.TID 0001.0001) // =======================================================
(PID.TID 0001.0001) // Begin MONITOR dynamic field statistics
(PID.TID 0001.0001) // =======================================================
(PID.TID 0001.0001) %MON time_tsnumber                =                 72053
(PID.TID 0001.0001) %MON time_secondsf                =   6.2253792000000E+09
(PID.TID 0001.0001) %MON dynstat_eta_max              =   8.7431411657913E-01
(PID.TID 0001.0001) %MON dynstat_eta_min              =  -1.5984489091984E+00
(PID.TID 0001.0001) %MON dynstat_eta_mean             =   1.4619933764090E-14
(PID.TID 0001.0001) %MON dynstat_eta_sd               =   5.9603737205986E-01
(PID.TID 0001.0001) %MON dynstat_eta_del2             =   1.1406121230853E-02
(PID.TID 0001.0001) %MON dynstat_uvel_max             =   1.7657053099381E-01
(PID.TID 0001.0001) %MON dynstat_uvel_min             =  -2.5776101336552E-01
(PID.TID 0001.0001) %MON dynstat_uvel_mean            =  -4.6373518654275E-04
(PID.TID 0001.0001) %MON dynstat_uvel_sd              =   1.1968936317811E-02
(PID.TID 0001.0001) %MON dynstat_uvel_del2            =   1.5762477659238E-03
(PID.TID 0001.0001) %MON dynstat_vvel_max             =   1.7461308556753E-01
(PID.TID 0001.0001) %MON dynstat_vvel_min             =  -2.2322148586529E-01
(PID.TID 0001.0001) %MON dynstat_vvel_mean            =  -3.7846141591388E-04
(PID.TID 0001.0001) %MON dynstat_vvel_sd              =   1.2594937484531E-02
(PID.TID 0001.0001) %MON dynstat_vvel_del2            =   1.5926876791365E-03
(PID.TID 0001.0001) %MON dynstat_wvel_max             =   1.0439663745406E-04
(PID.TID 0001.0001) %MON dynstat_wvel_min             =  -2.0053419894333E-04
(PID.TID 0001.0001) %MON dynstat_wvel_mean            =  -7.0357397201888E-11
(PID.TID 0001.0001) %MON dynstat_wvel_sd              =   3.6368019920814E-06
(PID.TID 0001.0001) %MON dynstat_wvel_del2            =   8.3764970564322E-07
(PID.TID 0001.0001) %MON dynstat_theta_max            =   3.1232626934497E+01
(PID.TID 0001.0001) %MON dynstat_theta_min            =  -4.0076824999450E+00
(PID.TID 0001.0001) %MON dynstat_theta_mean           =   3.9123674114698E+00
(PID.TID 0001.0001) %MON dynstat_theta_sd             =   4.5811439963217E+00
(PID.TID 0001.0001) %MON dynstat_theta_del2           =   8.9128551512058E-02
(PID.TID 0001.0001) %MON dynstat_salt_max             =   4.1419173735279E+01
(PID.TID 0001.0001) %MON dynstat_salt_min             =   1.8415874753389E+01
(PID.TID 0001.0001) %MON dynstat_salt_mean            =   3.4772110020544E+01
(PID.TID 0001.0001) %MON dynstat_salt_sd              =   5.3128451417385E-01
(PID.TID 0001.0001) %MON dynstat_salt_del2            =   1.8926192991068E-02
(PID.TID 0001.0001) %MON dynstat_sst_max              =   3.1232626934497E+01
(PID.TID 0001.0001) %MON dynstat_sst_min              =  -1.9846767502352E+00
(PID.TID 0001.0001) %MON dynstat_sst_mean             =   1.8381785573473E+01
(PID.TID 0001.0001) %MON dynstat_sst_sd               =   9.8380083734783E+00
(PID.TID 0001.0001) %MON dynstat_sst_del2             =   2.1509246200198E-01
(PID.TID 0001.0001) %MON dynstat_sss_max              =   4.1419173735279E+01
(PID.TID 0001.0001) %MON dynstat_sss_min              =   1.8415874753389E+01
(PID.TID 0001.0001) %MON dynstat_sss_mean             =   3.4620657160274E+01
(PID.TID 0001.0001) %MON dynstat_sss_sd               =   1.4571748060148E+00
(PID.TID 0001.0001) %MON dynstat_sss_del2             =   8.0473170446333E-02
(PID.TID 0001.0001) %MON extforcing_qnet_max          =   3.6224301133212E+02
(PID.TID 0001.0001) %MON extforcing_qnet_min          =  -1.8077717438798E+02
(PID.TID 0001.0001) %MON extforcing_qnet_mean         =  -1.2275956959983E+01
(PID.TID 0001.0001) %MON extforcing_qnet_sd           =   7.8138637827555E+01
(PID.TID 0001.0001) %MON extforcing_qnet_del2         =   4.8206713759744E+00
(PID.TID 0001.0001) %MON extforcing_qsw_max           =   0.0000000000000E+00
(PID.TID 0001.0001) %MON extforcing_qsw_min           =   0.0000000000000E+00
(PID.TID 0001.0001) %MON extforcing_qsw_mean          =   0.0000000000000E+00
(PID.TID 0001.0001) %MON extforcing_qsw_sd            =   0.0000000000000E+00
(PID.TID 0001.0001) %MON extforcing_qsw_del2          =   0.0000000000000E+00
(PID.TID 0001.0001) %MON extforcing_empmr_max         =   7.6494447208479E-08
(PID.TID 0001.0001) %MON extforcing_empmr_min         =  -1.5362614137596E-07
(PID.TID 0001.0001) %MON extforcing_empmr_mean        =  -2.0474999028391E-24
(PID.TID 0001.0001) %MON extforcing_empmr_sd          =   2.4051723601802E-08
(PID.TID 0001.0001) %MON extforcing_empmr_del2        =   1.2835223797615E-09
(PID.TID 0001.0001) %MON extforcing_fu_max            =   2.6172076768049E-01
(PID.TID 0001.0001) %MON extforcing_fu_min            =  -2.5273930699945E-01
(PID.TID 0001.0001) %MON extforcing_fu_mean           =  -5.7380002448673E-03
(PID.TID 0001.0001) %MON extforcing_fu_sd             =   6.5729464791598E-02
(PID.TID 0001.0001) %MON extforcing_fu_del2           =   2.9165411944208E-03
(PID.TID 0001.0001) %MON extforcing_fv_max            =   2.7037234876857E-01
(PID.TID 0001.0001) %MON extforcing_fv_min            =  -3.1177782705636E-01
(PID.TID 0001.0001) %MON extforcing_fv_mean           =  -1.3448283876063E-02
(PID.TID 0001.0001) %MON extforcing_fv_sd             =   7.5639061334881E-02
(PID.TID 0001.0001) %MON extforcing_fv_del2           =   3.1637016501929E-03
(PID.TID 0001.0001) %MON advcfl_uvel_max              =   7.3105912778319E-02
(PID.TID 0001.0001) %MON advcfl_vvel_max              =   7.6111384012334E-02
(PID.TID 0001.0001) %MON advcfl_wvel_max              =   6.5381716183788E-02
(PID.TID 0001.0001) %MON advcfl_W_hf_max              =   8.0617726387950E-02
(PID.TID 0001.0001) %MON pe_b_mean                    =   4.7327270188482E-04
(PID.TID 0001.0001) %MON ke_max                       =   3.5109615287663E-02
(PID.TID 0001.0001) %MON ke_mean                      =   1.3957217346954E-04
(PID.TID 0001.0001) %MON ke_vol                       =   1.3398024453628E+18
(PID.TID 0001.0001) %MON vort_r_min                   =  -1.3352560680239E-06
(PID.TID 0001.0001) %MON vort_r_max                   =   1.1520199626471E-06
(PID.TID 0001.0001) %MON vort_a_mean                  =  -2.0493733748264E-05
(PID.TID 0001.0001) %MON vort_a_sd                    =   7.5053948614046E-05
(PID.TID 0001.0001) %MON vort_p_mean                  =  -2.4715772071271E-05
(PID.TID 0001.0001) %MON vort_p_sd                    =   1.2777054355967E-04
(PID.TID 0001.0001) %MON surfExpan_theta_mean         =   5.6727992915499E-08
(PID.TID 0001.0001) %MON surfExpan_salt_mean          =   1.5331674477502E-08
(PID.TID 0001.0001) // =======================================================
(PID.TID 0001.0001) // End MONITOR dynamic field statistics
(PID.TID 0001.0001) // =======================================================
 DRIVER_GET_EXPORT_STATE_3D:MASK. This code is stubbed!
 DRIVER_SET_IMPORT_STATE_3D:SWHEAT. This code is stubbed!
 cg2d: Sum(rhs),rhsMax =  -9.89075488178059E-12  1.40110452084075E+00
(PID.TID 0001.0001)                    cg2d_init_res =    1.31214272986402E-01
(PID.TID 0001.0001)                       cg2d_iters =    58
(PID.TID 0001.0001)                         cg2d_res =    5.08439868271910E-07
(PID.TID 0001.0001) // =======================================================
(PID.TID 0001.0001) // Begin MONITOR dynamic field statistics
(PID.TID 0001.0001) // =======================================================
(PID.TID 0001.0001) %MON time_tsnumber                =                 72054
(PID.TID 0001.0001) %MON time_secondsf                =   6.2254656000000E+09
(PID.TID 0001.0001) %MON dynstat_eta_max              =   8.7430066600115E-01
(PID.TID 0001.0001) %MON dynstat_eta_min              =  -1.5986035809914E+00
(PID.TID 0001.0001) %MON dynstat_eta_mean             =   1.4290160822043E-14
(PID.TID 0001.0001) %MON dynstat_eta_sd               =   5.9607131151781E-01
(PID.TID 0001.0001) %MON dynstat_eta_del2             =   1.1407419840672E-02
(PID.TID 0001.0001) %MON dynstat_uvel_max             =   1.7721339973956E-01
(PID.TID 0001.0001) %MON dynstat_uvel_min             =  -2.5706529061417E-01
(PID.TID 0001.0001) %MON dynstat_uvel_mean            =  -4.6312558445216E-04
(PID.TID 0001.0001) %MON dynstat_uvel_sd              =   1.1962182720312E-02
(PID.TID 0001.0001) %MON dynstat_uvel_del2            =   1.5764830978521E-03
(PID.TID 0001.0001) %MON dynstat_vvel_max             =   1.7333237701589E-01
(PID.TID 0001.0001) %MON dynstat_vvel_min             =  -2.2322399589880E-01
(PID.TID 0001.0001) %MON dynstat_vvel_mean            =  -3.7806150997792E-04
(PID.TID 0001.0001) %MON dynstat_vvel_sd              =   1.2598627023505E-02
(PID.TID 0001.0001) %MON dynstat_vvel_del2            =   1.5932073767336E-03
(PID.TID 0001.0001) %MON dynstat_wvel_max             =   1.0467383682360E-04
(PID.TID 0001.0001) %MON dynstat_wvel_min             =  -2.0065337889625E-04
(PID.TID 0001.0001) %MON dynstat_wvel_mean            =  -1.0747886187437E-10
(PID.TID 0001.0001) %MON dynstat_wvel_sd              =   3.6319958879562E-06
(PID.TID 0001.0001) %MON dynstat_wvel_del2            =   8.3775362474591E-07
(PID.TID 0001.0001) %MON dynstat_theta_max            =   3.1232943513946E+01
(PID.TID 0001.0001) %MON dynstat_theta_min            =  -4.0220291412061E+00
(PID.TID 0001.0001) %MON dynstat_theta_mean           =   3.9124157148897E+00
(PID.TID 0001.0001) %MON dynstat_theta_sd             =   4.5814344314847E+00
(PID.TID 0001.0001) %MON dynstat_theta_del2           =   8.9176377942610E-02
(PID.TID 0001.0001) %MON dynstat_salt_max             =   4.1419942638934E+01
(PID.TID 0001.0001) %MON dynstat_salt_min             =   1.8416180423017E+01
(PID.TID 0001.0001) %MON dynstat_salt_mean            =   3.4772111090448E+01
(PID.TID 0001.0001) %MON dynstat_salt_sd              =   5.3127950284591E-01
(PID.TID 0001.0001) %MON dynstat_salt_del2            =   1.8929797680961E-02
(PID.TID 0001.0001) %MON dynstat_sst_max              =   3.1232943513946E+01
(PID.TID 0001.0001) %MON dynstat_sst_min              =  -1.9831005304831E+00
(PID.TID 0001.0001) %MON dynstat_sst_mean             =   1.8385630620422E+01
(PID.TID 0001.0001) %MON dynstat_sst_sd               =   9.8434142981740E+00
(PID.TID 0001.0001) %MON dynstat_sst_del2             =   2.1519938577012E-01
(PID.TID 0001.0001) %MON dynstat_sss_max              =   4.1419942638934E+01
(PID.TID 0001.0001) %MON dynstat_sss_min              =   1.8416180423017E+01
(PID.TID 0001.0001) %MON dynstat_sss_mean             =   3.4620625295475E+01
(PID.TID 0001.0001) %MON dynstat_sss_sd               =   1.4570126563869E+00
(PID.TID 0001.0001) %MON dynstat_sss_del2             =   8.0468245878824E-02
(PID.TID 0001.0001) %MON extforcing_qnet_max          =   3.5685846658347E+02
(PID.TID 0001.0001) %MON extforcing_qnet_min          =  -1.7947302759356E+02
(PID.TID 0001.0001) %MON extforcing_qnet_mean         =  -1.2072638813988E+01
(PID.TID 0001.0001) %MON extforcing_qnet_sd           =   7.6988160467589E+01
(PID.TID 0001.0001) %MON extforcing_qnet_del2         =   4.8027643372037E+00
(PID.TID 0001.0001) %MON extforcing_qsw_max           =   0.0000000000000E+00
(PID.TID 0001.0001) %MON extforcing_qsw_min           =   0.0000000000000E+00
(PID.TID 0001.0001) %MON extforcing_qsw_mean          =   0.0000000000000E+00
(PID.TID 0001.0001) %MON extforcing_qsw_sd            =   0.0000000000000E+00
(PID.TID 0001.0001) %MON extforcing_qsw_del2          =   0.0000000000000E+00
(PID.TID 0001.0001) %MON extforcing_empmr_max         =   7.6494447208479E-08
(PID.TID 0001.0001) %MON extforcing_empmr_min         =  -1.5362614137596E-07
(PID.TID 0001.0001) %MON extforcing_empmr_mean        =  -8.1899996113563E-25
(PID.TID 0001.0001) %MON extforcing_empmr_sd          =   2.4051723601802E-08
(PID.TID 0001.0001) %MON extforcing_empmr_del2        =   1.2835223797615E-09
(PID.TID 0001.0001) %MON extforcing_fu_max            =   2.6051367660312E-01
(PID.TID 0001.0001) %MON extforcing_fu_min            =  -2.5556843903575E-01
(PID.TID 0001.0001) %MON extforcing_fu_mean           =  -5.8628304298737E-03
(PID.TID 0001.0001) %MON extforcing_fu_sd             =   6.5789256296754E-02
(PID.TID 0001.0001) %MON extforcing_fu_del2           =   2.8953126799981E-03
(PID.TID 0001.0001) %MON extforcing_fv_max            =   2.6832919398151E-01
(PID.TID 0001.0001) %MON extforcing_fv_min            =  -3.1291616041268E-01
(PID.TID 0001.0001) %MON extforcing_fv_mean           =  -1.3413620351497E-02
(PID.TID 0001.0001) %MON extforcing_fv_sd             =   7.5632573767129E-02
(PID.TID 0001.0001) %MON extforcing_fv_del2           =   3.1423957587335E-03
(PID.TID 0001.0001) %MON advcfl_uvel_max              =   7.2908592609090E-02
(PID.TID 0001.0001) %MON advcfl_vvel_max              =   7.5553141197572E-02
(PID.TID 0001.0001) %MON advcfl_wvel_max              =   6.5420573345796E-02
(PID.TID 0001.0001) %MON advcfl_W_hf_max              =   8.0665644465640E-02
(PID.TID 0001.0001) %MON pe_b_mean                    =   4.7332660144560E-04
(PID.TID 0001.0001) %MON ke_max                       =   3.5077459498887E-02
(PID.TID 0001.0001) %MON ke_mean                      =   1.3954064661827E-04
(PID.TID 0001.0001) %MON ke_vol                       =   1.3398024453628E+18
(PID.TID 0001.0001) %MON vort_r_min                   =  -1.3354484177556E-06
(PID.TID 0001.0001) %MON vort_r_max                   =   1.1513406904734E-06
(PID.TID 0001.0001) %MON vort_a_mean                  =  -2.0493733748264E-05
(PID.TID 0001.0001) %MON vort_a_sd                    =   7.5053948844930E-05
(PID.TID 0001.0001) %MON vort_p_mean                  =  -2.4715772059952E-05
(PID.TID 0001.0001) %MON vort_p_sd                    =   1.2777053988768E-04
(PID.TID 0001.0001) %MON surfExpan_theta_mean         =   5.7546178557423E-08
(PID.TID 0001.0001) %MON surfExpan_salt_mean          =   1.5450781476336E-08
(PID.TID 0001.0001) // =======================================================
(PID.TID 0001.0001) // End MONITOR dynamic field statistics
(PID.TID 0001.0001) // =======================================================
 DRIVER_GET_EXPORT_STATE_3D:MASK. This code is stubbed!
 DRIVER_SET_IMPORT_STATE_3D:SWHEAT. This code is stubbed!
 cg2d: Sum(rhs),rhsMax =  -9.83391146291979E-12  1.40062916985623E+00
(PID.TID 0001.0001)                    cg2d_init_res =    1.30272448969179E-01
(PID.TID 0001.0001)                       cg2d_iters =    57
(PID.TID 0001.0001)                         cg2d_res =    5.79506308036967E-07
(PID.TID 0001.0001) // =======================================================
(PID.TID 0001.0001) // Begin MONITOR dynamic field statistics
(PID.TID 0001.0001) // =======================================================
(PID.TID 0001.0001) %MON time_tsnumber                =                 72055
(PID.TID 0001.0001) %MON time_secondsf                =   6.2255520000000E+09
(PID.TID 0001.0001) %MON dynstat_eta_max              =   8.7433586591144E-01
(PID.TID 0001.0001) %MON dynstat_eta_min              =  -1.5987702662651E+00
(PID.TID 0001.0001) %MON dynstat_eta_mean             =   1.4125274351019E-14
(PID.TID 0001.0001) %MON dynstat_eta_sd               =   5.9612077176034E-01
(PID.TID 0001.0001) %MON dynstat_eta_del2             =   1.1408238904531E-02
(PID.TID 0001.0001) %MON dynstat_uvel_max             =   1.7789882781979E-01
(PID.TID 0001.0001) %MON dynstat_uvel_min             =  -2.5637407744358E-01
(PID.TID 0001.0001) %MON dynstat_uvel_mean            =  -4.6247591906744E-04
(PID.TID 0001.0001) %MON dynstat_uvel_sd              =   1.1954965818564E-02
(PID.TID 0001.0001) %MON dynstat_uvel_del2            =   1.5766059797461E-03
(PID.TID 0001.0001) %MON dynstat_vvel_max             =   1.7201514386000E-01
(PID.TID 0001.0001) %MON dynstat_vvel_min             =  -2.2322164260601E-01
(PID.TID 0001.0001) %MON dynstat_vvel_mean            =  -3.7767137704357E-04
(PID.TID 0001.0001) %MON dynstat_vvel_sd              =   1.2602637228058E-02
(PID.TID 0001.0001) %MON dynstat_vvel_del2            =   1.5937074978358E-03
(PID.TID 0001.0001) %MON dynstat_wvel_max             =   1.0497882339451E-04
(PID.TID 0001.0001) %MON dynstat_wvel_min             =  -2.0073925996649E-04
(PID.TID 0001.0001) %MON dynstat_wvel_mean            =  -1.4402992847950E-10
(PID.TID 0001.0001) %MON dynstat_wvel_sd              =   3.6269980621741E-06
(PID.TID 0001.0001) %MON dynstat_wvel_del2            =   8.3791527546107E-07
(PID.TID 0001.0001) %MON dynstat_theta_max            =   3.1233533455192E+01
(PID.TID 0001.0001) %MON dynstat_theta_min            =  -4.0358130950059E+00
(PID.TID 0001.0001) %MON dynstat_theta_mean           =   3.9124620955264E+00
(PID.TID 0001.0001) %MON dynstat_theta_sd             =   4.5817219540968E+00
(PID.TID 0001.0001) %MON dynstat_theta_del2           =   8.9204414441701E-02
(PID.TID 0001.0001) %MON dynstat_salt_max             =   4.1420721068869E+01
(PID.TID 0001.0001) %MON dynstat_salt_min             =   1.8416466569847E+01
(PID.TID 0001.0001) %MON dynstat_salt_mean            =   3.4772112161954E+01
(PID.TID 0001.0001) %MON dynstat_salt_sd              =   5.3127435878545E-01
(PID.TID 0001.0001) %MON dynstat_salt_del2            =   1.8929187622025E-02
(PID.TID 0001.0001) %MON dynstat_sst_max              =   3.1233533455192E+01
(PID.TID 0001.0001) %MON dynstat_sst_min              =  -1.9815878659430E+00
(PID.TID 0001.0001) %MON dynstat_sst_mean             =   1.8389243135988E+01
(PID.TID 0001.0001) %MON dynstat_sst_sd               =   9.8489765399543E+00
(PID.TID 0001.0001) %MON dynstat_sst_del2             =   2.1516871593561E-01
(PID.TID 0001.0001) %MON dynstat_sss_max              =   4.1420721068869E+01
(PID.TID 0001.0001) %MON dynstat_sss_min              =   1.8416466569847E+01
(PID.TID 0001.0001) %MON dynstat_sss_mean             =   3.4620600259028E+01
(PID.TID 0001.0001) %MON dynstat_sss_sd               =   1.4568490963344E+00
(PID.TID 0001.0001) %MON dynstat_sss_del2             =   8.0442245104714E-02
(PID.TID 0001.0001) %MON extforcing_qnet_max          =   3.5147392183482E+02
(PID.TID 0001.0001) %MON extforcing_qnet_min          =  -1.7816888079915E+02
(PID.TID 0001.0001) %MON extforcing_qnet_mean         =  -1.1869320667993E+01
(PID.TID 0001.0001) %MON extforcing_qnet_sd           =   7.5862943041344E+01
(PID.TID 0001.0001) %MON extforcing_qnet_del2         =   4.7864898960839E+00
(PID.TID 0001.0001) %MON extforcing_qsw_max           =   0.0000000000000E+00
(PID.TID 0001.0001) %MON extforcing_qsw_min           =   0.0000000000000E+00
(PID.TID 0001.0001) %MON extforcing_qsw_mean          =   0.0000000000000E+00
(PID.TID 0001.0001) %MON extforcing_qsw_sd            =   0.0000000000000E+00
(PID.TID 0001.0001) %MON extforcing_qsw_del2          =   0.0000000000000E+00
(PID.TID 0001.0001) %MON extforcing_empmr_max         =   7.6494447208479E-08
(PID.TID 0001.0001) %MON extforcing_empmr_min         =  -1.5362614137596E-07
(PID.TID 0001.0001) %MON extforcing_empmr_mean        =  -1.6379999222713E-24
(PID.TID 0001.0001) %MON extforcing_empmr_sd          =   2.4051723601802E-08
(PID.TID 0001.0001) %MON extforcing_empmr_del2        =   1.2835223797615E-09
(PID.TID 0001.0001) %MON extforcing_fu_max            =   2.5958431458687E-01
(PID.TID 0001.0001) %MON extforcing_fu_min            =  -2.5889419686490E-01
(PID.TID 0001.0001) %MON extforcing_fu_mean           =  -5.9876631756524E-03
(PID.TID 0001.0001) %MON extforcing_fu_sd             =   6.5864559887085E-02
(PID.TID 0001.0001) %MON extforcing_fu_del2           =   2.8766693396271E-03
(PID.TID 0001.0001) %MON extforcing_fv_max            =   2.6628603919445E-01
(PID.TID 0001.0001) %MON extforcing_fv_min            =  -3.1405449376900E-01
(PID.TID 0001.0001) %MON extforcing_fv_mean           =  -1.3378957856245E-02
(PID.TID 0001.0001) %MON extforcing_fv_sd             =   7.5646843853271E-02
(PID.TID 0001.0001) %MON extforcing_fv_del2           =   3.1246609960474E-03
(PID.TID 0001.0001) %MON advcfl_uvel_max              =   7.2712551442506E-02
(PID.TID 0001.0001) %MON advcfl_vvel_max              =   7.4978977822385E-02
(PID.TID 0001.0001) %MON advcfl_wvel_max              =   6.5448573815489E-02
(PID.TID 0001.0001) %MON advcfl_W_hf_max              =   8.0700178376579E-02
(PID.TID 0001.0001) %MON pe_b_mean                    =   4.7340515520027E-04
(PID.TID 0001.0001) %MON ke_max                       =   3.5045404807437E-02
(PID.TID 0001.0001) %MON ke_mean                      =   1.3950782204735E-04
(PID.TID 0001.0001) %MON ke_vol                       =   1.3398024453628E+18
(PID.TID 0001.0001) %MON vort_r_min                   =  -1.3355712415509E-06
(PID.TID 0001.0001) %MON vort_r_max                   =   1.1511257362431E-06
(PID.TID 0001.0001) %MON vort_a_mean                  =  -2.0493733748264E-05
(PID.TID 0001.0001) %MON vort_a_sd                    =   7.5053949088774E-05
(PID.TID 0001.0001) %MON vort_p_mean                  =  -2.4715772043483E-05
(PID.TID 0001.0001) %MON vort_p_sd                    =   1.2777053723041E-04
(PID.TID 0001.0001) %MON surfExpan_theta_mean         =   5.8258417995739E-08
(PID.TID 0001.0001) %MON surfExpan_salt_mean          =   1.5564069128142E-08
(PID.TID 0001.0001) // =======================================================
(PID.TID 0001.0001) // End MONITOR dynamic field statistics
(PID.TID 0001.0001) // =======================================================
 DRIVER_GET_EXPORT_STATE_3D:MASK. This code is stubbed!
 DRIVER_SET_IMPORT_STATE_3D:SWHEAT. This code is stubbed!
 cg2d: Sum(rhs),rhsMax =  -9.49285094975494E-12  1.40026678613201E+00
(PID.TID 0001.0001)                    cg2d_init_res =    1.29979944312376E-01
(PID.TID 0001.0001)                       cg2d_iters =    58
(PID.TID 0001.0001)                         cg2d_res =    5.77763530878055E-07
(PID.TID 0001.0001) // =======================================================
(PID.TID 0001.0001) // Begin MONITOR dynamic field statistics
(PID.TID 0001.0001) // =======================================================
(PID.TID 0001.0001) %MON time_tsnumber                =                 72056
(PID.TID 0001.0001) %MON time_secondsf                =   6.2256384000000E+09
(PID.TID 0001.0001) %MON dynstat_eta_max              =   8.7441389823899E-01
(PID.TID 0001.0001) %MON dynstat_eta_min              =  -1.5989447805093E+00
(PID.TID 0001.0001) %MON dynstat_eta_mean             =   1.4345122979050E-14
(PID.TID 0001.0001) %MON dynstat_eta_sd               =   5.9618555943271E-01
(PID.TID 0001.0001) %MON dynstat_eta_del2             =   1.1408413722836E-02
(PID.TID 0001.0001) %MON dynstat_uvel_max             =   1.7862100178094E-01
(PID.TID 0001.0001) %MON dynstat_uvel_min             =  -2.5568752274314E-01
(PID.TID 0001.0001) %MON dynstat_uvel_mean            =  -4.6178598049920E-04
(PID.TID 0001.0001) %MON dynstat_uvel_sd              =   1.1947358565324E-02
(PID.TID 0001.0001) %MON dynstat_uvel_del2            =   1.5767133268748E-03
(PID.TID 0001.0001) %MON dynstat_vvel_max             =   1.7067284036940E-01
(PID.TID 0001.0001) %MON dynstat_vvel_min             =  -2.2321428745972E-01
(PID.TID 0001.0001) %MON dynstat_vvel_mean            =  -3.7728038438362E-04
(PID.TID 0001.0001) %MON dynstat_vvel_sd              =   1.2606928854679E-02
(PID.TID 0001.0001) %MON dynstat_vvel_del2            =   1.5941933745826E-03
(PID.TID 0001.0001) %MON dynstat_wvel_max             =   1.0530568812677E-04
(PID.TID 0001.0001) %MON dynstat_wvel_min             =  -2.0079112331421E-04
(PID.TID 0001.0001) %MON dynstat_wvel_mean            =  -1.7979317417848E-10
(PID.TID 0001.0001) %MON dynstat_wvel_sd              =   3.6218152274894E-06
(PID.TID 0001.0001) %MON dynstat_wvel_del2            =   8.3801216667603E-07
(PID.TID 0001.0001) %MON dynstat_theta_max            =   3.1234384220043E+01
(PID.TID 0001.0001) %MON dynstat_theta_min            =  -4.0489872758653E+00
(PID.TID 0001.0001) %MON dynstat_theta_mean           =   3.9125065869116E+00
(PID.TID 0001.0001) %MON dynstat_theta_sd             =   4.5820065234136E+00
(PID.TID 0001.0001) %MON dynstat_theta_del2           =   8.9216473159082E-02
(PID.TID 0001.0001) %MON dynstat_salt_max             =   4.1421508607579E+01
(PID.TID 0001.0001) %MON dynstat_salt_min             =   1.8416732330457E+01
(PID.TID 0001.0001) %MON dynstat_salt_mean            =   3.4772113235275E+01
(PID.TID 0001.0001) %MON dynstat_salt_sd              =   5.3126905298936E-01
(PID.TID 0001.0001) %MON dynstat_salt_del2            =   1.8927067768870E-02
(PID.TID 0001.0001) %MON dynstat_sst_max              =   3.1234384220043E+01
(PID.TID 0001.0001) %MON dynstat_sst_min              =  -1.9801292580474E+00
(PID.TID 0001.0001) %MON dynstat_sst_mean             =   1.8392651807966E+01
(PID.TID 0001.0001) %MON dynstat_sst_sd               =   9.8546625088913E+00
(PID.TID 0001.0001) %MON dynstat_sst_del2             =   2.1502899715036E-01
(PID.TID 0001.0001) %MON dynstat_sss_max              =   4.1421508607579E+01
(PID.TID 0001.0001) %MON dynstat_sss_min              =   1.8416732330457E+01
(PID.TID 0001.0001) %MON dynstat_sss_mean             =   3.4620593353846E+01
(PID.TID 0001.0001) %MON dynstat_sss_sd               =   1.4566870398943E+00
(PID.TID 0001.0001) %MON dynstat_sss_del2             =   8.0420023599274E-02
(PID.TID 0001.0001) %MON extforcing_qnet_max          =   3.4608937708617E+02
(PID.TID 0001.0001) %MON extforcing_qnet_min          =  -1.7686473400473E+02
(PID.TID 0001.0001) %MON extforcing_qnet_mean         =  -1.1666002521998E+01
(PID.TID 0001.0001) %MON extforcing_qnet_sd           =   7.4764126061091E+01
(PID.TID 0001.0001) %MON extforcing_qnet_del2         =   4.7723048052571E+00
(PID.TID 0001.0001) %MON extforcing_qsw_max           =   0.0000000000000E+00
(PID.TID 0001.0001) %MON extforcing_qsw_min           =   0.0000000000000E+00
(PID.TID 0001.0001) %MON extforcing_qsw_mean          =   0.0000000000000E+00
(PID.TID 0001.0001) %MON extforcing_qsw_sd            =   0.0000000000000E+00
(PID.TID 0001.0001) %MON extforcing_qsw_del2          =   0.0000000000000E+00
(PID.TID 0001.0001) %MON extforcing_empmr_max         =   7.6494447208479E-08
(PID.TID 0001.0001) %MON extforcing_empmr_min         =  -1.5362614137596E-07
(PID.TID 0001.0001) %MON extforcing_empmr_mean        =  -1.2284999417034E-24
(PID.TID 0001.0001) %MON extforcing_empmr_sd          =   2.4051723601802E-08
(PID.TID 0001.0001) %MON extforcing_empmr_del2        =   1.2835223797615E-09
(PID.TID 0001.0001) %MON extforcing_fu_max            =   2.5935047464474E-01
(PID.TID 0001.0001) %MON extforcing_fu_min            =  -2.6221995469406E-01
(PID.TID 0001.0001) %MON extforcing_fu_mean           =  -6.1124982705070E-03
(PID.TID 0001.0001) %MON extforcing_fu_sd             =   6.5955322454941E-02
(PID.TID 0001.0001) %MON extforcing_fu_del2           =   2.8605189288321E-03
(PID.TID 0001.0001) %MON extforcing_fv_max            =   2.6424288440739E-01
(PID.TID 0001.0001) %MON extforcing_fv_min            =  -3.1519282712531E-01
(PID.TID 0001.0001) %MON extforcing_fv_mean           =  -1.3344296391632E-02
(PID.TID 0001.0001) %MON extforcing_fv_sd             =   7.5681859919900E-02
(PID.TID 0001.0001) %MON extforcing_fv_del2           =   3.1114677964375E-03
(PID.TID 0001.0001) %MON advcfl_uvel_max              =   7.2517831506419E-02
(PID.TID 0001.0001) %MON advcfl_vvel_max              =   7.4393886641491E-02
(PID.TID 0001.0001) %MON advcfl_wvel_max              =   6.5465483223953E-02
(PID.TID 0001.0001) %MON advcfl_W_hf_max              =   8.0721039163961E-02
(PID.TID 0001.0001) %MON pe_b_mean                    =   4.7350806214878E-04
(PID.TID 0001.0001) %MON ke_max                       =   3.5013401164758E-02
(PID.TID 0001.0001) %MON ke_mean                      =   1.3947405057026E-04
(PID.TID 0001.0001) %MON ke_vol                       =   1.3398024453628E+18
(PID.TID 0001.0001) %MON vort_r_min                   =  -1.3356262487416E-06
(PID.TID 0001.0001) %MON vort_r_max                   =   1.1513761719465E-06
(PID.TID 0001.0001) %MON vort_a_mean                  =  -2.0493733748264E-05
(PID.TID 0001.0001) %MON vort_a_sd                    =   7.5053949345816E-05
(PID.TID 0001.0001) %MON vort_p_mean                  =  -2.4715772021003E-05
(PID.TID 0001.0001) %MON vort_p_sd                    =   1.2777053558542E-04
(PID.TID 0001.0001) %MON surfExpan_theta_mean         =   5.8835132515949E-08
(PID.TID 0001.0001) %MON surfExpan_salt_mean          =   1.5662423855507E-08
(PID.TID 0001.0001) // =======================================================
(PID.TID 0001.0001) // End MONITOR dynamic field statistics
(PID.TID 0001.0001) // =======================================================
 DRIVER_GET_EXPORT_STATE_3D:MASK. This code is stubbed!
 DRIVER_SET_IMPORT_STATE_3D:SWHEAT. This code is stubbed!
 cg2d: Sum(rhs),rhsMax =  -9.57811607804615E-12  1.39942062673303E+00
(PID.TID 0001.0001)                    cg2d_init_res =    1.30771171594295E-01
(PID.TID 0001.0001)                       cg2d_iters =    59
(PID.TID 0001.0001)                         cg2d_res =    5.35670337830577E-07
(PID.TID 0001.0001) // =======================================================
(PID.TID 0001.0001) // Begin MONITOR dynamic field statistics
(PID.TID 0001.0001) // =======================================================
(PID.TID 0001.0001) %MON time_tsnumber                =                 72057
(PID.TID 0001.0001) %MON time_secondsf                =   6.2257248000000E+09
(PID.TID 0001.0001) %MON dynstat_eta_max              =   8.7453013871733E-01
(PID.TID 0001.0001) %MON dynstat_eta_min              =  -1.5991230206880E+00
(PID.TID 0001.0001) %MON dynstat_eta_mean             =   1.4564971607082E-14
(PID.TID 0001.0001) %MON dynstat_eta_sd               =   5.9626555573401E-01
(PID.TID 0001.0001) %MON dynstat_eta_del2             =   1.1408184299809E-02
(PID.TID 0001.0001) %MON dynstat_uvel_max             =   1.7937386616652E-01
(PID.TID 0001.0001) %MON dynstat_uvel_min             =  -2.5500575482338E-01
(PID.TID 0001.0001) %MON dynstat_uvel_mean            =  -4.6105597282062E-04
(PID.TID 0001.0001) %MON dynstat_uvel_sd              =   1.1939447620465E-02
(PID.TID 0001.0001) %MON dynstat_uvel_del2            =   1.5767543757747E-03
(PID.TID 0001.0001) %MON dynstat_vvel_max             =   1.6931680197785E-01
(PID.TID 0001.0001) %MON dynstat_vvel_min             =  -2.2320178931789E-01
(PID.TID 0001.0001) %MON dynstat_vvel_mean            =  -3.7688056106305E-04
(PID.TID 0001.0001) %MON dynstat_vvel_sd              =   1.2611456020477E-02
(PID.TID 0001.0001) %MON dynstat_vvel_del2            =   1.5946665374431E-03
(PID.TID 0001.0001) %MON dynstat_wvel_max             =   1.0564812255598E-04
(PID.TID 0001.0001) %MON dynstat_wvel_min             =  -2.0080856457034E-04
(PID.TID 0001.0001) %MON dynstat_wvel_mean            =  -2.1480743213689E-10
(PID.TID 0001.0001) %MON dynstat_wvel_sd              =   3.6164657296548E-06
(PID.TID 0001.0001) %MON dynstat_wvel_del2            =   8.3810736535350E-07
(PID.TID 0001.0001) %MON dynstat_theta_max            =   3.1243957871825E+01
(PID.TID 0001.0001) %MON dynstat_theta_min            =  -4.0615618555841E+00
(PID.TID 0001.0001) %MON dynstat_theta_mean           =   3.9125492400198E+00
(PID.TID 0001.0001) %MON dynstat_theta_sd             =   4.5822887766571E+00
(PID.TID 0001.0001) %MON dynstat_theta_del2           =   8.9221666670410E-02
(PID.TID 0001.0001) %MON dynstat_salt_max             =   4.1422304986501E+01
(PID.TID 0001.0001) %MON dynstat_salt_min             =   1.8416977169663E+01
(PID.TID 0001.0001) %MON dynstat_salt_mean            =   3.4772114310329E+01
(PID.TID 0001.0001) %MON dynstat_salt_sd              =   5.3126390405914E-01
(PID.TID 0001.0001) %MON dynstat_salt_del2            =   1.8922392830714E-02
(PID.TID 0001.0001) %MON dynstat_sst_max              =   3.1243957871825E+01
(PID.TID 0001.0001) %MON dynstat_sst_min              =  -1.9787151678299E+00
(PID.TID 0001.0001) %MON dynstat_sst_mean             =   1.8395903348427E+01
(PID.TID 0001.0001) %MON dynstat_sst_sd               =   9.8604492931386E+00
(PID.TID 0001.0001) %MON dynstat_sst_del2             =   2.1486593834767E-01
(PID.TID 0001.0001) %MON dynstat_sss_max              =   4.1422304986501E+01
(PID.TID 0001.0001) %MON dynstat_sss_min              =   1.8416977169663E+01
(PID.TID 0001.0001) %MON dynstat_sss_mean             =   3.4620608208710E+01
(PID.TID 0001.0001) %MON dynstat_sss_sd               =   1.4565371114611E+00
(PID.TID 0001.0001) %MON dynstat_sss_del2             =   8.0371788622840E-02
(PID.TID 0001.0001) %MON extforcing_qnet_max          =   3.4070483233752E+02
(PID.TID 0001.0001) %MON extforcing_qnet_min          =  -1.7556058721032E+02
(PID.TID 0001.0001) %MON extforcing_qnet_mean         =  -1.1462684376003E+01
(PID.TID 0001.0001) %MON extforcing_qnet_sd           =   7.3692890488408E+01
(PID.TID 0001.0001) %MON extforcing_qnet_del2         =   4.7602801445632E+00
(PID.TID 0001.0001) %MON extforcing_qsw_max           =   0.0000000000000E+00
(PID.TID 0001.0001) %MON extforcing_qsw_min           =   0.0000000000000E+00
(PID.TID 0001.0001) %MON extforcing_qsw_mean          =   0.0000000000000E+00
(PID.TID 0001.0001) %MON extforcing_qsw_sd            =   0.0000000000000E+00
(PID.TID 0001.0001) %MON extforcing_qsw_del2          =   0.0000000000000E+00
(PID.TID 0001.0001) %MON extforcing_empmr_max         =   7.6494447208479E-08
(PID.TID 0001.0001) %MON extforcing_empmr_min         =  -1.5362614137596E-07
(PID.TID 0001.0001) %MON extforcing_empmr_mean        =  -8.1899996113563E-25
(PID.TID 0001.0001) %MON extforcing_empmr_sd          =   2.4051723601802E-08
(PID.TID 0001.0001) %MON extforcing_empmr_del2        =   1.2835223797615E-09
(PID.TID 0001.0001) %MON extforcing_fu_max            =   2.5926455828511E-01
(PID.TID 0001.0001) %MON extforcing_fu_min            =  -2.6554571252322E-01
(PID.TID 0001.0001) %MON extforcing_fu_mean           =  -6.2373355401136E-03
(PID.TID 0001.0001) %MON extforcing_fu_sd             =   6.6061480273296E-02
(PID.TID 0001.0001) %MON extforcing_fu_del2           =   2.8471782511256E-03
(PID.TID 0001.0001) %MON extforcing_fv_max            =   2.6219972962033E-01
(PID.TID 0001.0001) %MON extforcing_fv_min            =  -3.1633116048163E-01
(PID.TID 0001.0001) %MON extforcing_fv_mean           =  -1.3309635857583E-02
(PID.TID 0001.0001) %MON extforcing_fv_sd             =   7.5737593212843E-02
(PID.TID 0001.0001) %MON extforcing_fv_del2           =   3.1011443884340E-03
(PID.TID 0001.0001) %MON advcfl_uvel_max              =   7.2328319937162E-02
(PID.TID 0001.0001) %MON advcfl_vvel_max              =   7.3802808610774E-02
(PID.TID 0001.0001) %MON advcfl_wvel_max              =   6.5471169731613E-02
(PID.TID 0001.0001) %MON advcfl_W_hf_max              =   8.0728064255638E-02
(PID.TID 0001.0001) %MON pe_b_mean                    =   4.7363514149279E-04
(PID.TID 0001.0001) %MON ke_max                       =   3.4981398485164E-02
(PID.TID 0001.0001) %MON ke_mean                      =   1.3943975485112E-04
(PID.TID 0001.0001) %MON ke_vol                       =   1.3398024453628E+18
(PID.TID 0001.0001) %MON vort_r_min                   =  -1.3356152635250E-06
(PID.TID 0001.0001) %MON vort_r_max                   =   1.1520990931246E-06
(PID.TID 0001.0001) %MON vort_a_mean                  =  -2.0493733748264E-05
(PID.TID 0001.0001) %MON vort_a_sd                    =   7.5053949615473E-05
(PID.TID 0001.0001) %MON vort_p_mean                  =  -2.4715771992073E-05
(PID.TID 0001.0001) %MON vort_p_sd                    =   1.2777053494250E-04
(PID.TID 0001.0001) %MON surfExpan_theta_mean         =   5.9263831448280E-08
(PID.TID 0001.0001) %MON surfExpan_salt_mean          =   1.5739120263934E-08
(PID.TID 0001.0001) // =======================================================
(PID.TID 0001.0001) // End MONITOR dynamic field statistics
(PID.TID 0001.0001) // =======================================================
 DRIVER_GET_EXPORT_STATE_3D:MASK. This code is stubbed!
 DRIVER_SET_IMPORT_STATE_3D:SWHEAT. This code is stubbed!
 cg2d: Sum(rhs),rhsMax =  -9.66338120633736E-12  1.39878522778890E+00
(PID.TID 0001.0001)                    cg2d_init_res =    1.29457435695714E-01
(PID.TID 0001.0001)                       cg2d_iters =    59
(PID.TID 0001.0001)                         cg2d_res =    5.61282888485714E-07
(PID.TID 0001.0001) // =======================================================
(PID.TID 0001.0001) // Begin MONITOR dynamic field statistics
(PID.TID 0001.0001) // =======================================================
(PID.TID 0001.0001) %MON time_tsnumber                =                 72058
(PID.TID 0001.0001) %MON time_secondsf                =   6.2258112000000E+09
(PID.TID 0001.0001) %MON dynstat_eta_max              =   8.7468077818960E-01
(PID.TID 0001.0001) %MON dynstat_eta_min              =  -1.5993011597893E+00
(PID.TID 0001.0001) %MON dynstat_eta_mean             =   1.4345122979050E-14
(PID.TID 0001.0001) %MON dynstat_eta_sd               =   5.9636074463224E-01
(PID.TID 0001.0001) %MON dynstat_eta_del2             =   1.1407985687208E-02
(PID.TID 0001.0001) %MON dynstat_uvel_max             =   1.8015120387322E-01
(PID.TID 0001.0001) %MON dynstat_uvel_min             =  -2.5432887787379E-01
(PID.TID 0001.0001) %MON dynstat_uvel_mean            =  -4.6028717548258E-04
(PID.TID 0001.0001) %MON dynstat_uvel_sd              =   1.1931329521271E-02
(PID.TID 0001.0001) %MON dynstat_uvel_del2            =   1.5767676407493E-03
(PID.TID 0001.0001) %MON dynstat_vvel_max             =   1.6834488053265E-01
(PID.TID 0001.0001) %MON dynstat_vvel_min             =  -2.2318400729687E-01
(PID.TID 0001.0001) %MON dynstat_vvel_mean            =  -3.7646675175232E-04
(PID.TID 0001.0001) %MON dynstat_vvel_sd              =   1.2616168801762E-02
(PID.TID 0001.0001) %MON dynstat_vvel_del2            =   1.5951107597568E-03
(PID.TID 0001.0001) %MON dynstat_wvel_max             =   1.0599961762863E-04
(PID.TID 0001.0001) %MON dynstat_wvel_min             =  -2.0079162212107E-04
(PID.TID 0001.0001) %MON dynstat_wvel_mean            =  -2.4859039552791E-10
(PID.TID 0001.0001) %MON dynstat_wvel_sd              =   3.6109745310433E-06
(PID.TID 0001.0001) %MON dynstat_wvel_del2            =   8.3813266214889E-07
(PID.TID 0001.0001) %MON dynstat_theta_max            =   3.1260072980276E+01
(PID.TID 0001.0001) %MON dynstat_theta_min            =  -4.0734843725572E+00
(PID.TID 0001.0001) %MON dynstat_theta_mean           =   3.9125900934131E+00
(PID.TID 0001.0001) %MON dynstat_theta_sd             =   4.5825694932666E+00
(PID.TID 0001.0001) %MON dynstat_theta_del2           =   8.9256240279628E-02
(PID.TID 0001.0001) %MON dynstat_salt_max             =   4.1423110017355E+01
(PID.TID 0001.0001) %MON dynstat_salt_min             =   1.8417201202032E+01
(PID.TID 0001.0001) %MON dynstat_salt_mean            =   3.4772115386886E+01
(PID.TID 0001.0001) %MON dynstat_salt_sd              =   5.3125932178166E-01
(PID.TID 0001.0001) %MON dynstat_salt_del2            =   1.8922861263399E-02
(PID.TID 0001.0001) %MON dynstat_sst_max              =   3.1260072980276E+01
(PID.TID 0001.0001) %MON dynstat_sst_min              =  -1.9773353466243E+00
(PID.TID 0001.0001) %MON dynstat_sst_mean             =   1.8398797184246E+01
(PID.TID 0001.0001) %MON dynstat_sst_sd               =   9.8664838596594E+00
(PID.TID 0001.0001) %MON dynstat_sst_del2             =   2.1495306614455E-01
(PID.TID 0001.0001) %MON dynstat_sss_max              =   4.1423110017355E+01
(PID.TID 0001.0001) %MON dynstat_sss_min              =   1.8417201202032E+01
(PID.TID 0001.0001) %MON dynstat_sss_mean             =   3.4620598939604E+01
(PID.TID 0001.0001) %MON dynstat_sss_sd               =   1.4563823695946E+00
(PID.TID 0001.0001) %MON dynstat_sss_del2             =   8.0349139984123E-02
(PID.TID 0001.0001) %MON extforcing_qnet_max          =   3.3532028758887E+02
(PID.TID 0001.0001) %MON extforcing_qnet_min          =  -1.7559232341438E+02
(PID.TID 0001.0001) %MON extforcing_qnet_mean         =  -1.1259366230008E+01
(PID.TID 0001.0001) %MON extforcing_qnet_sd           =   7.2650456402337E+01
(PID.TID 0001.0001) %MON extforcing_qnet_del2         =   4.7496943480569E+00
(PID.TID 0001.0001) %MON extforcing_qsw_max           =   0.0000000000000E+00
(PID.TID 0001.0001) %MON extforcing_qsw_min           =   0.0000000000000E+00
(PID.TID 0001.0001) %MON extforcing_qsw_mean          =   0.0000000000000E+00
(PID.TID 0001.0001) %MON extforcing_qsw_sd            =   0.0000000000000E+00
(PID.TID 0001.0001) %MON extforcing_qsw_del2          =   0.0000000000000E+00
(PID.TID 0001.0001) %MON extforcing_empmr_max         =   7.6494447208479E-08
(PID.TID 0001.0001) %MON extforcing_empmr_min         =  -1.5362614137596E-07
(PID.TID 0001.0001) %MON extforcing_empmr_mean        =  -2.0474999028391E-24
(PID.TID 0001.0001) %MON extforcing_empmr_sd          =   2.4051723601802E-08
(PID.TID 0001.0001) %MON extforcing_empmr_del2        =   1.2835223797615E-09
(PID.TID 0001.0001) %MON extforcing_fu_max            =   2.5917864192548E-01
(PID.TID 0001.0001) %MON extforcing_fu_min            =  -2.6887147035238E-01
(PID.TID 0001.0001) %MON extforcing_fu_mean           =  -6.3621748223200E-03
(PID.TID 0001.0001) %MON extforcing_fu_sd             =   6.6182959183427E-02
(PID.TID 0001.0001) %MON extforcing_fu_del2           =   2.8368420156116E-03
(PID.TID 0001.0001) %MON extforcing_fv_max            =   2.6015657483327E-01
(PID.TID 0001.0001) %MON extforcing_fv_min            =  -3.1746949383795E-01
(PID.TID 0001.0001) %MON extforcing_fv_mean           =  -1.3274976085824E-02
(PID.TID 0001.0001) %MON extforcing_fv_sd             =   7.5813998008306E-02
(PID.TID 0001.0001) %MON extforcing_fv_del2           =   3.0944066170904E-03
(PID.TID 0001.0001) %MON advcfl_uvel_max              =   7.2280754476775E-02
(PID.TID 0001.0001) %MON advcfl_vvel_max              =   7.3379161745447E-02
(PID.TID 0001.0001) %MON advcfl_wvel_max              =   6.5465645853814E-02
(PID.TID 0001.0001) %MON advcfl_W_hf_max              =   8.0721269146665E-02
(PID.TID 0001.0001) %MON pe_b_mean                    =   4.7378637748340E-04
(PID.TID 0001.0001) %MON ke_max                       =   3.4949346224559E-02
(PID.TID 0001.0001) %MON ke_mean                      =   1.3940541716570E-04
(PID.TID 0001.0001) %MON ke_vol                       =   1.3398024453628E+18
(PID.TID 0001.0001) %MON vort_r_min                   =  -1.3355402098411E-06
(PID.TID 0001.0001) %MON vort_r_max                   =   1.1532858101448E-06
(PID.TID 0001.0001) %MON vort_a_mean                  =  -2.0493733748264E-05
(PID.TID 0001.0001) %MON vort_a_sd                    =   7.5053949896412E-05
(PID.TID 0001.0001) %MON vort_p_mean                  =  -2.4715771956227E-05
(PID.TID 0001.0001) %MON vort_p_sd                    =   1.2777053529813E-04
(PID.TID 0001.0001) %MON surfExpan_theta_mean         =   5.9559362664127E-08
(PID.TID 0001.0001) %MON surfExpan_salt_mean          =   1.5790249165644E-08
(PID.TID 0001.0001) // =======================================================
(PID.TID 0001.0001) // End MONITOR dynamic field statistics
(PID.TID 0001.0001) // =======================================================
 DRIVER_GET_EXPORT_STATE_3D:MASK. This code is stubbed!
 DRIVER_SET_IMPORT_STATE_3D:SWHEAT. This code is stubbed!
 cg2d: Sum(rhs),rhsMax =  -9.74864633462857E-12  1.39759279794746E+00
(PID.TID 0001.0001)                    cg2d_init_res =    1.26074345345661E-01
(PID.TID 0001.0001)                       cg2d_iters =    59
(PID.TID 0001.0001)                         cg2d_res =    5.70373621124709E-07
(PID.TID 0001.0001) // =======================================================
(PID.TID 0001.0001) // Begin MONITOR dynamic field statistics
(PID.TID 0001.0001) // =======================================================
(PID.TID 0001.0001) %MON time_tsnumber                =                 72059
(PID.TID 0001.0001) %MON time_secondsf                =   6.2258976000000E+09
(PID.TID 0001.0001) %MON dynstat_eta_max              =   8.7486215277037E-01
(PID.TID 0001.0001) %MON dynstat_eta_min              =  -1.5994762016981E+00
(PID.TID 0001.0001) %MON dynstat_eta_mean             =   1.4152755429523E-14
(PID.TID 0001.0001) %MON dynstat_eta_sd               =   5.9647109408008E-01
(PID.TID 0001.0001) %MON dynstat_eta_del2             =   1.1407757395514E-02
(PID.TID 0001.0001) %MON dynstat_uvel_max             =   1.8094671633726E-01
(PID.TID 0001.0001) %MON dynstat_uvel_min             =  -2.5365697239925E-01
(PID.TID 0001.0001) %MON dynstat_uvel_mean            =  -4.5948289512232E-04
(PID.TID 0001.0001) %MON dynstat_uvel_sd              =   1.1923109654306E-02
(PID.TID 0001.0001) %MON dynstat_uvel_del2            =   1.5767924167289E-03
(PID.TID 0001.0001) %MON dynstat_vvel_max             =   1.6866503916688E-01
(PID.TID 0001.0001) %MON dynstat_vvel_min             =  -2.2316080318687E-01
(PID.TID 0001.0001) %MON dynstat_vvel_mean            =  -3.7603565242376E-04
(PID.TID 0001.0001) %MON dynstat_vvel_sd              =   1.2621012653479E-02
(PID.TID 0001.0001) %MON dynstat_vvel_del2            =   1.5955368904413E-03
(PID.TID 0001.0001) %MON dynstat_wvel_max             =   1.0635360271244E-04
(PID.TID 0001.0001) %MON dynstat_wvel_min             =  -2.0074077190886E-04
(PID.TID 0001.0001) %MON dynstat_wvel_mean            =  -2.8027362172194E-10
(PID.TID 0001.0001) %MON dynstat_wvel_sd              =   3.6053712327908E-06
(PID.TID 0001.0001) %MON dynstat_wvel_del2            =   8.3819496732695E-07
(PID.TID 0001.0001) %MON dynstat_theta_max            =   3.1275581747067E+01
(PID.TID 0001.0001) %MON dynstat_theta_min            =  -4.0847662289495E+00
(PID.TID 0001.0001) %MON dynstat_theta_mean           =   3.9126293467674E+00
(PID.TID 0001.0001) %MON dynstat_theta_sd             =   4.5828478104522E+00
(PID.TID 0001.0001) %MON dynstat_theta_del2           =   8.9290504789103E-02
(PID.TID 0001.0001) %MON dynstat_salt_max             =   4.1423923519829E+01
(PID.TID 0001.0001) %MON dynstat_salt_min             =   1.8417405240485E+01
(PID.TID 0001.0001) %MON dynstat_salt_mean            =   3.4772116465482E+01
(PID.TID 0001.0001) %MON dynstat_salt_sd              =   5.3125486201488E-01
(PID.TID 0001.0001) %MON dynstat_salt_del2            =   1.8926329732273E-02
(PID.TID 0001.0001) %MON dynstat_sst_max              =   3.1275581747067E+01
(PID.TID 0001.0001) %MON dynstat_sst_min              =  -1.9759788144638E+00
(PID.TID 0001.0001) %MON dynstat_sst_mean             =   1.8401432912873E+01
(PID.TID 0001.0001) %MON dynstat_sst_sd               =   9.8726526196255E+00
(PID.TID 0001.0001) %MON dynstat_sst_del2             =   2.1496717796711E-01
(PID.TID 0001.0001) %MON dynstat_sss_max              =   4.1423923519829E+01
(PID.TID 0001.0001) %MON dynstat_sss_min              =   1.8417405240485E+01
(PID.TID 0001.0001) %MON dynstat_sss_mean             =   3.4620581023726E+01
(PID.TID 0001.0001) %MON dynstat_sss_sd               =   1.4562292511724E+00
(PID.TID 0001.0001) %MON dynstat_sss_del2             =   8.0351139732730E-02
(PID.TID 0001.0001) %MON extforcing_qnet_max          =   3.3065214585515E+02
(PID.TID 0001.0001) %MON extforcing_qnet_min          =  -1.7610041800446E+02
(PID.TID 0001.0001) %MON extforcing_qnet_mean         =  -1.1056048084014E+01
(PID.TID 0001.0001) %MON extforcing_qnet_sd           =   7.1638081119421E+01
(PID.TID 0001.0001) %MON extforcing_qnet_del2         =   4.7410538995631E+00
(PID.TID 0001.0001) %MON extforcing_qsw_max           =   0.0000000000000E+00
(PID.TID 0001.0001) %MON extforcing_qsw_min           =   0.0000000000000E+00
(PID.TID 0001.0001) %MON extforcing_qsw_mean          =   0.0000000000000E+00
(PID.TID 0001.0001) %MON extforcing_qsw_sd            =   0.0000000000000E+00
(PID.TID 0001.0001) %MON extforcing_qsw_del2          =   0.0000000000000E+00
(PID.TID 0001.0001) %MON extforcing_empmr_max         =   7.6494447208479E-08
(PID.TID 0001.0001) %MON extforcing_empmr_min         =  -1.5362614137596E-07
(PID.TID 0001.0001) %MON extforcing_empmr_mean        =  -2.0474999028391E-24
(PID.TID 0001.0001) %MON extforcing_empmr_sd          =   2.4051723601802E-08
(PID.TID 0001.0001) %MON extforcing_empmr_del2        =   1.2835223797615E-09
(PID.TID 0001.0001) %MON extforcing_fu_max            =   2.5909272556586E-01
(PID.TID 0001.0001) %MON extforcing_fu_min            =  -2.7240689135013E-01
(PID.TID 0001.0001) %MON extforcing_fu_mean           =  -6.4870159434705E-03
(PID.TID 0001.0001) %MON extforcing_fu_sd             =   6.6319674848488E-02
(PID.TID 0001.0001) %MON extforcing_fu_del2           =   2.8295834305394E-03
(PID.TID 0001.0001) %MON extforcing_fv_max            =   2.5811342004621E-01
(PID.TID 0001.0001) %MON extforcing_fv_min            =  -3.1860782719427E-01
(PID.TID 0001.0001) %MON extforcing_fv_mean           =  -1.3240316865361E-02
(PID.TID 0001.0001) %MON extforcing_fv_sd             =   7.5911011794231E-02
(PID.TID 0001.0001) %MON extforcing_fv_del2           =   3.0920593756690E-03
(PID.TID 0001.0001) %MON advcfl_uvel_max              =   7.2232422719104E-02
(PID.TID 0001.0001) %MON advcfl_vvel_max              =   7.3518714383643E-02
(PID.TID 0001.0001) %MON advcfl_wvel_max              =   6.5449066765757E-02
(PID.TID 0001.0001) %MON advcfl_W_hf_max              =   8.0700845475095E-02
(PID.TID 0001.0001) %MON pe_b_mean                    =   4.7396173074971E-04
(PID.TID 0001.0001) %MON ke_max                       =   3.4917193662908E-02
(PID.TID 0001.0001) %MON ke_mean                      =   1.3937156064879E-04
(PID.TID 0001.0001) %MON ke_vol                       =   1.3398024453628E+18
(PID.TID 0001.0001) %MON vort_r_min                   =  -1.3354030803085E-06
(PID.TID 0001.0001) %MON vort_r_max                   =   1.1549383124775E-06
(PID.TID 0001.0001) %MON vort_a_mean                  =  -2.0493733748264E-05
(PID.TID 0001.0001) %MON vort_a_sd                    =   7.5053950186736E-05
(PID.TID 0001.0001) %MON vort_p_mean                  =  -2.4715771913315E-05
(PID.TID 0001.0001) %MON vort_p_sd                    =   1.2777053665011E-04
(PID.TID 0001.0001) %MON surfExpan_theta_mean         =   5.9736931305527E-08
(PID.TID 0001.0001) %MON surfExpan_salt_mean          =   1.5813357662162E-08
(PID.TID 0001.0001) // =======================================================
(PID.TID 0001.0001) // End MONITOR dynamic field statistics
(PID.TID 0001.0001) // =======================================================
 DRIVER_GET_EXPORT_STATE_3D:MASK. This code is stubbed!
 DRIVER_SET_IMPORT_STATE_3D:SWHEAT. This code is stubbed!
 cg2d: Sum(rhs),rhsMax =  -9.77706804405898E-12  1.39671770066043E+00
(PID.TID 0001.0001)                    cg2d_init_res =    1.25170212722847E-01
(PID.TID 0001.0001)                       cg2d_iters =    59
(PID.TID 0001.0001)                         cg2d_res =    5.79124011165695E-07
(PID.TID 0001.0001) // =======================================================
(PID.TID 0001.0001) // Begin MONITOR dynamic field statistics
(PID.TID 0001.0001) // =======================================================
(PID.TID 0001.0001) %MON time_tsnumber                =                 72060
(PID.TID 0001.0001) %MON time_secondsf                =   6.2259840000000E+09
(PID.TID 0001.0001) %MON dynstat_eta_max              =   8.7507177478047E-01
(PID.TID 0001.0001) %MON dynstat_eta_min              =  -1.5996458544002E+00
(PID.TID 0001.0001) %MON dynstat_eta_mean             =   1.4647414842594E-14
(PID.TID 0001.0001) %MON dynstat_eta_sd               =   5.9659637978358E-01
(PID.TID 0001.0001) %MON dynstat_eta_del2             =   1.1407472590122E-02
(PID.TID 0001.0001) %MON dynstat_uvel_max             =   1.8175410335431E-01
(PID.TID 0001.0001) %MON dynstat_uvel_min             =  -2.5299009555859E-01
(PID.TID 0001.0001) %MON dynstat_uvel_mean            =  -4.5864936021412E-04
(PID.TID 0001.0001) %MON dynstat_uvel_sd              =   1.1914897228002E-02
(PID.TID 0001.0001) %MON dynstat_uvel_del2            =   1.5766889665766E-03
(PID.TID 0001.0001) %MON dynstat_vvel_max             =   1.6899112994503E-01
(PID.TID 0001.0001) %MON dynstat_vvel_min             =  -2.2313204200554E-01
(PID.TID 0001.0001) %MON dynstat_vvel_mean            =  -3.7558495998503E-04
(PID.TID 0001.0001) %MON dynstat_vvel_sd              =   1.2625932614362E-02
(PID.TID 0001.0001) %MON dynstat_vvel_del2            =   1.5959819722044E-03
(PID.TID 0001.0001) %MON dynstat_wvel_max             =   1.0670358352510E-04
(PID.TID 0001.0001) %MON dynstat_wvel_min             =  -2.0065687745646E-04
(PID.TID 0001.0001) %MON dynstat_wvel_mean            =  -3.0828659852446E-10
(PID.TID 0001.0001) %MON dynstat_wvel_sd              =   3.5996889764411E-06
(PID.TID 0001.0001) %MON dynstat_wvel_del2            =   8.3829571025154E-07
(PID.TID 0001.0001) %MON dynstat_theta_max            =   3.1290477042031E+01
(PID.TID 0001.0001) %MON dynstat_theta_min            =  -4.0953838237433E+00
(PID.TID 0001.0001) %MON dynstat_theta_mean           =   3.9126669881393E+00
(PID.TID 0001.0001) %MON dynstat_theta_sd             =   4.5831237556005E+00
(PID.TID 0001.0001) %MON dynstat_theta_del2           =   8.9327200524280E-02
(PID.TID 0001.0001) %MON dynstat_salt_max             =   4.1424745275765E+01
(PID.TID 0001.0001) %MON dynstat_salt_min             =   1.8417590416697E+01
(PID.TID 0001.0001) %MON dynstat_salt_mean            =   3.4772117546241E+01
(PID.TID 0001.0001) %MON dynstat_salt_sd              =   5.3125043288054E-01
(PID.TID 0001.0001) %MON dynstat_salt_del2            =   1.8931613856827E-02
(PID.TID 0001.0001) %MON dynstat_sst_max              =   3.1290477042031E+01
(PID.TID 0001.0001) %MON dynstat_sst_min              =  -1.9746339653815E+00
(PID.TID 0001.0001) %MON dynstat_sst_mean             =   1.8403823070080E+01
(PID.TID 0001.0001) %MON dynstat_sst_sd               =   9.8789698123992E+00
(PID.TID 0001.0001) %MON dynstat_sst_del2             =   2.1494781246587E-01
(PID.TID 0001.0001) %MON dynstat_sss_max              =   4.1424745275765E+01
(PID.TID 0001.0001) %MON dynstat_sss_min              =   1.8417590416697E+01
(PID.TID 0001.0001) %MON dynstat_sss_mean             =   3.4620561243690E+01
(PID.TID 0001.0001) %MON dynstat_sss_sd               =   1.4560763277044E+00
(PID.TID 0001.0001) %MON dynstat_sss_del2             =   8.0367136017925E-02
(PID.TID 0001.0001) %MON extforcing_qnet_max          =   3.3042634335178E+02
(PID.TID 0001.0001) %MON extforcing_qnet_min          =  -1.7660851259454E+02
(PID.TID 0001.0001) %MON extforcing_qnet_mean         =  -1.0852729938019E+01
(PID.TID 0001.0001) %MON extforcing_qnet_sd           =   7.0657056700312E+01
(PID.TID 0001.0001) %MON extforcing_qnet_del2         =   4.7344857993798E+00
(PID.TID 0001.0001) %MON extforcing_qsw_max           =   0.0000000000000E+00
(PID.TID 0001.0001) %MON extforcing_qsw_min           =   0.0000000000000E+00
(PID.TID 0001.0001) %MON extforcing_qsw_mean          =   0.0000000000000E+00
(PID.TID 0001.0001) %MON extforcing_qsw_sd            =   0.0000000000000E+00
(PID.TID 0001.0001) %MON extforcing_qsw_del2          =   0.0000000000000E+00
(PID.TID 0001.0001) %MON extforcing_empmr_max         =   7.6494447208479E-08
(PID.TID 0001.0001) %MON extforcing_empmr_min         =  -1.5362614137596E-07
(PID.TID 0001.0001) %MON extforcing_empmr_mean        =  -2.4569998834069E-24
(PID.TID 0001.0001) %MON extforcing_empmr_sd          =   2.4051723601802E-08
(PID.TID 0001.0001) %MON extforcing_empmr_del2        =   1.2835223797615E-09
(PID.TID 0001.0001) %MON extforcing_fu_max            =   2.5900680920623E-01
(PID.TID 0001.0001) %MON extforcing_fu_min            =  -2.7674482002417E-01
(PID.TID 0001.0001) %MON extforcing_fu_mean           =  -6.6118586931754E-03
(PID.TID 0001.0001) %MON extforcing_fu_sd             =   6.6471533039760E-02
(PID.TID 0001.0001) %MON extforcing_fu_del2           =   2.8258676395316E-03
(PID.TID 0001.0001) %MON extforcing_fv_max            =   2.5607026525915E-01
(PID.TID 0001.0001) %MON extforcing_fv_min            =  -3.1974616055058E-01
(PID.TID 0001.0001) %MON extforcing_fv_mean           =  -1.3205658011949E-02
(PID.TID 0001.0001) %MON extforcing_fv_sd             =   7.6028555516371E-02
(PID.TID 0001.0001) %MON extforcing_fv_del2           =   3.0928390285071E-03
(PID.TID 0001.0001) %MON advcfl_uvel_max              =   7.2183316959543E-02
(PID.TID 0001.0001) %MON advcfl_vvel_max              =   7.3660852759804E-02
(PID.TID 0001.0001) %MON advcfl_wvel_max              =   6.5421714008444E-02
(PID.TID 0001.0001) %MON advcfl_W_hf_max              =   8.0667140761329E-02
(PID.TID 0001.0001) %MON pe_b_mean                    =   4.7416085813662E-04
(PID.TID 0001.0001) %MON ke_max                       =   3.4884890178386E-02
(PID.TID 0001.0001) %MON ke_mean                      =   1.3933874291717E-04
(PID.TID 0001.0001) %MON ke_vol                       =   1.3398024453628E+18
(PID.TID 0001.0001) %MON vort_r_min                   =  -1.3352059016516E-06
(PID.TID 0001.0001) %MON vort_r_max                   =   1.1570394261094E-06
(PID.TID 0001.0001) %MON vort_a_mean                  =  -2.0493733748264E-05
(PID.TID 0001.0001) %MON vort_a_sd                    =   7.5053950483923E-05
(PID.TID 0001.0001) %MON vort_p_mean                  =  -2.4715771863348E-05
(PID.TID 0001.0001) %MON vort_p_sd                    =   1.2777053899024E-04
(PID.TID 0001.0001) %MON surfExpan_theta_mean         =   5.9829218660187E-08
(PID.TID 0001.0001) %MON surfExpan_salt_mean          =   1.5809474035623E-08
(PID.TID 0001.0001) // =======================================================
(PID.TID 0001.0001) // End MONITOR dynamic field statistics
(PID.TID 0001.0001) // =======================================================
(PID.TID 0001.0001) %CHECKPOINT     72060 0000072060
 DRIVER_GET_EXPORT_STATE_3D:MASK. This code is stubbed!
 DRIVER_SET_IMPORT_STATE_3D:SWHEAT. This code is stubbed!
 cg2d: Sum(rhs),rhsMax =  -9.54969436861575E-12  1.39524532791107E+00
(PID.TID 0001.0001)                    cg2d_init_res =    1.24648918004171E-01
(PID.TID 0001.0001)                       cg2d_iters =    60
(PID.TID 0001.0001)                         cg2d_res =    5.19146781286561E-07
(PID.TID 0001.0001) // =======================================================
(PID.TID 0001.0001) // Begin MONITOR dynamic field statistics
(PID.TID 0001.0001) // =======================================================
(PID.TID 0001.0001) %MON time_tsnumber                =                 72061
(PID.TID 0001.0001) %MON time_secondsf                =   6.2260704000000E+09
(PID.TID 0001.0001) %MON dynstat_eta_max              =   8.7530880889082E-01
(PID.TID 0001.0001) %MON dynstat_eta_min              =  -1.5998085004157E+00
(PID.TID 0001.0001) %MON dynstat_eta_mean             =   1.4400085136058E-14
(PID.TID 0001.0001) %MON dynstat_eta_sd               =   5.9673619890722E-01
(PID.TID 0001.0001) %MON dynstat_eta_del2             =   1.1407286226847E-02
(PID.TID 0001.0001) %MON dynstat_uvel_max             =   1.8256714018514E-01
(PID.TID 0001.0001) %MON dynstat_uvel_min             =  -2.5232828040890E-01
(PID.TID 0001.0001) %MON dynstat_uvel_mean            =  -4.5779462628502E-04
(PID.TID 0001.0001) %MON dynstat_uvel_sd              =   1.1906804165107E-02
(PID.TID 0001.0001) %MON dynstat_uvel_del2            =   1.5765693294293E-03
(PID.TID 0001.0001) %MON dynstat_vvel_max             =   1.6932024248143E-01
(PID.TID 0001.0001) %MON dynstat_vvel_min             =  -2.2309759256898E-01
(PID.TID 0001.0001) %MON dynstat_vvel_mean            =  -3.7511298077504E-04
(PID.TID 0001.0001) %MON dynstat_vvel_sd              =   1.2630871613060E-02
(PID.TID 0001.0001) %MON dynstat_vvel_del2            =   1.5964713926771E-03
(PID.TID 0001.0001) %MON dynstat_wvel_max             =   1.0704324927907E-04
(PID.TID 0001.0001) %MON dynstat_wvel_min             =  -2.0054121940153E-04
(PID.TID 0001.0001) %MON dynstat_wvel_mean            =  -3.3207919532625E-10
(PID.TID 0001.0001) %MON dynstat_wvel_sd              =   3.5939618286184E-06
(PID.TID 0001.0001) %MON dynstat_wvel_del2            =   8.3839547771395E-07
(PID.TID 0001.0001) %MON dynstat_theta_max            =   3.1304751466518E+01
(PID.TID 0001.0001) %MON dynstat_theta_min            =  -4.1053296910296E+00
(PID.TID 0001.0001) %MON dynstat_theta_mean           =   3.9127030301017E+00
(PID.TID 0001.0001) %MON dynstat_theta_sd             =   4.5833974183828E+00
(PID.TID 0001.0001) %MON dynstat_theta_del2           =   8.9367049416933E-02
(PID.TID 0001.0001) %MON dynstat_salt_max             =   4.1425575016680E+01
(PID.TID 0001.0001) %MON dynstat_salt_min             =   1.8417757780315E+01
(PID.TID 0001.0001) %MON dynstat_salt_mean            =   3.4772118629073E+01
(PID.TID 0001.0001) %MON dynstat_salt_sd              =   5.3124602370945E-01
(PID.TID 0001.0001) %MON dynstat_salt_del2            =   1.8937229112901E-02
(PID.TID 0001.0001) %MON dynstat_sst_max              =   3.1304751466518E+01
(PID.TID 0001.0001) %MON dynstat_sst_min              =  -1.9732886715851E+00
(PID.TID 0001.0001) %MON dynstat_sst_mean             =   1.8406004263163E+01
(PID.TID 0001.0001) %MON dynstat_sst_sd               =   9.8853953013228E+00
(PID.TID 0001.0001) %MON dynstat_sst_del2             =   2.1492627794362E-01
(PID.TID 0001.0001) %MON dynstat_sss_max              =   4.1425575016680E+01
(PID.TID 0001.0001) %MON dynstat_sss_min              =   1.8417757780315E+01
(PID.TID 0001.0001) %MON dynstat_sss_mean             =   3.4620549313222E+01
(PID.TID 0001.0001) %MON dynstat_sss_sd               =   1.4559337914705E+00
(PID.TID 0001.0001) %MON dynstat_sss_del2             =   8.0388781354453E-02
(PID.TID 0001.0001) %MON extforcing_qnet_max          =   3.3020054084842E+02
(PID.TID 0001.0001) %MON extforcing_qnet_min          =  -1.7711660718462E+02
(PID.TID 0001.0001) %MON extforcing_qnet_mean         =  -1.0649411792024E+01
(PID.TID 0001.0001) %MON extforcing_qnet_sd           =   6.9708706778299E+01
(PID.TID 0001.0001) %MON extforcing_qnet_del2         =   4.7301636876176E+00
(PID.TID 0001.0001) %MON extforcing_qsw_max           =   0.0000000000000E+00
(PID.TID 0001.0001) %MON extforcing_qsw_min           =   0.0000000000000E+00
(PID.TID 0001.0001) %MON extforcing_qsw_mean          =   0.0000000000000E+00
(PID.TID 0001.0001) %MON extforcing_qsw_sd            =   0.0000000000000E+00
(PID.TID 0001.0001) %MON extforcing_qsw_del2          =   0.0000000000000E+00
(PID.TID 0001.0001) %MON extforcing_empmr_max         =   7.6494447208479E-08
(PID.TID 0001.0001) %MON extforcing_empmr_min         =  -1.5362614137596E-07
(PID.TID 0001.0001) %MON extforcing_empmr_mean        =  -2.0474999028391E-24
(PID.TID 0001.0001) %MON extforcing_empmr_sd          =   2.4051723601802E-08
(PID.TID 0001.0001) %MON extforcing_empmr_del2        =   1.2835223797615E-09
(PID.TID 0001.0001) %MON extforcing_fu_max            =   2.5892089284660E-01
(PID.TID 0001.0001) %MON extforcing_fu_min            =  -2.8108274869822E-01
(PID.TID 0001.0001) %MON extforcing_fu_mean           =  -6.7367028150875E-03
(PID.TID 0001.0001) %MON extforcing_fu_sd             =   6.6638429995399E-02
(PID.TID 0001.0001) %MON extforcing_fu_del2           =   2.8260358270503E-03
(PID.TID 0001.0001) %MON extforcing_fv_max            =   2.5402711047209E-01
(PID.TID 0001.0001) %MON extforcing_fv_min            =  -3.2088449390690E-01
(PID.TID 0001.0001) %MON extforcing_fv_mean           =  -1.3170999379075E-02
(PID.TID 0001.0001) %MON extforcing_fv_sd             =   7.6166533896386E-02
(PID.TID 0001.0001) %MON extforcing_fv_del2           =   3.0961341890117E-03
(PID.TID 0001.0001) %MON advcfl_uvel_max              =   7.2133431033557E-02
(PID.TID 0001.0001) %MON advcfl_vvel_max              =   7.3804308277811E-02
(PID.TID 0001.0001) %MON advcfl_wvel_max              =   6.5384005118084E-02
(PID.TID 0001.0001) %MON advcfl_W_hf_max              =   8.0620669916615E-02
(PID.TID 0001.0001) %MON pe_b_mean                    =   4.7438313412286E-04
(PID.TID 0001.0001) %MON ke_max                       =   3.4852385326638E-02
(PID.TID 0001.0001) %MON ke_mean                      =   1.3930752326036E-04
(PID.TID 0001.0001) %MON ke_vol                       =   1.3398024453628E+18
(PID.TID 0001.0001) %MON vort_r_min                   =  -1.3349506971496E-06
(PID.TID 0001.0001) %MON vort_r_max                   =   1.1595881183534E-06
(PID.TID 0001.0001) %MON vort_a_mean                  =  -2.0493733748264E-05
(PID.TID 0001.0001) %MON vort_a_sd                    =   7.5053950785145E-05
(PID.TID 0001.0001) %MON vort_p_mean                  =  -2.4715771806923E-05
(PID.TID 0001.0001) %MON vort_p_sd                    =   1.2777054228912E-04
(PID.TID 0001.0001) %MON surfExpan_theta_mean         =   5.9855842649250E-08
(PID.TID 0001.0001) %MON surfExpan_salt_mean          =   1.5782088819593E-08
(PID.TID 0001.0001) // =======================================================
(PID.TID 0001.0001) // End MONITOR dynamic field statistics
(PID.TID 0001.0001) // =======================================================
 DRIVER_GET_EXPORT_STATE_3D:MASK. This code is stubbed!
 DRIVER_SET_IMPORT_STATE_3D:SWHEAT. This code is stubbed!
 cg2d: Sum(rhs),rhsMax =  -9.74864633462857E-12  1.39419304960465E+00
(PID.TID 0001.0001)                    cg2d_init_res =    1.24329674292960E-01
(PID.TID 0001.0001)                       cg2d_iters =    60
(PID.TID 0001.0001)                         cg2d_res =    5.33275168377441E-07
(PID.TID 0001.0001) // =======================================================
(PID.TID 0001.0001) // Begin MONITOR dynamic field statistics
(PID.TID 0001.0001) // =======================================================
(PID.TID 0001.0001) %MON time_tsnumber                =                 72062
(PID.TID 0001.0001) %MON time_secondsf                =   6.2261568000000E+09
(PID.TID 0001.0001) %MON dynstat_eta_max              =   8.7557282786783E-01
(PID.TID 0001.0001) %MON dynstat_eta_min              =  -1.5999638234214E+00
(PID.TID 0001.0001) %MON dynstat_eta_mean             =   1.4400085136058E-14
(PID.TID 0001.0001) %MON dynstat_eta_sd               =   5.9688988492105E-01
(PID.TID 0001.0001) %MON dynstat_eta_del2             =   1.1407023555676E-02
(PID.TID 0001.0001) %MON dynstat_uvel_max             =   1.8337975053018E-01
(PID.TID 0001.0001) %MON dynstat_uvel_min             =  -2.5205377872608E-01
(PID.TID 0001.0001) %MON dynstat_uvel_mean            =  -4.5692870671922E-04
(PID.TID 0001.0001) %MON dynstat_uvel_sd              =   1.1898939157395E-02
(PID.TID 0001.0001) %MON dynstat_uvel_del2            =   1.5763897403985E-03
(PID.TID 0001.0001) %MON dynstat_vvel_max             =   1.6964957673940E-01
(PID.TID 0001.0001) %MON dynstat_vvel_min             =  -2.2305732860468E-01
(PID.TID 0001.0001) %MON dynstat_vvel_mean            =  -3.7461744424840E-04
(PID.TID 0001.0001) %MON dynstat_vvel_sd              =   1.2635776464024E-02
(PID.TID 0001.0001) %MON dynstat_vvel_del2            =   1.5971123379360E-03
(PID.TID 0001.0001) %MON dynstat_wvel_max             =   1.0736658462097E-04
(PID.TID 0001.0001) %MON dynstat_wvel_min             =  -2.0039556107225E-04
(PID.TID 0001.0001) %MON dynstat_wvel_mean            =  -3.5055012940570E-10
(PID.TID 0001.0001) %MON dynstat_wvel_sd              =   3.5882243561799E-06
(PID.TID 0001.0001) %MON dynstat_wvel_del2            =   8.3865048627936E-07
(PID.TID 0001.0001) %MON dynstat_theta_max            =   3.1318397359675E+01
(PID.TID 0001.0001) %MON dynstat_theta_min            =  -4.1145856465637E+00
(PID.TID 0001.0001) %MON dynstat_theta_mean           =   3.9127375692211E+00
(PID.TID 0001.0001) %MON dynstat_theta_sd             =   4.5836688939952E+00
(PID.TID 0001.0001) %MON dynstat_theta_del2           =   8.9404894881763E-02
(PID.TID 0001.0001) %MON dynstat_salt_max             =   4.1426412436854E+01
(PID.TID 0001.0001) %MON dynstat_salt_min             =   1.8417908157791E+01
(PID.TID 0001.0001) %MON dynstat_salt_mean            =   3.4772119713609E+01
(PID.TID 0001.0001) %MON dynstat_salt_sd              =   5.3124164338438E-01
(PID.TID 0001.0001) %MON dynstat_salt_del2            =   1.8942398885914E-02
(PID.TID 0001.0001) %MON dynstat_sst_max              =   3.1318397359675E+01
(PID.TID 0001.0001) %MON dynstat_sst_min              =  -1.9719305261741E+00
(PID.TID 0001.0001) %MON dynstat_sst_mean             =   1.8407998352348E+01
(PID.TID 0001.0001) %MON dynstat_sst_sd               =   9.8919260889900E+00
(PID.TID 0001.0001) %MON dynstat_sst_del2             =   2.1489388156107E-01
(PID.TID 0001.0001) %MON dynstat_sss_max              =   4.1426412436854E+01
(PID.TID 0001.0001) %MON dynstat_sss_min              =   1.8417908157791E+01
(PID.TID 0001.0001) %MON dynstat_sss_mean             =   3.4620542122948E+01
(PID.TID 0001.0001) %MON dynstat_sss_sd               =   1.4557909372600E+00
(PID.TID 0001.0001) %MON dynstat_sss_del2             =   8.0408525413044E-02
(PID.TID 0001.0001) %MON extforcing_qnet_max          =   3.2997473834505E+02
(PID.TID 0001.0001) %MON extforcing_qnet_min          =  -1.7762470177470E+02
(PID.TID 0001.0001) %MON extforcing_qnet_mean         =  -1.0446093646029E+01
(PID.TID 0001.0001) %MON extforcing_qnet_sd           =   6.8794382648063E+01
(PID.TID 0001.0001) %MON extforcing_qnet_del2         =   4.7273653396334E+00
(PID.TID 0001.0001) %MON extforcing_qsw_max           =   0.0000000000000E+00
(PID.TID 0001.0001) %MON extforcing_qsw_min           =   0.0000000000000E+00
(PID.TID 0001.0001) %MON extforcing_qsw_mean          =   0.0000000000000E+00
(PID.TID 0001.0001) %MON extforcing_qsw_sd            =   0.0000000000000E+00
(PID.TID 0001.0001) %MON extforcing_qsw_del2          =   0.0000000000000E+00
(PID.TID 0001.0001) %MON extforcing_empmr_max         =   7.6494447208479E-08
(PID.TID 0001.0001) %MON extforcing_empmr_min         =  -1.5362614137596E-07
(PID.TID 0001.0001) %MON extforcing_empmr_mean        =  -2.4569998834069E-24
(PID.TID 0001.0001) %MON extforcing_empmr_sd          =   2.4051723601802E-08
(PID.TID 0001.0001) %MON extforcing_empmr_del2        =   1.2835223797615E-09
(PID.TID 0001.0001) %MON extforcing_fu_max            =   2.5883497648697E-01
(PID.TID 0001.0001) %MON extforcing_fu_min            =  -2.8542067737226E-01
(PID.TID 0001.0001) %MON extforcing_fu_mean           =  -6.8615480385292E-03
(PID.TID 0001.0001) %MON extforcing_fu_sd             =   6.6820252781684E-02
(PID.TID 0001.0001) %MON extforcing_fu_del2           =   2.8292023131203E-03
(PID.TID 0001.0001) %MON extforcing_fv_max            =   2.5198395568503E-01
(PID.TID 0001.0001) %MON extforcing_fv_min            =  -3.2202282726322E-01
(PID.TID 0001.0001) %MON extforcing_fv_mean           =  -1.3136340855754E-02
(PID.TID 0001.0001) %MON extforcing_fv_sd             =   7.6324835834898E-02
(PID.TID 0001.0001) %MON extforcing_fv_del2           =   3.1034110628267E-03
(PID.TID 0001.0001) %MON advcfl_uvel_max              =   7.2082759994192E-02
(PID.TID 0001.0001) %MON advcfl_vvel_max              =   7.3947860441128E-02
(PID.TID 0001.0001) %MON advcfl_wvel_max              =   6.5336515006197E-02
(PID.TID 0001.0001) %MON advcfl_W_hf_max              =   8.0562141807869E-02
(PID.TID 0001.0001) %MON pe_b_mean                    =   4.7462751494411E-04
(PID.TID 0001.0001) %MON ke_max                       =   3.4819628689839E-02
(PID.TID 0001.0001) %MON ke_mean                      =   1.3927846744093E-04
(PID.TID 0001.0001) %MON ke_vol                       =   1.3398024453628E+18
(PID.TID 0001.0001) %MON vort_r_min                   =  -1.3346394520244E-06
(PID.TID 0001.0001) %MON vort_r_max                   =   1.1625589029770E-06
(PID.TID 0001.0001) %MON vort_a_mean                  =  -2.0493733748264E-05
(PID.TID 0001.0001) %MON vort_a_sd                    =   7.5053951087577E-05
(PID.TID 0001.0001) %MON vort_p_mean                  =  -2.4715771744798E-05
(PID.TID 0001.0001) %MON vort_p_sd                    =   1.2777054650645E-04
(PID.TID 0001.0001) %MON surfExpan_theta_mean         =   5.9846231927981E-08
(PID.TID 0001.0001) %MON surfExpan_salt_mean          =   1.5736962990418E-08
(PID.TID 0001.0001) // =======================================================
(PID.TID 0001.0001) // End MONITOR dynamic field statistics
(PID.TID 0001.0001) // =======================================================
 DRIVER_GET_EXPORT_STATE_3D:MASK. This code is stubbed!
 DRIVER_SET_IMPORT_STATE_3D:SWHEAT. This code is stubbed!
 cg2d: Sum(rhs),rhsMax =  -9.26547727431171E-12  1.39255285371090E+00
(PID.TID 0001.0001)                    cg2d_init_res =    1.24000646134667E-01
(PID.TID 0001.0001)                       cg2d_iters =    60
(PID.TID 0001.0001)                         cg2d_res =    5.48519019297217E-07
(PID.TID 0001.0001) // =======================================================
(PID.TID 0001.0001) // Begin MONITOR dynamic field statistics
(PID.TID 0001.0001) // =======================================================
(PID.TID 0001.0001) %MON time_tsnumber                =                 72063
(PID.TID 0001.0001) %MON time_secondsf                =   6.2262432000000E+09
(PID.TID 0001.0001) %MON dynstat_eta_max              =   8.7586478029717E-01
(PID.TID 0001.0001) %MON dynstat_eta_min              =  -1.6001120068034E+00
(PID.TID 0001.0001) %MON dynstat_eta_mean             =   1.4537490528578E-14
(PID.TID 0001.0001) %MON dynstat_eta_sd               =   5.9705651467916E-01
(PID.TID 0001.0001) %MON dynstat_eta_del2             =   1.1406897367599E-02
(PID.TID 0001.0001) %MON dynstat_uvel_max             =   1.8418607457681E-01
(PID.TID 0001.0001) %MON dynstat_uvel_min             =  -2.5187383655222E-01
(PID.TID 0001.0001) %MON dynstat_uvel_mean            =  -4.5606252804308E-04
(PID.TID 0001.0001) %MON dynstat_uvel_sd              =   1.1891407119721E-02
(PID.TID 0001.0001) %MON dynstat_uvel_del2            =   1.5761643988014E-03
(PID.TID 0001.0001) %MON dynstat_vvel_max             =   1.6997641996615E-01
(PID.TID 0001.0001) %MON dynstat_vvel_min             =  -2.2301113043537E-01
(PID.TID 0001.0001) %MON dynstat_vvel_mean            =  -3.7409528466629E-04
(PID.TID 0001.0001) %MON dynstat_vvel_sd              =   1.2640594780592E-02
(PID.TID 0001.0001) %MON dynstat_vvel_del2            =   1.5978015171694E-03
(PID.TID 0001.0001) %MON dynstat_wvel_max             =   1.0766798101663E-04
(PID.TID 0001.0001) %MON dynstat_wvel_min             =  -2.0022211156495E-04
(PID.TID 0001.0001) %MON dynstat_wvel_mean            =  -3.6358743733627E-10
(PID.TID 0001.0001) %MON dynstat_wvel_sd              =   3.5825087872536E-06
(PID.TID 0001.0001) %MON dynstat_wvel_del2            =   8.3892826215886E-07
(PID.TID 0001.0001) %MON dynstat_theta_max            =   3.1331406811126E+01
(PID.TID 0001.0001) %MON dynstat_theta_min            =  -4.1231481108341E+00
(PID.TID 0001.0001) %MON dynstat_theta_mean           =   3.9127705900874E+00
(PID.TID 0001.0001) %MON dynstat_theta_sd             =   4.5839382813528E+00
(PID.TID 0001.0001) %MON dynstat_theta_del2           =   8.9440375653274E-02
(PID.TID 0001.0001) %MON dynstat_salt_max             =   4.1427257225875E+01
(PID.TID 0001.0001) %MON dynstat_salt_min             =   1.8418042147984E+01
(PID.TID 0001.0001) %MON dynstat_salt_mean            =   3.4772120799513E+01
(PID.TID 0001.0001) %MON dynstat_salt_sd              =   5.3123727671284E-01
(PID.TID 0001.0001) %MON dynstat_salt_del2            =   1.8946982632575E-02
(PID.TID 0001.0001) %MON dynstat_sst_max              =   3.1331406811126E+01
(PID.TID 0001.0001) %MON dynstat_sst_min              =  -1.9705470571353E+00
(PID.TID 0001.0001) %MON dynstat_sst_mean             =   1.8409782662648E+01
(PID.TID 0001.0001) %MON dynstat_sst_sd               =   9.8985541601072E+00
(PID.TID 0001.0001) %MON dynstat_sst_del2             =   2.1484646889188E-01
(PID.TID 0001.0001) %MON dynstat_sss_max              =   4.1427257225875E+01
(PID.TID 0001.0001) %MON dynstat_sss_min              =   1.8418042147984E+01
(PID.TID 0001.0001) %MON dynstat_sss_mean             =   3.4620538817230E+01
(PID.TID 0001.0001) %MON dynstat_sss_sd               =   1.4556486709708E+00
(PID.TID 0001.0001) %MON dynstat_sss_del2             =   8.0426533817471E-02
(PID.TID 0001.0001) %MON extforcing_qnet_max          =   3.2974893584169E+02
(PID.TID 0001.0001) %MON extforcing_qnet_min          =  -1.7813279636478E+02
(PID.TID 0001.0001) %MON extforcing_qnet_mean         =  -1.0242775500034E+01
(PID.TID 0001.0001) %MON extforcing_qnet_sd           =   6.7915458558614E+01
(PID.TID 0001.0001) %MON extforcing_qnet_del2         =   4.7266061747935E+00
(PID.TID 0001.0001) %MON extforcing_qsw_max           =   0.0000000000000E+00
(PID.TID 0001.0001) %MON extforcing_qsw_min           =   0.0000000000000E+00
(PID.TID 0001.0001) %MON extforcing_qsw_mean          =   0.0000000000000E+00
(PID.TID 0001.0001) %MON extforcing_qsw_sd            =   0.0000000000000E+00
(PID.TID 0001.0001) %MON extforcing_qsw_del2          =   0.0000000000000E+00
(PID.TID 0001.0001) %MON extforcing_empmr_max         =   7.6494447208479E-08
(PID.TID 0001.0001) %MON extforcing_empmr_min         =  -1.5362614137596E-07
(PID.TID 0001.0001) %MON extforcing_empmr_mean        =  -2.0474999028391E-24
(PID.TID 0001.0001) %MON extforcing_empmr_sd          =   2.4051723601802E-08
(PID.TID 0001.0001) %MON extforcing_empmr_del2        =   1.2835223797615E-09
(PID.TID 0001.0001) %MON extforcing_fu_max            =   2.5874906012734E-01
(PID.TID 0001.0001) %MON extforcing_fu_min            =  -2.8975860604630E-01
(PID.TID 0001.0001) %MON extforcing_fu_mean           =  -6.9863940259520E-03
(PID.TID 0001.0001) %MON extforcing_fu_sd             =   6.7016879713851E-02
(PID.TID 0001.0001) %MON extforcing_fu_del2           =   2.8347078381876E-03
(PID.TID 0001.0001) %MON extforcing_fv_max            =   2.4994080089797E-01
(PID.TID 0001.0001) %MON extforcing_fv_min            =  -3.2316116061954E-01
(PID.TID 0001.0001) %MON extforcing_fv_mean           =  -1.3101682399977E-02
(PID.TID 0001.0001) %MON extforcing_fv_sd             =   7.6503334895978E-02
(PID.TID 0001.0001) %MON extforcing_fv_del2           =   3.1136273219816E-03
(PID.TID 0001.0001) %MON advcfl_uvel_max              =   7.2031299831218E-02
(PID.TID 0001.0001) %MON advcfl_vvel_max              =   7.4090326799035E-02
(PID.TID 0001.0001) %MON advcfl_wvel_max              =   6.5279963921554E-02
(PID.TID 0001.0001) %MON advcfl_W_hf_max              =   8.0492444483147E-02
(PID.TID 0001.0001) %MON pe_b_mean                    =   4.7489254911242E-04
(PID.TID 0001.0001) %MON ke_max                       =   3.4786569699193E-02
(PID.TID 0001.0001) %MON ke_mean                      =   1.3925210541652E-04
(PID.TID 0001.0001) %MON ke_vol                       =   1.3398024453628E+18
(PID.TID 0001.0001) %MON vort_r_min                   =  -1.3342740764795E-06
(PID.TID 0001.0001) %MON vort_r_max                   =   1.1659472558451E-06
(PID.TID 0001.0001) %MON vort_a_mean                  =  -2.0493733748264E-05
(PID.TID 0001.0001) %MON vort_a_sd                    =   7.5053951388519E-05
(PID.TID 0001.0001) %MON vort_p_mean                  =  -2.4715771678068E-05
(PID.TID 0001.0001) %MON vort_p_sd                    =   1.2777055157801E-04
(PID.TID 0001.0001) %MON surfExpan_theta_mean         =   5.9811364894865E-08
(PID.TID 0001.0001) %MON surfExpan_salt_mean          =   1.5680785869222E-08
(PID.TID 0001.0001) // =======================================================
(PID.TID 0001.0001) // End MONITOR dynamic field statistics
(PID.TID 0001.0001) // =======================================================
 DRIVER_GET_EXPORT_STATE_3D:MASK. This code is stubbed!
 DRIVER_SET_IMPORT_STATE_3D:SWHEAT. This code is stubbed!
 cg2d: Sum(rhs),rhsMax =  -9.72022462519817E-12  1.39142585182114E+00
(PID.TID 0001.0001)                    cg2d_init_res =    1.23870767474868E-01
(PID.TID 0001.0001)                       cg2d_iters =    60
(PID.TID 0001.0001)                         cg2d_res =    5.63387601081599E-07
(PID.TID 0001.0001) // =======================================================
(PID.TID 0001.0001) // Begin MONITOR dynamic field statistics
(PID.TID 0001.0001) // =======================================================
(PID.TID 0001.0001) %MON time_tsnumber                =                 72064
(PID.TID 0001.0001) %MON time_secondsf                =   6.2263296000000E+09
(PID.TID 0001.0001) %MON dynstat_eta_max              =   8.7618573260481E-01
(PID.TID 0001.0001) %MON dynstat_eta_min              =  -1.6002542800529E+00
(PID.TID 0001.0001) %MON dynstat_eta_mean             =   1.4400085136058E-14
(PID.TID 0001.0001) %MON dynstat_eta_sd               =   5.9723493342874E-01
(PID.TID 0001.0001) %MON dynstat_eta_del2             =   1.1406708232079E-02
(PID.TID 0001.0001) %MON dynstat_uvel_max             =   1.8498053143008E-01
(PID.TID 0001.0001) %MON dynstat_uvel_min             =  -2.5169112214322E-01
(PID.TID 0001.0001) %MON dynstat_uvel_mean            =  -4.5520675913237E-04
(PID.TID 0001.0001) %MON dynstat_uvel_sd              =   1.1884303271751E-02
(PID.TID 0001.0001) %MON dynstat_uvel_del2            =   1.5759697016560E-03
(PID.TID 0001.0001) %MON dynstat_vvel_max             =   1.7029820909474E-01
(PID.TID 0001.0001) %MON dynstat_vvel_min             =  -2.2295888730476E-01
(PID.TID 0001.0001) %MON dynstat_vvel_mean            =  -3.7354220788051E-04
(PID.TID 0001.0001) %MON dynstat_vvel_sd              =   1.2645281755174E-02
(PID.TID 0001.0001) %MON dynstat_vvel_del2            =   1.5984364521529E-03
(PID.TID 0001.0001) %MON dynstat_wvel_max             =   1.0794238668938E-04
(PID.TID 0001.0001) %MON dynstat_wvel_min             =  -2.0002349293392E-04
(PID.TID 0001.0001) %MON dynstat_wvel_mean            =  -3.7104923524063E-10
(PID.TID 0001.0001) %MON dynstat_wvel_sd              =   3.5768463829194E-06
(PID.TID 0001.0001) %MON dynstat_wvel_del2            =   8.3918300469558E-07
(PID.TID 0001.0001) %MON dynstat_theta_max            =   3.1343771677886E+01
(PID.TID 0001.0001) %MON dynstat_theta_min            =  -4.1309995965440E+00
(PID.TID 0001.0001) %MON dynstat_theta_mean           =   3.9128021746896E+00
(PID.TID 0001.0001) %MON dynstat_theta_sd             =   4.5842056391912E+00
(PID.TID 0001.0001) %MON dynstat_theta_del2           =   8.9472969034368E-02
(PID.TID 0001.0001) %MON dynstat_salt_max             =   4.1428109097786E+01
(PID.TID 0001.0001) %MON dynstat_salt_min             =   1.8418160197123E+01
(PID.TID 0001.0001) %MON dynstat_salt_mean            =   3.4772121886434E+01
(PID.TID 0001.0001) %MON dynstat_salt_sd              =   5.3123290342149E-01
(PID.TID 0001.0001) %MON dynstat_salt_del2            =   1.8951882878338E-02
(PID.TID 0001.0001) %MON dynstat_sst_max              =   3.1343771677886E+01
(PID.TID 0001.0001) %MON dynstat_sst_min              =  -1.9691259192811E+00
(PID.TID 0001.0001) %MON dynstat_sst_mean             =   1.8411374855533E+01
(PID.TID 0001.0001) %MON dynstat_sst_sd               =   9.9052908307226E+00
(PID.TID 0001.0001) %MON dynstat_sst_del2             =   2.1477846246678E-01
(PID.TID 0001.0001) %MON dynstat_sss_max              =   4.1428109097786E+01
(PID.TID 0001.0001) %MON dynstat_sss_min              =   1.8418160197123E+01
(PID.TID 0001.0001) %MON dynstat_sss_mean             =   3.4620534932725E+01
(PID.TID 0001.0001) %MON dynstat_sss_sd               =   1.4554976285999E+00
(PID.TID 0001.0001) %MON dynstat_sss_del2             =   8.0440766560656E-02
(PID.TID 0001.0001) %MON extforcing_qnet_max          =   3.2952313333832E+02
(PID.TID 0001.0001) %MON extforcing_qnet_min          =  -1.7864089095486E+02
(PID.TID 0001.0001) %MON extforcing_qnet_mean         =  -1.0039457354039E+01
(PID.TID 0001.0001) %MON extforcing_qnet_sd           =   6.7073326163230E+01
(PID.TID 0001.0001) %MON extforcing_qnet_del2         =   4.7278017605161E+00
(PID.TID 0001.0001) %MON extforcing_qsw_max           =   0.0000000000000E+00
(PID.TID 0001.0001) %MON extforcing_qsw_min           =   0.0000000000000E+00
(PID.TID 0001.0001) %MON extforcing_qsw_mean          =   0.0000000000000E+00
(PID.TID 0001.0001) %MON extforcing_qsw_sd            =   0.0000000000000E+00
(PID.TID 0001.0001) %MON extforcing_qsw_del2          =   0.0000000000000E+00
(PID.TID 0001.0001) %MON extforcing_empmr_max         =   7.6494447208479E-08
(PID.TID 0001.0001) %MON extforcing_empmr_min         =  -1.5362614137596E-07
(PID.TID 0001.0001) %MON extforcing_empmr_mean        =  -2.0474999028391E-24
(PID.TID 0001.0001) %MON extforcing_empmr_sd          =   2.4051723601802E-08
(PID.TID 0001.0001) %MON extforcing_empmr_del2        =   1.2835223797615E-09
(PID.TID 0001.0001) %MON extforcing_fu_max            =   2.5866314376771E-01
(PID.TID 0001.0001) %MON extforcing_fu_min            =  -2.9409653472035E-01
(PID.TID 0001.0001) %MON extforcing_fu_mean           =  -7.1112404002910E-03
(PID.TID 0001.0001) %MON extforcing_fu_sd             =   6.7228180751418E-02
(PID.TID 0001.0001) %MON extforcing_fu_del2           =   2.8425308649583E-03
(PID.TID 0001.0001) %MON extforcing_fv_max            =   2.4789764611091E-01
(PID.TID 0001.0001) %MON extforcing_fv_min            =  -3.2429949397585E-01
(PID.TID 0001.0001) %MON extforcing_fv_mean           =  -1.3067024031213E-02
(PID.TID 0001.0001) %MON extforcing_fv_sd             =   7.6701889805562E-02
(PID.TID 0001.0001) %MON extforcing_fv_del2           =   3.1275472520097E-03
(PID.TID 0001.0001) %MON advcfl_uvel_max              =   7.1979046859817E-02
(PID.TID 0001.0001) %MON advcfl_vvel_max              =   7.4230590146750E-02
(PID.TID 0001.0001) %MON advcfl_wvel_max              =   6.5215206752794E-02
(PID.TID 0001.0001) %MON advcfl_W_hf_max              =   8.0412631831906E-02
(PID.TID 0001.0001) %MON pe_b_mean                    =   4.7517641635993E-04
(PID.TID 0001.0001) %MON ke_max                       =   3.4753157026847E-02
(PID.TID 0001.0001) %MON ke_mean                      =   1.3922894605451E-04
(PID.TID 0001.0001) %MON ke_vol                       =   1.3398024453628E+18
(PID.TID 0001.0001) %MON vort_r_min                   =  -1.3338563756219E-06
(PID.TID 0001.0001) %MON vort_r_max                   =   1.1697261333609E-06
(PID.TID 0001.0001) %MON vort_a_mean                  =  -2.0493733748264E-05
(PID.TID 0001.0001) %MON vort_a_sd                    =   7.5053951685580E-05
(PID.TID 0001.0001) %MON vort_p_mean                  =  -2.4715771607721E-05
(PID.TID 0001.0001) %MON vort_p_sd                    =   1.2777055742686E-04
(PID.TID 0001.0001) %MON surfExpan_theta_mean         =   5.9769890508544E-08
(PID.TID 0001.0001) %MON surfExpan_salt_mean          =   1.5620818297218E-08
(PID.TID 0001.0001) // =======================================================
(PID.TID 0001.0001) // End MONITOR dynamic field statistics
(PID.TID 0001.0001) // =======================================================
 DRIVER_GET_EXPORT_STATE_3D:MASK. This code is stubbed!
 DRIVER_SET_IMPORT_STATE_3D:SWHEAT. This code is stubbed!
 cg2d: Sum(rhs),rhsMax =  -9.57811607804615E-12  1.38972432256977E+00
(PID.TID 0001.0001)                    cg2d_init_res =    1.23920388455609E-01
(PID.TID 0001.0001)                       cg2d_iters =    60
(PID.TID 0001.0001)                         cg2d_res =    5.78703935763775E-07
(PID.TID 0001.0001) // =======================================================
(PID.TID 0001.0001) // Begin MONITOR dynamic field statistics
(PID.TID 0001.0001) // =======================================================
(PID.TID 0001.0001) %MON time_tsnumber                =                 72065
(PID.TID 0001.0001) %MON time_secondsf                =   6.2264160000000E+09
(PID.TID 0001.0001) %MON dynstat_eta_max              =   8.7653697940069E-01
(PID.TID 0001.0001) %MON dynstat_eta_min              =  -1.6003927493816E+00
(PID.TID 0001.0001) %MON dynstat_eta_mean             =   1.4345122979050E-14
(PID.TID 0001.0001) %MON dynstat_eta_sd               =   5.9742384902519E-01
(PID.TID 0001.0001) %MON dynstat_eta_del2             =   1.1406317170828E-02
(PID.TID 0001.0001) %MON dynstat_uvel_max             =   1.8575787489043E-01
(PID.TID 0001.0001) %MON dynstat_uvel_min             =  -2.5150562174625E-01
(PID.TID 0001.0001) %MON dynstat_uvel_mean            =  -4.5437065763342E-04
(PID.TID 0001.0001) %MON dynstat_uvel_sd              =   1.1877714520059E-02
(PID.TID 0001.0001) %MON dynstat_uvel_del2            =   1.5757187763577E-03
(PID.TID 0001.0001) %MON dynstat_vvel_max             =   1.7061247853972E-01
(PID.TID 0001.0001) %MON dynstat_vvel_min             =  -2.2296538145034E-01
(PID.TID 0001.0001) %MON dynstat_vvel_mean            =  -3.7295357770311E-04
(PID.TID 0001.0001) %MON dynstat_vvel_sd              =   1.2649795215949E-02
(PID.TID 0001.0001) %MON dynstat_vvel_del2            =   1.5989547748114E-03
(PID.TID 0001.0001) %MON dynstat_wvel_max             =   1.0818533376393E-04
(PID.TID 0001.0001) %MON dynstat_wvel_min             =  -1.9980266894511E-04
(PID.TID 0001.0001) %MON dynstat_wvel_mean            =  -3.7339560026550E-10
(PID.TID 0001.0001) %MON dynstat_wvel_sd              =   3.5712706153984E-06
(PID.TID 0001.0001) %MON dynstat_wvel_del2            =   8.3939322797078E-07
(PID.TID 0001.0001) %MON dynstat_theta_max            =   3.1355483606767E+01
(PID.TID 0001.0001) %MON dynstat_theta_min            =  -4.1381406813690E+00
(PID.TID 0001.0001) %MON dynstat_theta_mean           =   3.9128323338444E+00
(PID.TID 0001.0001) %MON dynstat_theta_sd             =   4.5844712035700E+00
(PID.TID 0001.0001) %MON dynstat_theta_del2           =   8.9506425299887E-02
(PID.TID 0001.0001) %MON dynstat_salt_max             =   4.1428967815316E+01
(PID.TID 0001.0001) %MON dynstat_salt_min             =   1.8418262667575E+01
(PID.TID 0001.0001) %MON dynstat_salt_mean            =   3.4772122974168E+01
(PID.TID 0001.0001) %MON dynstat_salt_sd              =   5.3122859635909E-01
(PID.TID 0001.0001) %MON dynstat_salt_del2            =   1.8955783389394E-02
(PID.TID 0001.0001) %MON dynstat_sst_max              =   3.1355483606767E+01
(PID.TID 0001.0001) %MON dynstat_sst_min              =  -1.9676551468934E+00
(PID.TID 0001.0001) %MON dynstat_sst_mean             =   1.8412762920514E+01
(PID.TID 0001.0001) %MON dynstat_sst_sd               =   9.9121174627944E+00
(PID.TID 0001.0001) %MON dynstat_sst_del2             =   2.1471627217235E-01
(PID.TID 0001.0001) %MON dynstat_sss_max              =   4.1428967815316E+01
(PID.TID 0001.0001) %MON dynstat_sss_min              =   1.8418262667575E+01
(PID.TID 0001.0001) %MON dynstat_sss_mean             =   3.4620535751347E+01
(PID.TID 0001.0001) %MON dynstat_sss_sd               =   1.4553478401632E+00
(PID.TID 0001.0001) %MON dynstat_sss_del2             =   8.0451451129294E-02
(PID.TID 0001.0001) %MON extforcing_qnet_max          =   3.2929733083495E+02
(PID.TID 0001.0001) %MON extforcing_qnet_min          =  -1.7914898554494E+02
(PID.TID 0001.0001) %MON extforcing_qnet_mean         =  -9.8361392080444E+00
(PID.TID 0001.0001) %MON extforcing_qnet_sd           =   6.6269388091673E+01
(PID.TID 0001.0001) %MON extforcing_qnet_del2         =   4.7313866140348E+00
(PID.TID 0001.0001) %MON extforcing_qsw_max           =   0.0000000000000E+00
(PID.TID 0001.0001) %MON extforcing_qsw_min           =   0.0000000000000E+00
(PID.TID 0001.0001) %MON extforcing_qsw_mean          =   0.0000000000000E+00
(PID.TID 0001.0001) %MON extforcing_qsw_sd            =   0.0000000000000E+00
(PID.TID 0001.0001) %MON extforcing_qsw_del2          =   0.0000000000000E+00
(PID.TID 0001.0001) %MON extforcing_empmr_max         =   7.6494447208479E-08
(PID.TID 0001.0001) %MON extforcing_empmr_min         =  -1.5362614137596E-07
(PID.TID 0001.0001) %MON extforcing_empmr_mean        =  -1.2284999417034E-24
(PID.TID 0001.0001) %MON extforcing_empmr_sd          =   2.4051723601802E-08
(PID.TID 0001.0001) %MON extforcing_empmr_del2        =   1.2835223797615E-09
(PID.TID 0001.0001) %MON extforcing_fu_max            =   2.5857722740809E-01
(PID.TID 0001.0001) %MON extforcing_fu_min            =  -2.9843446339439E-01
(PID.TID 0001.0001) %MON extforcing_fu_mean           =  -7.2360867755391E-03
(PID.TID 0001.0001) %MON extforcing_fu_sd             =   6.7454017921960E-02
(PID.TID 0001.0001) %MON extforcing_fu_del2           =   2.8526872794846E-03
(PID.TID 0001.0001) %MON extforcing_fv_max            =   2.4587058052972E-01
(PID.TID 0001.0001) %MON extforcing_fv_min            =  -3.2543782733217E-01
(PID.TID 0001.0001) %MON extforcing_fv_mean           =  -1.3032365764837E-02
(PID.TID 0001.0001) %MON extforcing_fv_sd             =   7.6920345000296E-02
(PID.TID 0001.0001) %MON extforcing_fv_del2           =   3.1452124671227E-03
(PID.TID 0001.0001) %MON advcfl_uvel_max              =   7.1925997146931E-02
(PID.TID 0001.0001) %MON advcfl_vvel_max              =   7.4367575770320E-02
(PID.TID 0001.0001) %MON advcfl_wvel_max              =   6.5143209799464E-02
(PID.TID 0001.0001) %MON advcfl_W_hf_max              =   8.0323894951196E-02
(PID.TID 0001.0001) %MON pe_b_mean                    =   4.7547707671552E-04
(PID.TID 0001.0001) %MON ke_max                       =   3.4719337977475E-02
(PID.TID 0001.0001) %MON ke_mean                      =   1.3920943493549E-04
(PID.TID 0001.0001) %MON ke_vol                       =   1.3398024453628E+18
(PID.TID 0001.0001) %MON vort_r_min                   =  -1.3333880189323E-06
(PID.TID 0001.0001) %MON vort_r_max                   =   1.1738859727178E-06
(PID.TID 0001.0001) %MON vort_a_mean                  =  -2.0493733748264E-05
(PID.TID 0001.0001) %MON vort_a_sd                    =   7.5053951976756E-05
(PID.TID 0001.0001) %MON vort_p_mean                  =  -2.4715771534940E-05
(PID.TID 0001.0001) %MON vort_p_sd                    =   1.2777056395890E-04
(PID.TID 0001.0001) %MON surfExpan_theta_mean         =   5.9724039247008E-08
(PID.TID 0001.0001) %MON surfExpan_salt_mean          =   1.5563026411613E-08
(PID.TID 0001.0001) // =======================================================
(PID.TID 0001.0001) // End MONITOR dynamic field statistics
(PID.TID 0001.0001) // =======================================================
 DRIVER_GET_EXPORT_STATE_3D:MASK. This code is stubbed!
 DRIVER_SET_IMPORT_STATE_3D:SWHEAT. This code is stubbed!
 cg2d: Sum(rhs),rhsMax =  -1.00328634289326E-11  1.38861461262686E+00
(PID.TID 0001.0001)                    cg2d_init_res =    1.23885430602180E-01
(PID.TID 0001.0001)                       cg2d_iters =    61
(PID.TID 0001.0001)                         cg2d_res =    5.30200458767253E-07
(PID.TID 0001.0001) // =======================================================
(PID.TID 0001.0001) // Begin MONITOR dynamic field statistics
(PID.TID 0001.0001) // =======================================================
(PID.TID 0001.0001) %MON time_tsnumber                =                 72066
(PID.TID 0001.0001) %MON time_secondsf                =   6.2265024000000E+09
(PID.TID 0001.0001) %MON dynstat_eta_max              =   8.7692008852695E-01
(PID.TID 0001.0001) %MON dynstat_eta_min              =  -1.6005304091475E+00
(PID.TID 0001.0001) %MON dynstat_eta_mean             =   1.4345122979050E-14
(PID.TID 0001.0001) %MON dynstat_eta_sd               =   5.9762185582732E-01
(PID.TID 0001.0001) %MON dynstat_eta_del2             =   1.1406025307504E-02
(PID.TID 0001.0001) %MON dynstat_uvel_max             =   1.8651324269500E-01
(PID.TID 0001.0001) %MON dynstat_uvel_min             =  -2.5131731769288E-01
(PID.TID 0001.0001) %MON dynstat_uvel_mean            =  -4.5356169303771E-04
(PID.TID 0001.0001) %MON dynstat_uvel_sd              =   1.1871711788485E-02
(PID.TID 0001.0001) %MON dynstat_uvel_del2            =   1.5753624829211E-03
(PID.TID 0001.0001) %MON dynstat_vvel_max             =   1.7091691394350E-01
(PID.TID 0001.0001) %MON dynstat_vvel_min             =  -2.2297170359833E-01
(PID.TID 0001.0001) %MON dynstat_vvel_mean            =  -3.7232434063927E-04
(PID.TID 0001.0001) %MON dynstat_vvel_sd              =   1.2654104075454E-02
(PID.TID 0001.0001) %MON dynstat_vvel_del2            =   1.5994062226664E-03
(PID.TID 0001.0001) %MON dynstat_wvel_max             =   1.0839300147781E-04
(PID.TID 0001.0001) %MON dynstat_wvel_min             =  -1.9956286174391E-04
(PID.TID 0001.0001) %MON dynstat_wvel_mean            =  -3.7102232531334E-10
(PID.TID 0001.0001) %MON dynstat_wvel_sd              =   3.5658045281929E-06
(PID.TID 0001.0001) %MON dynstat_wvel_del2            =   8.3944883409237E-07
(PID.TID 0001.0001) %MON dynstat_theta_max            =   3.1366534060990E+01
(PID.TID 0001.0001) %MON dynstat_theta_min            =  -4.1445553024430E+00
(PID.TID 0001.0001) %MON dynstat_theta_mean           =   3.9128611129409E+00
(PID.TID 0001.0001) %MON dynstat_theta_sd             =   4.5847350231477E+00
(PID.TID 0001.0001) %MON dynstat_theta_del2           =   8.9539116177336E-02
(PID.TID 0001.0001) %MON dynstat_salt_max             =   4.1429833201526E+01
(PID.TID 0001.0001) %MON dynstat_salt_min             =   1.8418349889661E+01
(PID.TID 0001.0001) %MON dynstat_salt_mean            =   3.4772124062445E+01
(PID.TID 0001.0001) %MON dynstat_salt_sd              =   5.3122430493188E-01
(PID.TID 0001.0001) %MON dynstat_salt_del2            =   1.8958241407739E-02
(PID.TID 0001.0001) %MON dynstat_sst_max              =   3.1366534060990E+01
(PID.TID 0001.0001) %MON dynstat_sst_min              =  -1.9661233312099E+00
(PID.TID 0001.0001) %MON dynstat_sst_mean             =   1.8413978387589E+01
(PID.TID 0001.0001) %MON dynstat_sst_sd               =   9.9190527822208E+00
(PID.TID 0001.0001) %MON dynstat_sst_del2             =   2.1464467400424E-01
(PID.TID 0001.0001) %MON dynstat_sss_max              =   4.1429833201526E+01
(PID.TID 0001.0001) %MON dynstat_sss_min              =   1.8418349889661E+01
(PID.TID 0001.0001) %MON dynstat_sss_mean             =   3.4620538600709E+01
(PID.TID 0001.0001) %MON dynstat_sss_sd               =   1.4551925685671E+00
(PID.TID 0001.0001) %MON dynstat_sss_del2             =   8.0455783445912E-02
(PID.TID 0001.0001) %MON extforcing_qnet_max          =   3.2907152833159E+02
(PID.TID 0001.0001) %MON extforcing_qnet_min          =  -1.7965708013502E+02
(PID.TID 0001.0001) %MON extforcing_qnet_mean         =  -9.6328210620495E+00
(PID.TID 0001.0001) %MON extforcing_qnet_sd           =   6.5505050626375E+01
(PID.TID 0001.0001) %MON extforcing_qnet_del2         =   4.7376266604615E+00
(PID.TID 0001.0001) %MON extforcing_qsw_max           =   0.0000000000000E+00
(PID.TID 0001.0001) %MON extforcing_qsw_min           =   0.0000000000000E+00
(PID.TID 0001.0001) %MON extforcing_qsw_mean          =   0.0000000000000E+00
(PID.TID 0001.0001) %MON extforcing_qsw_sd            =   0.0000000000000E+00
(PID.TID 0001.0001) %MON extforcing_qsw_del2          =   0.0000000000000E+00
(PID.TID 0001.0001) %MON extforcing_empmr_max         =   7.6494447208479E-08
(PID.TID 0001.0001) %MON extforcing_empmr_min         =  -1.5362614137596E-07
(PID.TID 0001.0001) %MON extforcing_empmr_mean        =  -2.0474999028391E-24
(PID.TID 0001.0001) %MON extforcing_empmr_sd          =   2.4051723601802E-08
(PID.TID 0001.0001) %MON extforcing_empmr_del2        =   1.2835223797615E-09
(PID.TID 0001.0001) %MON extforcing_fu_max            =   2.5849131104846E-01
(PID.TID 0001.0001) %MON extforcing_fu_min            =  -3.0277239206844E-01
(PID.TID 0001.0001) %MON extforcing_fu_mean           =  -7.3609327663552E-03
(PID.TID 0001.0001) %MON extforcing_fu_sd             =   6.7694245721330E-02
(PID.TID 0001.0001) %MON extforcing_fu_del2           =   2.8663214677298E-03
(PID.TID 0001.0001) %MON extforcing_fv_max            =   2.4705217940950E-01
(PID.TID 0001.0001) %MON extforcing_fv_min            =  -3.2657616068849E-01
(PID.TID 0001.0001) %MON extforcing_fv_mean           =  -1.2997707617762E-02
(PID.TID 0001.0001) %MON extforcing_fv_sd             =   7.7158531228745E-02
(PID.TID 0001.0001) %MON extforcing_fv_del2           =   3.1661395629574E-03
(PID.TID 0001.0001) %MON advcfl_uvel_max              =   7.2127680653652E-02
(PID.TID 0001.0001) %MON advcfl_vvel_max              =   7.4500274873880E-02
(PID.TID 0001.0001) %MON advcfl_wvel_max              =   6.5065023602543E-02
(PID.TID 0001.0001) %MON advcfl_W_hf_max              =   8.0227528706189E-02
(PID.TID 0001.0001) %MON pe_b_mean                    =   4.7579230784494E-04
(PID.TID 0001.0001) %MON ke_max                       =   3.4685057594798E-02
(PID.TID 0001.0001) %MON ke_mean                      =   1.3919397044770E-04
(PID.TID 0001.0001) %MON ke_vol                       =   1.3398024453628E+18
(PID.TID 0001.0001) %MON vort_r_min                   =  -1.3328705109869E-06
(PID.TID 0001.0001) %MON vort_r_max                   =   1.1783904546092E-06
(PID.TID 0001.0001) %MON vort_a_mean                  =  -2.0493733748264E-05
(PID.TID 0001.0001) %MON vort_a_sd                    =   7.5053952260525E-05
(PID.TID 0001.0001) %MON vort_p_mean                  =  -2.4715771460538E-05
(PID.TID 0001.0001) %MON vort_p_sd                    =   1.2777057107062E-04
(PID.TID 0001.0001) %MON surfExpan_theta_mean         =   5.9683038748262E-08
(PID.TID 0001.0001) %MON surfExpan_salt_mean          =   1.5512018923465E-08
(PID.TID 0001.0001) // =======================================================
(PID.TID 0001.0001) // End MONITOR dynamic field statistics
(PID.TID 0001.0001) // =======================================================
 DRIVER_GET_EXPORT_STATE_3D:MASK. This code is stubbed!
 DRIVER_SET_IMPORT_STATE_3D:SWHEAT. This code is stubbed!
 cg2d: Sum(rhs),rhsMax =  -9.66338120633736E-12  1.38695969215980E+00
(PID.TID 0001.0001)                    cg2d_init_res =    1.23955694141669E-01
(PID.TID 0001.0001)                       cg2d_iters =    61
(PID.TID 0001.0001)                         cg2d_res =    5.41330688641450E-07
(PID.TID 0001.0001) // =======================================================
(PID.TID 0001.0001) // Begin MONITOR dynamic field statistics
(PID.TID 0001.0001) // =======================================================
(PID.TID 0001.0001) %MON time_tsnumber                =                 72067
(PID.TID 0001.0001) %MON time_secondsf                =   6.2265888000000E+09
(PID.TID 0001.0001) %MON dynstat_eta_max              =   8.7733645233088E-01
(PID.TID 0001.0001) %MON dynstat_eta_min              =  -1.6006703834289E+00
(PID.TID 0001.0001) %MON dynstat_eta_mean             =   1.4180236508027E-14
(PID.TID 0001.0001) %MON dynstat_eta_sd               =   5.9782745827265E-01
(PID.TID 0001.0001) %MON dynstat_eta_del2             =   1.1406015692489E-02
(PID.TID 0001.0001) %MON dynstat_uvel_max             =   1.8724219930252E-01
(PID.TID 0001.0001) %MON dynstat_uvel_min             =  -2.5112618662897E-01
(PID.TID 0001.0001) %MON dynstat_uvel_mean            =  -4.5278504176773E-04
(PID.TID 0001.0001) %MON dynstat_uvel_sd              =   1.1866352910647E-02
(PID.TID 0001.0001) %MON dynstat_uvel_del2            =   1.5750179742528E-03
(PID.TID 0001.0001) %MON dynstat_vvel_max             =   1.7120927902580E-01
(PID.TID 0001.0001) %MON dynstat_vvel_min             =  -2.2297109260208E-01
(PID.TID 0001.0001) %MON dynstat_vvel_mean            =  -3.7165029756628E-04
(PID.TID 0001.0001) %MON dynstat_vvel_sd              =   1.2658182507597E-02
(PID.TID 0001.0001) %MON dynstat_vvel_del2            =   1.5998009331093E-03
(PID.TID 0001.0001) %MON dynstat_wvel_max             =   1.0856244660656E-04
(PID.TID 0001.0001) %MON dynstat_wvel_min             =  -1.9930743651754E-04
(PID.TID 0001.0001) %MON dynstat_wvel_mean            =  -3.6486773334525E-10
(PID.TID 0001.0001) %MON dynstat_wvel_sd              =   3.5604726173747E-06
(PID.TID 0001.0001) %MON dynstat_wvel_del2            =   8.3956936304541E-07
(PID.TID 0001.0001) %MON dynstat_theta_max            =   3.1376914351415E+01
(PID.TID 0001.0001) %MON dynstat_theta_min            =  -4.1502478895183E+00
(PID.TID 0001.0001) %MON dynstat_theta_mean           =   3.9128885514500E+00
(PID.TID 0001.0001) %MON dynstat_theta_sd             =   4.5849971452870E+00
(PID.TID 0001.0001) %MON dynstat_theta_del2           =   8.9570818994699E-02
(PID.TID 0001.0001) %MON dynstat_salt_max             =   4.1430705139571E+01
(PID.TID 0001.0001) %MON dynstat_salt_min             =   1.8418422191734E+01
(PID.TID 0001.0001) %MON dynstat_salt_mean            =   3.4772125151117E+01
(PID.TID 0001.0001) %MON dynstat_salt_sd              =   5.3122001490036E-01
(PID.TID 0001.0001) %MON dynstat_salt_del2            =   1.8960289138526E-02
(PID.TID 0001.0001) %MON dynstat_sst_max              =   3.1376914351415E+01
(PID.TID 0001.0001) %MON dynstat_sst_min              =  -1.9672218642653E+00
(PID.TID 0001.0001) %MON dynstat_sst_mean             =   1.8414991674792E+01
(PID.TID 0001.0001) %MON dynstat_sst_sd               =   9.9260875812763E+00
(PID.TID 0001.0001) %MON dynstat_sst_del2             =   2.1456556720509E-01
(PID.TID 0001.0001) %MON dynstat_sss_max              =   4.1430705139571E+01
(PID.TID 0001.0001) %MON dynstat_sss_min              =   1.8418422191734E+01
(PID.TID 0001.0001) %MON dynstat_sss_mean             =   3.4620546117959E+01
(PID.TID 0001.0001) %MON dynstat_sss_sd               =   1.4550419049751E+00
(PID.TID 0001.0001) %MON dynstat_sss_del2             =   8.0455301483230E-02
(PID.TID 0001.0001) %MON extforcing_qnet_max          =   3.2884572582822E+02
(PID.TID 0001.0001) %MON extforcing_qnet_min          =  -1.8016517472510E+02
(PID.TID 0001.0001) %MON extforcing_qnet_mean         =  -9.4295029160547E+00
(PID.TID 0001.0001) %MON extforcing_qnet_sd           =   6.4781715484823E+01
(PID.TID 0001.0001) %MON extforcing_qnet_del2         =   4.7462992459240E+00
(PID.TID 0001.0001) %MON extforcing_qsw_max           =   0.0000000000000E+00
(PID.TID 0001.0001) %MON extforcing_qsw_min           =   0.0000000000000E+00
(PID.TID 0001.0001) %MON extforcing_qsw_mean          =   0.0000000000000E+00
(PID.TID 0001.0001) %MON extforcing_qsw_sd            =   0.0000000000000E+00
(PID.TID 0001.0001) %MON extforcing_qsw_del2          =   0.0000000000000E+00
(PID.TID 0001.0001) %MON extforcing_empmr_max         =   7.6494447208479E-08
(PID.TID 0001.0001) %MON extforcing_empmr_min         =  -1.5362614137596E-07
(PID.TID 0001.0001) %MON extforcing_empmr_mean        =  -2.4569998834069E-24
(PID.TID 0001.0001) %MON extforcing_empmr_sd          =   2.4051723601802E-08
(PID.TID 0001.0001) %MON extforcing_empmr_del2        =   1.2835223797615E-09
(PID.TID 0001.0001) %MON extforcing_fu_max            =   2.5840539468883E-01
(PID.TID 0001.0001) %MON extforcing_fu_min            =  -3.0711032074248E-01
(PID.TID 0001.0001) %MON extforcing_fu_mean           =  -7.4857780355143E-03
(PID.TID 0001.0001) %MON extforcing_fu_sd             =   6.7948711543439E-02
(PID.TID 0001.0001) %MON extforcing_fu_del2           =   2.8826576702628E-03
(PID.TID 0001.0001) %MON extforcing_fv_max            =   2.4823377828927E-01
(PID.TID 0001.0001) %MON extforcing_fv_min            =  -3.2771449404481E-01
(PID.TID 0001.0001) %MON extforcing_fv_mean           =  -1.2963049591471E-02
(PID.TID 0001.0001) %MON extforcing_fv_sd             =   7.7416266177029E-02
(PID.TID 0001.0001) %MON extforcing_fv_del2           =   3.1888806019347E-03
(PID.TID 0001.0001) %MON advcfl_uvel_max              =   7.2481961975825E-02
(PID.TID 0001.0001) %MON advcfl_vvel_max              =   7.4627712694353E-02
(PID.TID 0001.0001) %MON advcfl_wvel_max              =   6.4981745340059E-02
(PID.TID 0001.0001) %MON advcfl_W_hf_max              =   8.0124885390096E-02
(PID.TID 0001.0001) %MON pe_b_mean                    =   4.7611974195208E-04
(PID.TID 0001.0001) %MON ke_max                       =   3.4650258203786E-02
(PID.TID 0001.0001) %MON ke_mean                      =   1.3918286833187E-04
(PID.TID 0001.0001) %MON ke_vol                       =   1.3398024453628E+18
(PID.TID 0001.0001) %MON vort_r_min                   =  -1.3323051619383E-06
(PID.TID 0001.0001) %MON vort_r_max                   =   1.1832235904842E-06
(PID.TID 0001.0001) %MON vort_a_mean                  =  -2.0493733748264E-05
(PID.TID 0001.0001) %MON vort_a_sd                    =   7.5053952535768E-05
(PID.TID 0001.0001) %MON vort_p_mean                  =  -2.4715771385704E-05
(PID.TID 0001.0001) %MON vort_p_sd                    =   1.2777057866015E-04
(PID.TID 0001.0001) %MON surfExpan_theta_mean         =   5.9641484179053E-08
(PID.TID 0001.0001) %MON surfExpan_salt_mean          =   1.5470930875400E-08
(PID.TID 0001.0001) // =======================================================
(PID.TID 0001.0001) // End MONITOR dynamic field statistics
(PID.TID 0001.0001) // =======================================================
 DRIVER_GET_EXPORT_STATE_3D:MASK. This code is stubbed!
 DRIVER_SET_IMPORT_STATE_3D:SWHEAT. This code is stubbed!
 cg2d: Sum(rhs),rhsMax =  -9.86233317235019E-12  1.38589584661365E+00
(PID.TID 0001.0001)                    cg2d_init_res =    1.24124866119029E-01
(PID.TID 0001.0001)                       cg2d_iters =    61
(PID.TID 0001.0001)                         cg2d_res =    5.49653783228985E-07
(PID.TID 0001.0001) // =======================================================
(PID.TID 0001.0001) // Begin MONITOR dynamic field statistics
(PID.TID 0001.0001) // =======================================================
(PID.TID 0001.0001) %MON time_tsnumber                =                 72068
(PID.TID 0001.0001) %MON time_secondsf                =   6.2266752000000E+09
(PID.TID 0001.0001) %MON dynstat_eta_max              =   8.7778696849750E-01
(PID.TID 0001.0001) %MON dynstat_eta_min              =  -1.6008164421606E+00
(PID.TID 0001.0001) %MON dynstat_eta_mean             =   1.4427566214562E-14
(PID.TID 0001.0001) %MON dynstat_eta_sd               =   5.9803902527294E-01
(PID.TID 0001.0001) %MON dynstat_eta_del2             =   1.1406545332510E-02
(PID.TID 0001.0001) %MON dynstat_uvel_max             =   1.8794077124616E-01
(PID.TID 0001.0001) %MON dynstat_uvel_min             =  -2.5093219869120E-01
(PID.TID 0001.0001) %MON dynstat_uvel_mean            =  -4.5204378499679E-04
(PID.TID 0001.0001) %MON dynstat_uvel_sd              =   1.1861678339920E-02
(PID.TID 0001.0001) %MON dynstat_uvel_del2            =   1.5748115296731E-03
(PID.TID 0001.0001) %MON dynstat_vvel_max             =   1.7148748891228E-01
(PID.TID 0001.0001) %MON dynstat_vvel_min             =  -2.2296364621750E-01
(PID.TID 0001.0001) %MON dynstat_vvel_mean            =  -3.7092806712807E-04
(PID.TID 0001.0001) %MON dynstat_vvel_sd              =   1.2662015262548E-02
(PID.TID 0001.0001) %MON dynstat_vvel_del2            =   1.6001553694636E-03
(PID.TID 0001.0001) %MON dynstat_wvel_max             =   1.0869061805769E-04
(PID.TID 0001.0001) %MON dynstat_wvel_min             =  -1.9903971567590E-04
(PID.TID 0001.0001) %MON dynstat_wvel_mean            =  -3.5576426348887E-10
(PID.TID 0001.0001) %MON dynstat_wvel_sd              =   3.5553121872630E-06
(PID.TID 0001.0001) %MON dynstat_wvel_del2            =   8.3977351413200E-07
(PID.TID 0001.0001) %MON dynstat_theta_max            =   3.1386615670033E+01
(PID.TID 0001.0001) %MON dynstat_theta_min            =  -4.1552042625712E+00
(PID.TID 0001.0001) %MON dynstat_theta_mean           =   3.9129147348419E+00
(PID.TID 0001.0001) %MON dynstat_theta_sd             =   4.5852576541076E+00
(PID.TID 0001.0001) %MON dynstat_theta_del2           =   8.9598486661471E-02
(PID.TID 0001.0001) %MON dynstat_salt_max             =   4.1431583566301E+01
(PID.TID 0001.0001) %MON dynstat_salt_min             =   1.8418479918706E+01
(PID.TID 0001.0001) %MON dynstat_salt_mean            =   3.4772126239967E+01
(PID.TID 0001.0001) %MON dynstat_salt_sd              =   5.3121572113765E-01
(PID.TID 0001.0001) %MON dynstat_salt_del2            =   1.8961838169551E-02
(PID.TID 0001.0001) %MON dynstat_sst_max              =   3.1386615670033E+01
(PID.TID 0001.0001) %MON dynstat_sst_min              =  -1.9698191428370E+00
(PID.TID 0001.0001) %MON dynstat_sst_mean             =   1.8415839181635E+01
(PID.TID 0001.0001) %MON dynstat_sst_sd               =   9.9332348730899E+00
(PID.TID 0001.0001) %MON dynstat_sst_del2             =   2.1445875212725E-01
(PID.TID 0001.0001) %MON dynstat_sss_max              =   4.1431583566301E+01
(PID.TID 0001.0001) %MON dynstat_sss_min              =   1.8418479918706E+01
(PID.TID 0001.0001) %MON dynstat_sss_mean             =   3.4620554299514E+01
(PID.TID 0001.0001) %MON dynstat_sss_sd               =   1.4548875305670E+00
(PID.TID 0001.0001) %MON dynstat_sss_del2             =   8.0455042762603E-02
(PID.TID 0001.0001) %MON extforcing_qnet_max          =   3.2861992332486E+02
(PID.TID 0001.0001) %MON extforcing_qnet_min          =  -1.8067326931518E+02
(PID.TID 0001.0001) %MON extforcing_qnet_mean         =  -9.2261847700598E+00
(PID.TID 0001.0001) %MON extforcing_qnet_sd           =   6.4100770735012E+01
(PID.TID 0001.0001) %MON extforcing_qnet_del2         =   4.7570441772310E+00
(PID.TID 0001.0001) %MON extforcing_qsw_max           =   0.0000000000000E+00
(PID.TID 0001.0001) %MON extforcing_qsw_min           =   0.0000000000000E+00
(PID.TID 0001.0001) %MON extforcing_qsw_mean          =   0.0000000000000E+00
(PID.TID 0001.0001) %MON extforcing_qsw_sd            =   0.0000000000000E+00
(PID.TID 0001.0001) %MON extforcing_qsw_del2          =   0.0000000000000E+00
(PID.TID 0001.0001) %MON extforcing_empmr_max         =   7.6494447208479E-08
(PID.TID 0001.0001) %MON extforcing_empmr_min         =  -1.5362614137596E-07
(PID.TID 0001.0001) %MON extforcing_empmr_mean        =  -2.0474999028391E-24
(PID.TID 0001.0001) %MON extforcing_empmr_sd          =   2.4051723601802E-08
(PID.TID 0001.0001) %MON extforcing_empmr_del2        =   1.2835223797615E-09
(PID.TID 0001.0001) %MON extforcing_fu_max            =   2.5831947832920E-01
(PID.TID 0001.0001) %MON extforcing_fu_min            =  -3.1144824941652E-01
(PID.TID 0001.0001) %MON extforcing_fu_mean           =  -7.6106222964404E-03
(PID.TID 0001.0001) %MON extforcing_fu_sd             =   6.8217256089334E-02
(PID.TID 0001.0001) %MON extforcing_fu_del2           =   2.9017866445441E-03
(PID.TID 0001.0001) %MON extforcing_fv_max            =   2.4941537716905E-01
(PID.TID 0001.0001) %MON extforcing_fv_min            =  -3.2885282740112E-01
(PID.TID 0001.0001) %MON extforcing_fv_mean           =  -1.2928391671115E-02
(PID.TID 0001.0001) %MON extforcing_fv_sd             =   7.7693355143044E-02
(PID.TID 0001.0001) %MON extforcing_fv_del2           =   3.2145448111151E-03
(PID.TID 0001.0001) %MON advcfl_uvel_max              =   7.2829695332679E-02
(PID.TID 0001.0001) %MON advcfl_vvel_max              =   7.4748980464388E-02
(PID.TID 0001.0001) %MON advcfl_wvel_max              =   6.4894458243011E-02
(PID.TID 0001.0001) %MON advcfl_W_hf_max              =   8.0017300052794E-02
(PID.TID 0001.0001) %MON pe_b_mean                    =   4.7645679254496E-04
(PID.TID 0001.0001) %MON ke_max                       =   3.4614879308255E-02
(PID.TID 0001.0001) %MON ke_mean                      =   1.3917637825079E-04
(PID.TID 0001.0001) %MON ke_vol                       =   1.3398024453628E+18
(PID.TID 0001.0001) %MON vort_r_min                   =  -1.3316930541821E-06
(PID.TID 0001.0001) %MON vort_r_max                   =   1.1883636014007E-06
(PID.TID 0001.0001) %MON vort_a_mean                  =  -2.0493733748264E-05
(PID.TID 0001.0001) %MON vort_a_sd                    =   7.5053952801877E-05
(PID.TID 0001.0001) %MON vort_p_mean                  =  -2.4715771311152E-05
(PID.TID 0001.0001) %MON vort_p_sd                    =   1.2777058663385E-04
(PID.TID 0001.0001) %MON surfExpan_theta_mean         =   5.9608846785026E-08
(PID.TID 0001.0001) %MON surfExpan_salt_mean          =   1.5442958211590E-08
(PID.TID 0001.0001) // =======================================================
(PID.TID 0001.0001) // End MONITOR dynamic field statistics
(PID.TID 0001.0001) // =======================================================
 DRIVER_GET_EXPORT_STATE_3D:MASK. This code is stubbed!
 DRIVER_SET_IMPORT_STATE_3D:SWHEAT. This code is stubbed!
 cg2d: Sum(rhs),rhsMax =  -9.54969436861575E-12  1.38435456595585E+00
(PID.TID 0001.0001)                    cg2d_init_res =    1.24276801226355E-01
(PID.TID 0001.0001)                       cg2d_iters =    61
(PID.TID 0001.0001)                         cg2d_res =    5.56416602219437E-07
(PID.TID 0001.0001) // =======================================================
(PID.TID 0001.0001) // Begin MONITOR dynamic field statistics
(PID.TID 0001.0001) // =======================================================
(PID.TID 0001.0001) %MON time_tsnumber                =                 72069
(PID.TID 0001.0001) %MON time_secondsf                =   6.2267616000000E+09
(PID.TID 0001.0001) %MON dynstat_eta_max              =   8.7827084343645E-01
(PID.TID 0001.0001) %MON dynstat_eta_min              =  -1.6009721992669E+00
(PID.TID 0001.0001) %MON dynstat_eta_mean             =   1.4345122979050E-14
(PID.TID 0001.0001) %MON dynstat_eta_sd               =   5.9825482865012E-01
(PID.TID 0001.0001) %MON dynstat_eta_del2             =   1.1407302174960E-02
(PID.TID 0001.0001) %MON dynstat_uvel_max             =   1.8860547612543E-01
(PID.TID 0001.0001) %MON dynstat_uvel_min             =  -2.5073531796901E-01
(PID.TID 0001.0001) %MON dynstat_uvel_mean            =  -4.5133772976436E-04
(PID.TID 0001.0001) %MON dynstat_uvel_sd              =   1.1857712377728E-02
(PID.TID 0001.0001) %MON dynstat_uvel_del2            =   1.5747158123453E-03
(PID.TID 0001.0001) %MON dynstat_vvel_max             =   1.7174952868452E-01
(PID.TID 0001.0001) %MON dynstat_vvel_min             =  -2.2294948063567E-01
(PID.TID 0001.0001) %MON dynstat_vvel_mean            =  -3.7015594177737E-04
(PID.TID 0001.0001) %MON dynstat_vvel_sd              =   1.2665593847872E-02
(PID.TID 0001.0001) %MON dynstat_vvel_del2            =   1.6005518761975E-03
(PID.TID 0001.0001) %MON dynstat_wvel_max             =   1.0877581024929E-04
(PID.TID 0001.0001) %MON dynstat_wvel_min             =  -1.9876308494647E-04
(PID.TID 0001.0001) %MON dynstat_wvel_mean            =  -3.4427714017737E-10
(PID.TID 0001.0001) %MON dynstat_wvel_sd              =   3.5503382541425E-06
(PID.TID 0001.0001) %MON dynstat_wvel_del2            =   8.4007167674463E-07
(PID.TID 0001.0001) %MON dynstat_theta_max            =   3.1395629127780E+01
(PID.TID 0001.0001) %MON dynstat_theta_min            =  -4.1594322812804E+00
(PID.TID 0001.0001) %MON dynstat_theta_mean           =   3.9129396832785E+00
(PID.TID 0001.0001) %MON dynstat_theta_sd             =   4.5855165824821E+00
(PID.TID 0001.0001) %MON dynstat_theta_del2           =   8.9624662085161E-02
(PID.TID 0001.0001) %MON dynstat_salt_max             =   4.1432468456771E+01
(PID.TID 0001.0001) %MON dynstat_salt_min             =   1.8418523441720E+01
(PID.TID 0001.0001) %MON dynstat_salt_mean            =   3.4772127329037E+01
(PID.TID 0001.0001) %MON dynstat_salt_sd              =   5.3121141258416E-01
(PID.TID 0001.0001) %MON dynstat_salt_del2            =   1.8963744346395E-02
(PID.TID 0001.0001) %MON dynstat_sst_max              =   3.1395629127780E+01
(PID.TID 0001.0001) %MON dynstat_sst_min              =  -1.9724213337896E+00
(PID.TID 0001.0001) %MON dynstat_sst_mean             =   1.8416498912314E+01
(PID.TID 0001.0001) %MON dynstat_sst_sd               =   9.9404926051682E+00
(PID.TID 0001.0001) %MON dynstat_sst_del2             =   2.1433237581349E-01
(PID.TID 0001.0001) %MON dynstat_sss_max              =   4.1432468456771E+01
(PID.TID 0001.0001) %MON dynstat_sss_min              =   1.8418523441720E+01
(PID.TID 0001.0001) %MON dynstat_sss_mean             =   3.4620567459944E+01
(PID.TID 0001.0001) %MON dynstat_sss_sd               =   1.4547432247345E+00
(PID.TID 0001.0001) %MON dynstat_sss_del2             =   8.0454988474405E-02
(PID.TID 0001.0001) %MON extforcing_qnet_max          =   3.2839412082149E+02
(PID.TID 0001.0001) %MON extforcing_qnet_min          =  -1.8118136390526E+02
(PID.TID 0001.0001) %MON extforcing_qnet_mean         =  -9.0228666240650E+00
(PID.TID 0001.0001) %MON extforcing_qnet_sd           =   6.3463580899302E+01
(PID.TID 0001.0001) %MON extforcing_qnet_del2         =   4.7699094910443E+00
(PID.TID 0001.0001) %MON extforcing_qsw_max           =   0.0000000000000E+00
(PID.TID 0001.0001) %MON extforcing_qsw_min           =   0.0000000000000E+00
(PID.TID 0001.0001) %MON extforcing_qsw_mean          =   0.0000000000000E+00
(PID.TID 0001.0001) %MON extforcing_qsw_sd            =   0.0000000000000E+00
(PID.TID 0001.0001) %MON extforcing_qsw_del2          =   0.0000000000000E+00
(PID.TID 0001.0001) %MON extforcing_empmr_max         =   7.6494447208479E-08
(PID.TID 0001.0001) %MON extforcing_empmr_min         =  -1.5362614137596E-07
(PID.TID 0001.0001) %MON extforcing_empmr_mean        =  -2.0474999028391E-24
(PID.TID 0001.0001) %MON extforcing_empmr_sd          =   2.4051723601802E-08
(PID.TID 0001.0001) %MON extforcing_empmr_del2        =   1.2835223797615E-09
(PID.TID 0001.0001) %MON extforcing_fu_max            =   2.5823356196957E-01
(PID.TID 0001.0001) %MON extforcing_fu_min            =  -3.1578617809057E-01
(PID.TID 0001.0001) %MON extforcing_fu_mean           =  -7.7354653504101E-03
(PID.TID 0001.0001) %MON extforcing_fu_sd             =   6.8499713804347E-02
(PID.TID 0001.0001) %MON extforcing_fu_del2           =   2.9244142787304E-03
(PID.TID 0001.0001) %MON extforcing_fv_max            =   2.5059697604883E-01
(PID.TID 0001.0001) %MON extforcing_fv_min            =  -3.2999116075744E-01
(PID.TID 0001.0001) %MON extforcing_fv_mean           =  -1.2893733794870E-02
(PID.TID 0001.0001) %MON extforcing_fv_sd             =   7.7989591717301E-02
(PID.TID 0001.0001) %MON extforcing_fv_del2           =   3.2425281043197E-03
(PID.TID 0001.0001) %MON advcfl_uvel_max              =   7.3167951580195E-02
(PID.TID 0001.0001) %MON advcfl_vvel_max              =   7.4863199909437E-02
(PID.TID 0001.0001) %MON advcfl_wvel_max              =   6.4804266186321E-02
(PID.TID 0001.0001) %MON advcfl_W_hf_max              =   7.9906133128766E-02
(PID.TID 0001.0001) %MON pe_b_mean                    =   4.7680071503873E-04
(PID.TID 0001.0001) %MON ke_max                       =   3.4578857937871E-02
(PID.TID 0001.0001) %MON ke_mean                      =   1.3917465305570E-04
(PID.TID 0001.0001) %MON ke_vol                       =   1.3398024453628E+18
(PID.TID 0001.0001) %MON vort_r_min                   =  -1.3310350122740E-06
(PID.TID 0001.0001) %MON vort_r_max                   =   1.1937774355823E-06
(PID.TID 0001.0001) %MON vort_a_mean                  =  -2.0493733748264E-05
(PID.TID 0001.0001) %MON vort_a_sd                    =   7.5053953058389E-05
(PID.TID 0001.0001) %MON vort_p_mean                  =  -2.4715771237533E-05
(PID.TID 0001.0001) %MON vort_p_sd                    =   1.2777059489678E-04
(PID.TID 0001.0001) %MON surfExpan_theta_mean         =   5.9574052332422E-08
(PID.TID 0001.0001) %MON surfExpan_salt_mean          =   1.5426844330525E-08
(PID.TID 0001.0001) // =======================================================
(PID.TID 0001.0001) // End MONITOR dynamic field statistics
(PID.TID 0001.0001) // =======================================================
 DRIVER_GET_EXPORT_STATE_3D:MASK. This code is stubbed!
 DRIVER_SET_IMPORT_STATE_3D:SWHEAT. This code is stubbed!
 cg2d: Sum(rhs),rhsMax =  -9.83391146291979E-12  1.38338588267486E+00
(PID.TID 0001.0001)                    cg2d_init_res =    1.24501014961935E-01
(PID.TID 0001.0001)                       cg2d_iters =    61
(PID.TID 0001.0001)                         cg2d_res =    5.60429412735091E-07
(PID.TID 0001.0001) // =======================================================
(PID.TID 0001.0001) // Begin MONITOR dynamic field statistics
(PID.TID 0001.0001) // =======================================================
(PID.TID 0001.0001) %MON time_tsnumber                =                 72070
(PID.TID 0001.0001) %MON time_secondsf                =   6.2268480000000E+09
(PID.TID 0001.0001) %MON dynstat_eta_max              =   8.7878681617675E-01
(PID.TID 0001.0001) %MON dynstat_eta_min              =  -1.6011409401162E+00
(PID.TID 0001.0001) %MON dynstat_eta_mean             =   1.4427566214562E-14
(PID.TID 0001.0001) %MON dynstat_eta_sd               =   5.9847300313693E-01
(PID.TID 0001.0001) %MON dynstat_eta_del2             =   1.1408163721127E-02
(PID.TID 0001.0001) %MON dynstat_uvel_max             =   1.8923334351838E-01
(PID.TID 0001.0001) %MON dynstat_uvel_min             =  -2.5053550360507E-01
(PID.TID 0001.0001) %MON dynstat_uvel_mean            =  -4.5066549663292E-04
(PID.TID 0001.0001) %MON dynstat_uvel_sd              =   1.1854461678704E-02
(PID.TID 0001.0001) %MON dynstat_uvel_del2            =   1.5746839679103E-03
(PID.TID 0001.0001) %MON dynstat_vvel_max             =   1.7199350946258E-01
(PID.TID 0001.0001) %MON dynstat_vvel_min             =  -2.2292873119011E-01
(PID.TID 0001.0001) %MON dynstat_vvel_mean            =  -3.6933376200624E-04
(PID.TID 0001.0001) %MON dynstat_vvel_sd              =   1.2668919789643E-02
(PID.TID 0001.0001) %MON dynstat_vvel_del2            =   1.6008876587830E-03
(PID.TID 0001.0001) %MON dynstat_wvel_max             =   1.0881699858018E-04
(PID.TID 0001.0001) %MON dynstat_wvel_min             =  -1.9848071911651E-04
(PID.TID 0001.0001) %MON dynstat_wvel_mean            =  -3.3111530117560E-10
(PID.TID 0001.0001) %MON dynstat_wvel_sd              =   3.5455745664199E-06
(PID.TID 0001.0001) %MON dynstat_wvel_del2            =   8.4035044641904E-07
(PID.TID 0001.0001) %MON dynstat_theta_max            =   3.1403945793851E+01
(PID.TID 0001.0001) %MON dynstat_theta_min            =  -4.1629199200824E+00
(PID.TID 0001.0001) %MON dynstat_theta_mean           =   3.9129634300877E+00
(PID.TID 0001.0001) %MON dynstat_theta_sd             =   4.5857740866780E+00
(PID.TID 0001.0001) %MON dynstat_theta_del2           =   8.9646763880219E-02
(PID.TID 0001.0001) %MON dynstat_salt_max             =   4.1433359797752E+01
(PID.TID 0001.0001) %MON dynstat_salt_min             =   1.8418553164121E+01
(PID.TID 0001.0001) %MON dynstat_salt_mean            =   3.4772128418237E+01
(PID.TID 0001.0001) %MON dynstat_salt_sd              =   5.3120708425099E-01
(PID.TID 0001.0001) %MON dynstat_salt_del2            =   1.8966793437613E-02
(PID.TID 0001.0001) %MON dynstat_sst_max              =   3.1403945793851E+01
(PID.TID 0001.0001) %MON dynstat_sst_min              =  -1.9750281469320E+00
(PID.TID 0001.0001) %MON dynstat_sst_mean             =   1.8416999789921E+01
(PID.TID 0001.0001) %MON dynstat_sst_sd               =   9.9478598222615E+00
(PID.TID 0001.0001) %MON dynstat_sst_del2             =   2.1419140377233E-01
(PID.TID 0001.0001) %MON dynstat_sss_max              =   4.1433359797752E+01
(PID.TID 0001.0001) %MON dynstat_sss_min              =   1.8418553164121E+01
(PID.TID 0001.0001) %MON dynstat_sss_mean             =   3.4620582664730E+01
(PID.TID 0001.0001) %MON dynstat_sss_sd               =   1.4546013155723E+00
(PID.TID 0001.0001) %MON dynstat_sss_del2             =   8.0458545758094E-02
(PID.TID 0001.0001) %MON extforcing_qnet_max          =   3.2816831831812E+02
(PID.TID 0001.0001) %MON extforcing_qnet_min          =  -1.8168945849534E+02
(PID.TID 0001.0001) %MON extforcing_qnet_mean         =  -8.8195484780701E+00
(PID.TID 0001.0001) %MON extforcing_qnet_sd           =   6.2871476333670E+01
(PID.TID 0001.0001) %MON extforcing_qnet_del2         =   4.7846864033669E+00
(PID.TID 0001.0001) %MON extforcing_qsw_max           =   0.0000000000000E+00
(PID.TID 0001.0001) %MON extforcing_qsw_min           =   0.0000000000000E+00
(PID.TID 0001.0001) %MON extforcing_qsw_mean          =   0.0000000000000E+00
(PID.TID 0001.0001) %MON extforcing_qsw_sd            =   0.0000000000000E+00
(PID.TID 0001.0001) %MON extforcing_qsw_del2          =   0.0000000000000E+00
(PID.TID 0001.0001) %MON extforcing_empmr_max         =   7.6494447208479E-08
(PID.TID 0001.0001) %MON extforcing_empmr_min         =  -1.5362614137596E-07
(PID.TID 0001.0001) %MON extforcing_empmr_mean        =  -2.0474999028391E-24
(PID.TID 0001.0001) %MON extforcing_empmr_sd          =   2.4051723601802E-08
(PID.TID 0001.0001) %MON extforcing_empmr_del2        =   1.2835223797615E-09
(PID.TID 0001.0001) %MON extforcing_fu_max            =   2.5814764560994E-01
(PID.TID 0001.0001) %MON extforcing_fu_min            =  -3.2012410676461E-01
(PID.TID 0001.0001) %MON extforcing_fu_mean           =  -7.8603070642187E-03
(PID.TID 0001.0001) %MON extforcing_fu_sd             =   6.8795913345370E-02
(PID.TID 0001.0001) %MON extforcing_fu_del2           =   2.9495201348607E-03
(PID.TID 0001.0001) %MON extforcing_fv_max            =   2.5185703345859E-01
(PID.TID 0001.0001) %MON extforcing_fv_min            =  -3.3112949411376E-01
(PID.TID 0001.0001) %MON extforcing_fv_mean           =  -1.2859075900081E-02
(PID.TID 0001.0001) %MON extforcing_fv_sd             =   7.8304758529634E-02
(PID.TID 0001.0001) %MON extforcing_fv_del2           =   3.2734642464469E-03
(PID.TID 0001.0001) %MON advcfl_uvel_max              =   7.3494002190413E-02
(PID.TID 0001.0001) %MON advcfl_vvel_max              =   7.4969547693339E-02
(PID.TID 0001.0001) %MON advcfl_wvel_max              =   6.4712204270440E-02
(PID.TID 0001.0001) %MON advcfl_W_hf_max              =   7.9792660498789E-02
(PID.TID 0001.0001) %MON pe_b_mean                    =   4.7714854246826E-04
(PID.TID 0001.0001) %MON ke_max                       =   3.4542129308996E-02
(PID.TID 0001.0001) %MON ke_mean                      =   1.3917777226044E-04
(PID.TID 0001.0001) %MON ke_vol                       =   1.3398024453628E+18
(PID.TID 0001.0001) %MON vort_r_min                   =  -1.3303315735424E-06
(PID.TID 0001.0001) %MON vort_r_max                   =   1.1994403105198E-06
(PID.TID 0001.0001) %MON vort_a_mean                  =  -2.0493733748264E-05
(PID.TID 0001.0001) %MON vort_a_sd                    =   7.5053953305290E-05
(PID.TID 0001.0001) %MON vort_p_mean                  =  -2.4715771165331E-05
(PID.TID 0001.0001) %MON vort_p_sd                    =   1.2777060335878E-04
(PID.TID 0001.0001) %MON surfExpan_theta_mean         =   5.9537227180100E-08
(PID.TID 0001.0001) %MON surfExpan_salt_mean          =   1.5422248334154E-08
(PID.TID 0001.0001) // =======================================================
(PID.TID 0001.0001) // End MONITOR dynamic field statistics
(PID.TID 0001.0001) // =======================================================
 DRIVER_GET_EXPORT_STATE_3D:MASK. This code is stubbed!
 DRIVER_SET_IMPORT_STATE_3D:SWHEAT. This code is stubbed!
 cg2d: Sum(rhs),rhsMax =  -9.69180291576777E-12  1.38193888610147E+00
(PID.TID 0001.0001)                    cg2d_init_res =    1.24688973064848E-01
(PID.TID 0001.0001)                       cg2d_iters =    61
(PID.TID 0001.0001)                         cg2d_res =    5.61570834602914E-07
(PID.TID 0001.0001) // =======================================================
(PID.TID 0001.0001) // Begin MONITOR dynamic field statistics
(PID.TID 0001.0001) // =======================================================
(PID.TID 0001.0001) %MON time_tsnumber                =                 72071
(PID.TID 0001.0001) %MON time_secondsf                =   6.2269344000000E+09
(PID.TID 0001.0001) %MON dynstat_eta_max              =   8.7933235433760E-01
(PID.TID 0001.0001) %MON dynstat_eta_min              =  -1.6013254194738E+00
(PID.TID 0001.0001) %MON dynstat_eta_mean             =   1.4235198665035E-14
(PID.TID 0001.0001) %MON dynstat_eta_sd               =   5.9869160075592E-01
(PID.TID 0001.0001) %MON dynstat_eta_del2             =   1.1409189010688E-02
(PID.TID 0001.0001) %MON dynstat_uvel_max             =   1.8982192864173E-01
(PID.TID 0001.0001) %MON dynstat_uvel_min             =  -2.5033271178484E-01
(PID.TID 0001.0001) %MON dynstat_uvel_mean            =  -4.5002438313504E-04
(PID.TID 0001.0001) %MON dynstat_uvel_sd              =   1.1851917952269E-02
(PID.TID 0001.0001) %MON dynstat_uvel_del2            =   1.5747014191471E-03
(PID.TID 0001.0001) %MON dynstat_vvel_max             =   1.7221761155071E-01
(PID.TID 0001.0001) %MON dynstat_vvel_min             =  -2.2290155244056E-01
(PID.TID 0001.0001) %MON dynstat_vvel_mean            =  -3.6846349458075E-04
(PID.TID 0001.0001) %MON dynstat_vvel_sd              =   1.2671999937149E-02
(PID.TID 0001.0001) %MON dynstat_vvel_del2            =   1.6012526753757E-03
(PID.TID 0001.0001) %MON dynstat_wvel_max             =   1.0881393585639E-04
(PID.TID 0001.0001) %MON dynstat_wvel_min             =  -1.9819555324433E-04
(PID.TID 0001.0001) %MON dynstat_wvel_mean            =  -3.1687661226836E-10
(PID.TID 0001.0001) %MON dynstat_wvel_sd              =   3.5410441462317E-06
(PID.TID 0001.0001) %MON dynstat_wvel_del2            =   8.4068629354516E-07
(PID.TID 0001.0001) %MON dynstat_theta_max            =   3.1411556737168E+01
(PID.TID 0001.0001) %MON dynstat_theta_min            =  -4.1656780178277E+00
(PID.TID 0001.0001) %MON dynstat_theta_mean           =   3.9129860115906E+00
(PID.TID 0001.0001) %MON dynstat_theta_sd             =   4.5860302210018E+00
(PID.TID 0001.0001) %MON dynstat_theta_del2           =   8.9671608423466E-02
(PID.TID 0001.0001) %MON dynstat_salt_max             =   4.1434257566468E+01
(PID.TID 0001.0001) %MON dynstat_salt_min             =   1.8418569516464E+01
(PID.TID 0001.0001) %MON dynstat_salt_mean            =   3.4772129507585E+01
(PID.TID 0001.0001) %MON dynstat_salt_sd              =   5.3120273590716E-01
(PID.TID 0001.0001) %MON dynstat_salt_del2            =   1.8969386727117E-02
(PID.TID 0001.0001) %MON dynstat_sst_max              =   3.1411556737168E+01
(PID.TID 0001.0001) %MON dynstat_sst_min              =  -1.9776394918557E+00
(PID.TID 0001.0001) %MON dynstat_sst_mean             =   1.8417297469628E+01
(PID.TID 0001.0001) %MON dynstat_sst_sd               =   9.9553427466552E+00
(PID.TID 0001.0001) %MON dynstat_sst_del2             =   2.1405980553161E-01
(PID.TID 0001.0001) %MON dynstat_sss_max              =   4.1434257566468E+01
(PID.TID 0001.0001) %MON dynstat_sss_min              =   1.8418569516464E+01
(PID.TID 0001.0001) %MON dynstat_sss_mean             =   3.4620594336567E+01
(PID.TID 0001.0001) %MON dynstat_sss_sd               =   1.4544609229017E+00
(PID.TID 0001.0001) %MON dynstat_sss_del2             =   8.0456268121208E-02
(PID.TID 0001.0001) %MON extforcing_qnet_max          =   3.2794251581476E+02
(PID.TID 0001.0001) %MON extforcing_qnet_min          =  -1.8219755308542E+02
(PID.TID 0001.0001) %MON extforcing_qnet_mean         =  -8.6162303320753E+00
(PID.TID 0001.0001) %MON extforcing_qnet_sd           =   6.2325742003299E+01
(PID.TID 0001.0001) %MON extforcing_qnet_del2         =   4.8014090544286E+00
(PID.TID 0001.0001) %MON extforcing_qsw_max           =   0.0000000000000E+00
(PID.TID 0001.0001) %MON extforcing_qsw_min           =   0.0000000000000E+00
(PID.TID 0001.0001) %MON extforcing_qsw_mean          =   0.0000000000000E+00
(PID.TID 0001.0001) %MON extforcing_qsw_sd            =   0.0000000000000E+00
(PID.TID 0001.0001) %MON extforcing_qsw_del2          =   0.0000000000000E+00
(PID.TID 0001.0001) %MON extforcing_empmr_max         =   7.6494447208479E-08
(PID.TID 0001.0001) %MON extforcing_empmr_min         =  -1.5362614137596E-07
(PID.TID 0001.0001) %MON extforcing_empmr_mean        =  -2.0474999028391E-24
(PID.TID 0001.0001) %MON extforcing_empmr_sd          =   2.4051723601802E-08
(PID.TID 0001.0001) %MON extforcing_empmr_del2        =   1.2835223797615E-09
(PID.TID 0001.0001) %MON extforcing_fu_max            =   2.5806172925032E-01
(PID.TID 0001.0001) %MON extforcing_fu_min            =  -3.2446203543866E-01
(PID.TID 0001.0001) %MON extforcing_fu_mean           =  -7.9851473973887E-03
(PID.TID 0001.0001) %MON extforcing_fu_sd             =   6.9105678025605E-02
(PID.TID 0001.0001) %MON extforcing_fu_del2           =   2.9770372383550E-03
(PID.TID 0001.0001) %MON extforcing_fv_max            =   2.5312225243091E-01
(PID.TID 0001.0001) %MON extforcing_fv_min            =  -3.3226782747008E-01
(PID.TID 0001.0001) %MON extforcing_fv_mean           =  -1.2824417904805E-02
(PID.TID 0001.0001) %MON extforcing_fv_sd             =   7.8638627949282E-02
(PID.TID 0001.0001) %MON extforcing_fv_del2           =   3.3072798549573E-03
(PID.TID 0001.0001) %MON advcfl_uvel_max              =   7.3805346323869E-02
(PID.TID 0001.0001) %MON advcfl_vvel_max              =   7.5067230636355E-02
(PID.TID 0001.0001) %MON advcfl_wvel_max              =   6.4619229435134E-02
(PID.TID 0001.0001) %MON advcfl_W_hf_max              =   7.9678061569591E-02
(PID.TID 0001.0001) %MON pe_b_mean                    =   4.7749717167506E-04
(PID.TID 0001.0001) %MON ke_max                       =   3.4504627714844E-02
(PID.TID 0001.0001) %MON ke_mean                      =   1.3918571696639E-04
(PID.TID 0001.0001) %MON ke_vol                       =   1.3398024453628E+18
(PID.TID 0001.0001) %MON vort_r_min                   =  -1.3295829647625E-06
(PID.TID 0001.0001) %MON vort_r_max                   =   1.2053147074160E-06
(PID.TID 0001.0001) %MON vort_a_mean                  =  -2.0493733748264E-05
(PID.TID 0001.0001) %MON vort_a_sd                    =   7.5053953542703E-05
(PID.TID 0001.0001) %MON vort_p_mean                  =  -2.4715771094989E-05
(PID.TID 0001.0001) %MON vort_p_sd                    =   1.2777061194014E-04
(PID.TID 0001.0001) %MON surfExpan_theta_mean         =   5.9492571796140E-08
(PID.TID 0001.0001) %MON surfExpan_salt_mean          =   1.5427645665638E-08
(PID.TID 0001.0001) // =======================================================
(PID.TID 0001.0001) // End MONITOR dynamic field statistics
(PID.TID 0001.0001) // =======================================================
 DRIVER_GET_EXPORT_STATE_3D:MASK. This code is stubbed!
 DRIVER_SET_IMPORT_STATE_3D:SWHEAT. This code is stubbed!
 cg2d: Sum(rhs),rhsMax =  -9.72022462519817E-12  1.38103601508080E+00
(PID.TID 0001.0001)                    cg2d_init_res =    1.24929231935512E-01
(PID.TID 0001.0001)                       cg2d_iters =    61
(PID.TID 0001.0001)                         cg2d_res =    5.67724797289673E-07
(PID.TID 0001.0001) // =======================================================
(PID.TID 0001.0001) // Begin MONITOR dynamic field statistics
(PID.TID 0001.0001) // =======================================================
(PID.TID 0001.0001) %MON time_tsnumber                =                 72072
(PID.TID 0001.0001) %MON time_secondsf                =   6.2270208000000E+09
(PID.TID 0001.0001) %MON dynstat_eta_max              =   8.7990390910614E-01
(PID.TID 0001.0001) %MON dynstat_eta_min              =  -1.6015277020237E+00
(PID.TID 0001.0001) %MON dynstat_eta_mean             =   1.4455047293066E-14
(PID.TID 0001.0001) %MON dynstat_eta_sd               =   5.9890863409088E-01
(PID.TID 0001.0001) %MON dynstat_eta_del2             =   1.1410487574104E-02
(PID.TID 0001.0001) %MON dynstat_uvel_max             =   1.9036931839844E-01
(PID.TID 0001.0001) %MON dynstat_uvel_min             =  -2.5012689773697E-01
(PID.TID 0001.0001) %MON dynstat_uvel_mean            =  -4.4941048899264E-04
(PID.TID 0001.0001) %MON dynstat_uvel_sd              =   1.1850057390107E-02
(PID.TID 0001.0001) %MON dynstat_uvel_del2            =   1.5747164267979E-03
(PID.TID 0001.0001) %MON dynstat_vvel_max             =   1.7242012710436E-01
(PID.TID 0001.0001) %MON dynstat_vvel_min             =  -2.2286811758438E-01
(PID.TID 0001.0001) %MON dynstat_vvel_mean            =  -3.6754870206671E-04
(PID.TID 0001.0001) %MON dynstat_vvel_sd              =   1.2674849185239E-02
(PID.TID 0001.0001) %MON dynstat_vvel_del2            =   1.6016507254607E-03
(PID.TID 0001.0001) %MON dynstat_wvel_max             =   1.0876714460164E-04
(PID.TID 0001.0001) %MON dynstat_wvel_min             =  -1.9791026305268E-04
(PID.TID 0001.0001) %MON dynstat_wvel_mean            =  -3.0216217898682E-10
(PID.TID 0001.0001) %MON dynstat_wvel_sd              =   3.5367788981160E-06
(PID.TID 0001.0001) %MON dynstat_wvel_del2            =   8.4102094036150E-07
(PID.TID 0001.0001) %MON dynstat_theta_max            =   3.1418453069169E+01
(PID.TID 0001.0001) %MON dynstat_theta_min            =  -4.1676970739380E+00
(PID.TID 0001.0001) %MON dynstat_theta_mean           =   3.9130074735885E+00
(PID.TID 0001.0001) %MON dynstat_theta_sd             =   4.5862850827420E+00
(PID.TID 0001.0001) %MON dynstat_theta_del2           =   8.9694611571683E-02
(PID.TID 0001.0001) %MON dynstat_salt_max             =   4.1435161698646E+01
(PID.TID 0001.0001) %MON dynstat_salt_min             =   1.8418572969133E+01
(PID.TID 0001.0001) %MON dynstat_salt_mean            =   3.4772130597183E+01
(PID.TID 0001.0001) %MON dynstat_salt_sd              =   5.3119835785931E-01
(PID.TID 0001.0001) %MON dynstat_salt_del2            =   1.8972085885449E-02
(PID.TID 0001.0001) %MON dynstat_sst_max              =   3.1418453069169E+01
(PID.TID 0001.0001) %MON dynstat_sst_min              =  -1.9802554829943E+00
(PID.TID 0001.0001) %MON dynstat_sst_mean             =   1.8417454868714E+01
(PID.TID 0001.0001) %MON dynstat_sst_sd               =   9.9629265378097E+00
(PID.TID 0001.0001) %MON dynstat_sst_del2             =   2.1390012177322E-01
(PID.TID 0001.0001) %MON dynstat_sss_max              =   4.1435161698646E+01
(PID.TID 0001.0001) %MON dynstat_sss_min              =   1.8418572969133E+01
(PID.TID 0001.0001) %MON dynstat_sss_mean             =   3.4620611030606E+01
(PID.TID 0001.0001) %MON dynstat_sss_sd               =   1.4543309138914E+00
(PID.TID 0001.0001) %MON dynstat_sss_del2             =   8.0454809946789E-02
(PID.TID 0001.0001) %MON extforcing_qnet_max          =   3.2771671331139E+02
(PID.TID 0001.0001) %MON extforcing_qnet_min          =  -1.8270564767550E+02
(PID.TID 0001.0001) %MON extforcing_qnet_mean         =  -8.4129121860804E+00
(PID.TID 0001.0001) %MON extforcing_qnet_sd           =   6.1827605810202E+01
(PID.TID 0001.0001) %MON extforcing_qnet_del2         =   4.8196567846081E+00
(PID.TID 0001.0001) %MON extforcing_qsw_max           =   0.0000000000000E+00
(PID.TID 0001.0001) %MON extforcing_qsw_min           =   0.0000000000000E+00
(PID.TID 0001.0001) %MON extforcing_qsw_mean          =   0.0000000000000E+00
(PID.TID 0001.0001) %MON extforcing_qsw_sd            =   0.0000000000000E+00
(PID.TID 0001.0001) %MON extforcing_qsw_del2          =   0.0000000000000E+00
(PID.TID 0001.0001) %MON extforcing_empmr_max         =   7.6494447208479E-08
(PID.TID 0001.0001) %MON extforcing_empmr_min         =  -1.5362614137596E-07
(PID.TID 0001.0001) %MON extforcing_empmr_mean        =  -2.0474999028391E-24
(PID.TID 0001.0001) %MON extforcing_empmr_sd          =   2.4051723601802E-08
(PID.TID 0001.0001) %MON extforcing_empmr_del2        =   1.2835223797615E-09
(PID.TID 0001.0001) %MON extforcing_fu_max            =   2.5797581289069E-01
(PID.TID 0001.0001) %MON extforcing_fu_min            =  -3.2879996411270E-01
(PID.TID 0001.0001) %MON extforcing_fu_mean           =  -8.1099863691262E-03
(PID.TID 0001.0001) %MON extforcing_fu_sd             =   6.9428826272641E-02
(PID.TID 0001.0001) %MON extforcing_fu_del2           =   3.0072162710137E-03
(PID.TID 0001.0001) %MON extforcing_fv_max            =   2.5438747140323E-01
(PID.TID 0001.0001) %MON extforcing_fv_min            =  -3.3340616082639E-01
(PID.TID 0001.0001) %MON extforcing_fv_mean           =  -1.2789759743853E-02
(PID.TID 0001.0001) %MON extforcing_fv_sd             =   7.8990962837604E-02
(PID.TID 0001.0001) %MON extforcing_fv_del2           =   3.3436494219789E-03
(PID.TID 0001.0001) %MON advcfl_uvel_max              =   7.4099734138337E-02
(PID.TID 0001.0001) %MON advcfl_vvel_max              =   7.5155504313110E-02
(PID.TID 0001.0001) %MON advcfl_wvel_max              =   6.4526214066987E-02
(PID.TID 0001.0001) %MON advcfl_W_hf_max              =   7.9563411489254E-02
(PID.TID 0001.0001) %MON pe_b_mean                    =   4.7784343204542E-04
(PID.TID 0001.0001) %MON ke_max                       =   3.4466287480460E-02
(PID.TID 0001.0001) %MON ke_mean                      =   1.3919839570166E-04
(PID.TID 0001.0001) %MON ke_vol                       =   1.3398024453628E+18
(PID.TID 0001.0001) %MON vort_r_min                   =  -1.3287890854352E-06
(PID.TID 0001.0001) %MON vort_r_max                   =   1.2113781692162E-06
(PID.TID 0001.0001) %MON vort_a_mean                  =  -2.0493733748264E-05
(PID.TID 0001.0001) %MON vort_a_sd                    =   7.5053953770936E-05
(PID.TID 0001.0001) %MON vort_p_mean                  =  -2.4715771026853E-05
(PID.TID 0001.0001) %MON vort_p_sd                    =   1.2777062056329E-04
(PID.TID 0001.0001) %MON surfExpan_theta_mean         =   5.9439822033112E-08
(PID.TID 0001.0001) %MON surfExpan_salt_mean          =   1.5442139492167E-08
(PID.TID 0001.0001) // =======================================================
(PID.TID 0001.0001) // End MONITOR dynamic field statistics
(PID.TID 0001.0001) // =======================================================
 DRIVER_GET_EXPORT_STATE_3D:MASK. This code is stubbed!
 DRIVER_SET_IMPORT_STATE_3D:SWHEAT. This code is stubbed!
 cg2d: Sum(rhs),rhsMax =  -9.77706804405898E-12  1.37964578244219E+00
(PID.TID 0001.0001)                    cg2d_init_res =    1.25092403487245E-01
(PID.TID 0001.0001)                       cg2d_iters =    61
(PID.TID 0001.0001)                         cg2d_res =    5.64692351671005E-07
(PID.TID 0001.0001) // =======================================================
(PID.TID 0001.0001) // Begin MONITOR dynamic field statistics
(PID.TID 0001.0001) // =======================================================
(PID.TID 0001.0001) %MON time_tsnumber                =                 72073
(PID.TID 0001.0001) %MON time_secondsf                =   6.2271072000000E+09
(PID.TID 0001.0001) %MON dynstat_eta_max              =   8.8049740206993E-01
(PID.TID 0001.0001) %MON dynstat_eta_min              =  -1.6017490435191E+00
(PID.TID 0001.0001) %MON dynstat_eta_mean             =   1.4152755429523E-14
(PID.TID 0001.0001) %MON dynstat_eta_sd               =   5.9912218602618E-01
(PID.TID 0001.0001) %MON dynstat_eta_del2             =   1.1412359499841E-02
(PID.TID 0001.0001) %MON dynstat_uvel_max             =   1.9087412995869E-01
(PID.TID 0001.0001) %MON dynstat_uvel_min             =  -2.4991801795494E-01
(PID.TID 0001.0001) %MON dynstat_uvel_mean            =  -4.4881999036109E-04
(PID.TID 0001.0001) %MON dynstat_uvel_sd              =   1.1848843207625E-02
(PID.TID 0001.0001) %MON dynstat_uvel_del2            =   1.5747124111378E-03
(PID.TID 0001.0001) %MON dynstat_vvel_max             =   1.7259941260071E-01
(PID.TID 0001.0001) %MON dynstat_vvel_min             =  -2.2282861759756E-01
(PID.TID 0001.0001) %MON dynstat_vvel_mean            =  -3.6659509839372E-04
(PID.TID 0001.0001) %MON dynstat_vvel_sd              =   1.2677486986807E-02
(PID.TID 0001.0001) %MON dynstat_vvel_del2            =   1.6021145311825E-03
(PID.TID 0001.0001) %MON dynstat_wvel_max             =   1.0867785220869E-04
(PID.TID 0001.0001) %MON dynstat_wvel_min             =  -1.9762721659394E-04
(PID.TID 0001.0001) %MON dynstat_wvel_mean            =  -2.8738535443451E-10
(PID.TID 0001.0001) %MON dynstat_wvel_sd              =   3.5328033427476E-06
(PID.TID 0001.0001) %MON dynstat_wvel_del2            =   8.4129933313419E-07
(PID.TID 0001.0001) %MON dynstat_theta_max            =   3.1424625987341E+01
(PID.TID 0001.0001) %MON dynstat_theta_min            =  -4.1689901697187E+00
(PID.TID 0001.0001) %MON dynstat_theta_mean           =   3.9130279452297E+00
(PID.TID 0001.0001) %MON dynstat_theta_sd             =   4.5865386391105E+00
(PID.TID 0001.0001) %MON dynstat_theta_del2           =   8.9712676109404E-02
(PID.TID 0001.0001) %MON dynstat_salt_max             =   4.1436072077912E+01
(PID.TID 0001.0001) %MON dynstat_salt_min             =   1.8418564021313E+01
(PID.TID 0001.0001) %MON dynstat_salt_mean            =   3.4772131686999E+01
(PID.TID 0001.0001) %MON dynstat_salt_sd              =   5.3119396702844E-01
(PID.TID 0001.0001) %MON dynstat_salt_del2            =   1.8972660191605E-02
(PID.TID 0001.0001) %MON dynstat_sst_max              =   3.1424625987341E+01
(PID.TID 0001.0001) %MON dynstat_sst_min              =  -1.9828764352751E+00
(PID.TID 0001.0001) %MON dynstat_sst_mean             =   1.8417426944825E+01
(PID.TID 0001.0001) %MON dynstat_sst_sd               =   9.9706119699180E+00
(PID.TID 0001.0001) %MON dynstat_sst_del2             =   2.1373347518988E-01
(PID.TID 0001.0001) %MON dynstat_sss_max              =   4.1436072077912E+01
(PID.TID 0001.0001) %MON dynstat_sss_min              =   1.8418564021313E+01
(PID.TID 0001.0001) %MON dynstat_sss_mean             =   3.4620623113863E+01
(PID.TID 0001.0001) %MON dynstat_sss_sd               =   1.4542021363960E+00
(PID.TID 0001.0001) %MON dynstat_sss_del2             =   8.0446695280645E-02
(PID.TID 0001.0001) %MON extforcing_qnet_max          =   3.2749091080802E+02
(PID.TID 0001.0001) %MON extforcing_qnet_min          =  -1.8321374226558E+02
(PID.TID 0001.0001) %MON extforcing_qnet_mean         =  -8.2095940400855E+00
(PID.TID 0001.0001) %MON extforcing_qnet_sd           =   6.1378226662679E+01
(PID.TID 0001.0001) %MON extforcing_qnet_del2         =   4.8397733906801E+00
(PID.TID 0001.0001) %MON extforcing_qsw_max           =   0.0000000000000E+00
(PID.TID 0001.0001) %MON extforcing_qsw_min           =   0.0000000000000E+00
(PID.TID 0001.0001) %MON extforcing_qsw_mean          =   0.0000000000000E+00
(PID.TID 0001.0001) %MON extforcing_qsw_sd            =   0.0000000000000E+00
(PID.TID 0001.0001) %MON extforcing_qsw_del2          =   0.0000000000000E+00
(PID.TID 0001.0001) %MON extforcing_empmr_max         =   7.6494447208479E-08
(PID.TID 0001.0001) %MON extforcing_empmr_min         =  -1.5362614137596E-07
(PID.TID 0001.0001) %MON extforcing_empmr_mean        =  -2.0474999028391E-24
(PID.TID 0001.0001) %MON extforcing_empmr_sd          =   2.4051723601802E-08
(PID.TID 0001.0001) %MON extforcing_empmr_del2        =   1.2835223797615E-09
(PID.TID 0001.0001) %MON extforcing_fu_max            =   2.5788989653106E-01
(PID.TID 0001.0001) %MON extforcing_fu_min            =  -3.3313789278674E-01
(PID.TID 0001.0001) %MON extforcing_fu_mean           =  -8.2348240606927E-03
(PID.TID 0001.0001) %MON extforcing_fu_sd             =   6.9765172099350E-02
(PID.TID 0001.0001) %MON extforcing_fu_del2           =   3.0405268058476E-03
(PID.TID 0001.0001) %MON extforcing_fv_max            =   2.5565269037555E-01
(PID.TID 0001.0001) %MON extforcing_fv_min            =  -3.3454449418271E-01
(PID.TID 0001.0001) %MON extforcing_fv_mean           =  -1.2755101347842E-02
(PID.TID 0001.0001) %MON extforcing_fv_sd             =   7.9361517304549E-02
(PID.TID 0001.0001) %MON extforcing_fv_del2           =   3.3832707696882E-03
(PID.TID 0001.0001) %MON advcfl_uvel_max              =   7.4375186072394E-02
(PID.TID 0001.0001) %MON advcfl_vvel_max              =   7.5233652335154E-02
(PID.TID 0001.0001) %MON advcfl_wvel_max              =   6.4433930240439E-02
(PID.TID 0001.0001) %MON advcfl_W_hf_max              =   7.9449661775134E-02
(PID.TID 0001.0001) %MON pe_b_mean                    =   4.7818426060184E-04
(PID.TID 0001.0001) %MON ke_max                       =   3.4427044000933E-02
(PID.TID 0001.0001) %MON ke_mean                      =   1.3921563193504E-04
(PID.TID 0001.0001) %MON ke_vol                       =   1.3398024453628E+18
(PID.TID 0001.0001) %MON vort_r_min                   =  -1.3279494986150E-06
(PID.TID 0001.0001) %MON vort_r_max                   =   1.2175857072149E-06
(PID.TID 0001.0001) %MON vort_a_mean                  =  -2.0493733748264E-05
(PID.TID 0001.0001) %MON vort_a_sd                    =   7.5053953990298E-05
(PID.TID 0001.0001) %MON vort_p_mean                  =  -2.4715770961148E-05
(PID.TID 0001.0001) %MON vort_p_sd                    =   1.2777062916089E-04
(PID.TID 0001.0001) %MON surfExpan_theta_mean         =   5.9377327948853E-08
(PID.TID 0001.0001) %MON surfExpan_salt_mean          =   1.5463904817997E-08
(PID.TID 0001.0001) // =======================================================
(PID.TID 0001.0001) // End MONITOR dynamic field statistics
(PID.TID 0001.0001) // =======================================================
 DRIVER_GET_EXPORT_STATE_3D:MASK. This code is stubbed!
 DRIVER_SET_IMPORT_STATE_3D:SWHEAT. This code is stubbed!
 cg2d: Sum(rhs),rhsMax =  -9.94759830064140E-12  1.37873599282363E+00
(PID.TID 0001.0001)                    cg2d_init_res =    1.25303195525602E-01
(PID.TID 0001.0001)                       cg2d_iters =    61
(PID.TID 0001.0001)                         cg2d_res =    5.66797985515338E-07
(PID.TID 0001.0001) // =======================================================
(PID.TID 0001.0001) // Begin MONITOR dynamic field statistics
(PID.TID 0001.0001) // =======================================================
(PID.TID 0001.0001) %MON time_tsnumber                =                 72074
(PID.TID 0001.0001) %MON time_secondsf                =   6.2271936000000E+09
(PID.TID 0001.0001) %MON dynstat_eta_max              =   8.8110797754343E-01
(PID.TID 0001.0001) %MON dynstat_eta_min              =  -1.6019900001096E+00
(PID.TID 0001.0001) %MON dynstat_eta_mean             =   1.4455047293066E-14
(PID.TID 0001.0001) %MON dynstat_eta_sd               =   5.9933045339066E-01
(PID.TID 0001.0001) %MON dynstat_eta_del2             =   1.1414395151835E-02
(PID.TID 0001.0001) %MON dynstat_uvel_max             =   1.9133550221714E-01
(PID.TID 0001.0001) %MON dynstat_uvel_min             =  -2.4970603137259E-01
(PID.TID 0001.0001) %MON dynstat_uvel_mean            =  -4.4824853021443E-04
(PID.TID 0001.0001) %MON dynstat_uvel_sd              =   1.1848226228856E-02
(PID.TID 0001.0001) %MON dynstat_uvel_del2            =   1.5747020336822E-03
(PID.TID 0001.0001) %MON dynstat_vvel_max             =   1.7275394454504E-01
(PID.TID 0001.0001) %MON dynstat_vvel_min             =  -2.2278326010179E-01
(PID.TID 0001.0001) %MON dynstat_vvel_mean            =  -3.6560970731987E-04
(PID.TID 0001.0001) %MON dynstat_vvel_sd              =   1.2679937946793E-02
(PID.TID 0001.0001) %MON dynstat_vvel_del2            =   1.6026421015464E-03
(PID.TID 0001.0001) %MON dynstat_wvel_max             =   1.0854798158629E-04
(PID.TID 0001.0001) %MON dynstat_wvel_min             =  -1.9734846470593E-04
(PID.TID 0001.0001) %MON dynstat_wvel_mean            =  -2.7271681199647E-10
(PID.TID 0001.0001) %MON dynstat_wvel_sd              =   3.5291441179972E-06
(PID.TID 0001.0001) %MON dynstat_wvel_del2            =   8.4160290187718E-07
(PID.TID 0001.0001) %MON dynstat_theta_max            =   3.1430066819115E+01
(PID.TID 0001.0001) %MON dynstat_theta_min            =  -4.1695504913151E+00
(PID.TID 0001.0001) %MON dynstat_theta_mean           =   3.9130475057988E+00
(PID.TID 0001.0001) %MON dynstat_theta_sd             =   4.5867909091590E+00
(PID.TID 0001.0001) %MON dynstat_theta_del2           =   8.9732641412726E-02
(PID.TID 0001.0001) %MON dynstat_salt_max             =   4.1436988531627E+01
(PID.TID 0001.0001) %MON dynstat_salt_min             =   1.8418543209632E+01
(PID.TID 0001.0001) %MON dynstat_salt_mean            =   3.4772132777121E+01
(PID.TID 0001.0001) %MON dynstat_salt_sd              =   5.3118953729977E-01
(PID.TID 0001.0001) %MON dynstat_salt_del2            =   1.8972793244435E-02
(PID.TID 0001.0001) %MON dynstat_sst_max              =   3.1430066819115E+01
(PID.TID 0001.0001) %MON dynstat_sst_min              =  -1.9855028493291E+00
(PID.TID 0001.0001) %MON dynstat_sst_mean             =   1.8417286097364E+01
(PID.TID 0001.0001) %MON dynstat_sst_sd               =   9.9783625869430E+00
(PID.TID 0001.0001) %MON dynstat_sst_del2             =   2.1357539170937E-01
(PID.TID 0001.0001) %MON dynstat_sss_max              =   4.1436988531627E+01
(PID.TID 0001.0001) %MON dynstat_sss_min              =   1.8418543209632E+01
(PID.TID 0001.0001) %MON dynstat_sss_mean             =   3.4620640372469E+01
(PID.TID 0001.0001) %MON dynstat_sss_sd               =   1.4540826073131E+00
(PID.TID 0001.0001) %MON dynstat_sss_del2             =   8.0442294839324E-02
(PID.TID 0001.0001) %MON extforcing_qnet_max          =   3.2726510830466E+02
(PID.TID 0001.0001) %MON extforcing_qnet_min          =  -1.8372183685567E+02
(PID.TID 0001.0001) %MON extforcing_qnet_mean         =  -8.0062758940907E+00
(PID.TID 0001.0001) %MON extforcing_qnet_sd           =   6.0978682507596E+01
(PID.TID 0001.0001) %MON extforcing_qnet_del2         =   4.8616682768117E+00
(PID.TID 0001.0001) %MON extforcing_qsw_max           =   0.0000000000000E+00
(PID.TID 0001.0001) %MON extforcing_qsw_min           =   0.0000000000000E+00
(PID.TID 0001.0001) %MON extforcing_qsw_mean          =   0.0000000000000E+00
(PID.TID 0001.0001) %MON extforcing_qsw_sd            =   0.0000000000000E+00
(PID.TID 0001.0001) %MON extforcing_qsw_del2          =   0.0000000000000E+00
(PID.TID 0001.0001) %MON extforcing_empmr_max         =   7.6494447208479E-08
(PID.TID 0001.0001) %MON extforcing_empmr_min         =  -1.5362614137596E-07
(PID.TID 0001.0001) %MON extforcing_empmr_mean        =  -2.0474999028391E-24
(PID.TID 0001.0001) %MON extforcing_empmr_sd          =   2.4051723601802E-08
(PID.TID 0001.0001) %MON extforcing_empmr_del2        =   1.2835223797615E-09
(PID.TID 0001.0001) %MON extforcing_fu_max            =   2.5780398017143E-01
(PID.TID 0001.0001) %MON extforcing_fu_min            =  -3.3747582146079E-01
(PID.TID 0001.0001) %MON extforcing_fu_mean           =  -8.3596605890148E-03
(PID.TID 0001.0001) %MON extforcing_fu_sd             =   7.0114525560367E-02
(PID.TID 0001.0001) %MON extforcing_fu_del2           =   3.0783748264085E-03
(PID.TID 0001.0001) %MON extforcing_fv_max            =   2.5691790934787E-01
(PID.TID 0001.0001) %MON extforcing_fv_min            =  -3.3568282753903E-01
(PID.TID 0001.0001) %MON extforcing_fv_mean           =  -1.2720442684183E-02
(PID.TID 0001.0001) %MON extforcing_fv_sd             =   7.9750037464555E-02
(PID.TID 0001.0001) %MON extforcing_fv_del2           =   3.4254062283962E-03
(PID.TID 0001.0001) %MON advcfl_uvel_max              =   7.4630007967152E-02
(PID.TID 0001.0001) %MON advcfl_vvel_max              =   7.5301010632611E-02
(PID.TID 0001.0001) %MON advcfl_wvel_max              =   6.4343046606010E-02
(PID.TID 0001.0001) %MON advcfl_W_hf_max              =   7.9337636591257E-02
(PID.TID 0001.0001) %MON pe_b_mean                    =   4.7851677202547E-04
(PID.TID 0001.0001) %MON ke_max                       =   3.4386834488657E-02
(PID.TID 0001.0001) %MON ke_mean                      =   1.3923717674571E-04
(PID.TID 0001.0001) %MON ke_vol                       =   1.3398024453628E+18
(PID.TID 0001.0001) %MON vort_r_min                   =  -1.3270634296384E-06
(PID.TID 0001.0001) %MON vort_r_max                   =   1.2239128045361E-06
(PID.TID 0001.0001) %MON vort_a_mean                  =  -2.0493733748264E-05
(PID.TID 0001.0001) %MON vort_a_sd                    =   7.5053954201268E-05
(PID.TID 0001.0001) %MON vort_p_mean                  =  -2.4715770898033E-05
(PID.TID 0001.0001) %MON vort_p_sd                    =   1.2777063767362E-04
(PID.TID 0001.0001) %MON surfExpan_theta_mean         =   5.9311649392148E-08
(PID.TID 0001.0001) %MON surfExpan_salt_mean          =   1.5493017873653E-08
(PID.TID 0001.0001) // =======================================================
(PID.TID 0001.0001) // End MONITOR dynamic field statistics
(PID.TID 0001.0001) // =======================================================
 DRIVER_GET_EXPORT_STATE_3D:MASK. This code is stubbed!
 DRIVER_SET_IMPORT_STATE_3D:SWHEAT. This code is stubbed!
 cg2d: Sum(rhs),rhsMax =  -9.37916411203332E-12  1.37734639943866E+00
(PID.TID 0001.0001)                    cg2d_init_res =    1.25456972553976E-01
(PID.TID 0001.0001)                       cg2d_iters =    61
(PID.TID 0001.0001)                         cg2d_res =    5.64255811972600E-07
(PID.TID 0001.0001) // =======================================================
(PID.TID 0001.0001) // Begin MONITOR dynamic field statistics
(PID.TID 0001.0001) // =======================================================
(PID.TID 0001.0001) %MON time_tsnumber                =                 72075
(PID.TID 0001.0001) %MON time_secondsf                =   6.2272800000000E+09
(PID.TID 0001.0001) %MON dynstat_eta_max              =   8.8173084408980E-01
(PID.TID 0001.0001) %MON dynstat_eta_min              =  -1.6022504093089E+00
(PID.TID 0001.0001) %MON dynstat_eta_mean             =   1.4345122979050E-14
(PID.TID 0001.0001) %MON dynstat_eta_sd               =   5.9953181623770E-01
(PID.TID 0001.0001) %MON dynstat_eta_del2             =   1.1416918226764E-02
(PID.TID 0001.0001) %MON dynstat_uvel_max             =   1.9175308080494E-01
(PID.TID 0001.0001) %MON dynstat_uvel_min             =  -2.4949090145311E-01
(PID.TID 0001.0001) %MON dynstat_uvel_mean            =  -4.4769253989481E-04
(PID.TID 0001.0001) %MON dynstat_uvel_sd              =   1.1848149115487E-02
(PID.TID 0001.0001) %MON dynstat_uvel_del2            =   1.5748007213371E-03
(PID.TID 0001.0001) %MON dynstat_vvel_max             =   1.7288228057047E-01
(PID.TID 0001.0001) %MON dynstat_vvel_min             =  -2.2273226784380E-01
(PID.TID 0001.0001) %MON dynstat_vvel_mean            =  -3.6460107055004E-04
(PID.TID 0001.0001) %MON dynstat_vvel_sd              =   1.2682228210264E-02
(PID.TID 0001.0001) %MON dynstat_vvel_del2            =   1.6032065042228E-03
(PID.TID 0001.0001) %MON dynstat_wvel_max             =   1.0838010567957E-04
(PID.TID 0001.0001) %MON dynstat_wvel_min             =  -1.9707574117943E-04
(PID.TID 0001.0001) %MON dynstat_wvel_mean            =  -2.5849460635248E-10
(PID.TID 0001.0001) %MON dynstat_wvel_sd              =   3.5258267766010E-06
(PID.TID 0001.0001) %MON dynstat_wvel_del2            =   8.4199508977836E-07
(PID.TID 0001.0001) %MON dynstat_theta_max            =   3.1434767065798E+01
(PID.TID 0001.0001) %MON dynstat_theta_min            =  -4.1693928328336E+00
(PID.TID 0001.0001) %MON dynstat_theta_mean           =   3.9130661416294E+00
(PID.TID 0001.0001) %MON dynstat_theta_sd             =   4.5870420304837E+00
(PID.TID 0001.0001) %MON dynstat_theta_del2           =   8.9746550757406E-02
(PID.TID 0001.0001) %MON dynstat_salt_max             =   4.1437910829631E+01
(PID.TID 0001.0001) %MON dynstat_salt_min             =   1.8418511111648E+01
(PID.TID 0001.0001) %MON dynstat_salt_mean            =   3.4772133867484E+01
(PID.TID 0001.0001) %MON dynstat_salt_sd              =   5.3118508790807E-01
(PID.TID 0001.0001) %MON dynstat_salt_del2            =   1.8973884848802E-02
(PID.TID 0001.0001) %MON dynstat_sst_max              =   3.1434767065798E+01
(PID.TID 0001.0001) %MON dynstat_sst_min              =  -1.9881353882086E+00
(PID.TID 0001.0001) %MON dynstat_sst_mean             =   1.8416981277324E+01
(PID.TID 0001.0001) %MON dynstat_sst_sd               =   9.9862082177614E+00
(PID.TID 0001.0001) %MON dynstat_sst_del2             =   2.1340628568469E-01
(PID.TID 0001.0001) %MON dynstat_sss_max              =   4.1437910829631E+01
(PID.TID 0001.0001) %MON dynstat_sss_min              =   1.8418511111648E+01
(PID.TID 0001.0001) %MON dynstat_sss_mean             =   3.4620655034024E+01
(PID.TID 0001.0001) %MON dynstat_sss_sd               =   1.4539665094812E+00
(PID.TID 0001.0001) %MON dynstat_sss_del2             =   8.0438825478618E-02
(PID.TID 0001.0001) %MON extforcing_qnet_max          =   3.2703930580129E+02
(PID.TID 0001.0001) %MON extforcing_qnet_min          =  -1.8422993144575E+02
(PID.TID 0001.0001) %MON extforcing_qnet_mean         =  -7.8029577480959E+00
(PID.TID 0001.0001) %MON extforcing_qnet_sd           =   6.0629958572826E+01
(PID.TID 0001.0001) %MON extforcing_qnet_del2         =   4.8852319940990E+00
(PID.TID 0001.0001) %MON extforcing_qsw_max           =   0.0000000000000E+00
(PID.TID 0001.0001) %MON extforcing_qsw_min           =   0.0000000000000E+00
(PID.TID 0001.0001) %MON extforcing_qsw_mean          =   0.0000000000000E+00
(PID.TID 0001.0001) %MON extforcing_qsw_sd            =   0.0000000000000E+00
(PID.TID 0001.0001) %MON extforcing_qsw_del2          =   0.0000000000000E+00
(PID.TID 0001.0001) %MON extforcing_empmr_max         =   7.6494447208479E-08
(PID.TID 0001.0001) %MON extforcing_empmr_min         =  -1.5362614137596E-07
(PID.TID 0001.0001) %MON extforcing_empmr_mean        =  -2.0474999028391E-24
(PID.TID 0001.0001) %MON extforcing_empmr_sd          =   2.4051723601802E-08
(PID.TID 0001.0001) %MON extforcing_empmr_del2        =   1.2835223797615E-09
(PID.TID 0001.0001) %MON extforcing_fu_max            =   2.5771806381180E-01
(PID.TID 0001.0001) %MON extforcing_fu_min            =  -3.4181375013483E-01
(PID.TID 0001.0001) %MON extforcing_fu_mean           =  -8.4844961048532E-03
(PID.TID 0001.0001) %MON extforcing_fu_sd             =   7.0476693205129E-02
(PID.TID 0001.0001) %MON extforcing_fu_del2           =   3.1185780664764E-03
(PID.TID 0001.0001) %MON extforcing_fv_max            =   2.5818312832019E-01
(PID.TID 0001.0001) %MON extforcing_fv_min            =  -3.3682116089535E-01
(PID.TID 0001.0001) %MON extforcing_fv_mean           =  -1.2685783725871E-02
(PID.TID 0001.0001) %MON extforcing_fv_sd             =   8.0156262169976E-02
(PID.TID 0001.0001) %MON extforcing_fv_del2           =   3.4698788392596E-03
(PID.TID 0001.0001) %MON advcfl_uvel_max              =   7.4862802043518E-02
(PID.TID 0001.0001) %MON advcfl_vvel_max              =   7.5356950498071E-02
(PID.TID 0001.0001) %MON advcfl_wvel_max              =   6.4254128444917E-02
(PID.TID 0001.0001) %MON advcfl_W_hf_max              =   7.9228032763838E-02
(PID.TID 0001.0001) %MON pe_b_mean                    =   4.7883836985441E-04
(PID.TID 0001.0001) %MON ke_max                       =   3.4345598964221E-02
(PID.TID 0001.0001) %MON ke_mean                      =   1.3926271281448E-04
(PID.TID 0001.0001) %MON ke_vol                       =   1.3398024453628E+18
(PID.TID 0001.0001) %MON vort_r_min                   =  -1.3261297718544E-06
(PID.TID 0001.0001) %MON vort_r_max                   =   1.2303285768569E-06
(PID.TID 0001.0001) %MON vort_a_mean                  =  -2.0493733748264E-05
(PID.TID 0001.0001) %MON vort_a_sd                    =   7.5053954404189E-05
(PID.TID 0001.0001) %MON vort_p_mean                  =  -2.4715770837813E-05
(PID.TID 0001.0001) %MON vort_p_sd                    =   1.2777064604497E-04
(PID.TID 0001.0001) %MON surfExpan_theta_mean         =   5.9242501568041E-08
(PID.TID 0001.0001) %MON surfExpan_salt_mean          =   1.5528310124282E-08
(PID.TID 0001.0001) // =======================================================
(PID.TID 0001.0001) // End MONITOR dynamic field statistics
(PID.TID 0001.0001) // =======================================================
 DRIVER_GET_EXPORT_STATE_3D:MASK. This code is stubbed!
 DRIVER_SET_IMPORT_STATE_3D:SWHEAT. This code is stubbed!
S/R EXTERNAL_FIELDS_LOAD: Reading new data:    3    4     72075  6.227280000000E+09
(PID.TID 0001.0001)  MDS_READ_FIELD: opening global file: trenberth_taux.bin
(PID.TID 0001.0001)  MDS_READ_FIELD: opening global file: trenberth_taux.bin
(PID.TID 0001.0001)  MDS_READ_FIELD: opening global file: trenberth_tauy.bin
(PID.TID 0001.0001)  MDS_READ_FIELD: opening global file: trenberth_tauy.bin
(PID.TID 0001.0001)  MDS_READ_FIELD: opening global file: shiQnet_cs32.bin
(PID.TID 0001.0001)  MDS_READ_FIELD: opening global file: shiQnet_cs32.bin
(PID.TID 0001.0001)  MDS_READ_FIELD: opening global file: shiEmPR_cs32.bin
(PID.TID 0001.0001)  MDS_READ_FIELD: opening global file: shiEmPR_cs32.bin
(PID.TID 0001.0001)  MDS_READ_FIELD: opening global file: lev_surfT_cs_12m.bin
(PID.TID 0001.0001)  MDS_READ_FIELD: opening global file: lev_surfT_cs_12m.bin
(PID.TID 0001.0001)  MDS_READ_FIELD: opening global file: lev_surfS_cs_12m.bin
(PID.TID 0001.0001)  MDS_READ_FIELD: opening global file: lev_surfS_cs_12m.bin
 cg2d: Sum(rhs),rhsMax =  -1.02318153949454E-11  1.37633554187380E+00
(PID.TID 0001.0001)                    cg2d_init_res =    1.25694269597186E-01
(PID.TID 0001.0001)                       cg2d_iters =    61
(PID.TID 0001.0001)                         cg2d_res =    5.53528635775186E-07
(PID.TID 0001.0001) // =======================================================
(PID.TID 0001.0001) // Begin MONITOR dynamic field statistics
(PID.TID 0001.0001) // =======================================================
(PID.TID 0001.0001) %MON time_tsnumber                =                 72076
(PID.TID 0001.0001) %MON time_secondsf                =   6.2273664000000E+09
(PID.TID 0001.0001) %MON dynstat_eta_max              =   8.8236098557397E-01
(PID.TID 0001.0001) %MON dynstat_eta_min              =  -1.6025295422861E+00
(PID.TID 0001.0001) %MON dynstat_eta_mean             =   1.4317641900547E-14
(PID.TID 0001.0001) %MON dynstat_eta_sd               =   5.9972489144413E-01
(PID.TID 0001.0001) %MON dynstat_eta_del2             =   1.1419714558579E-02
(PID.TID 0001.0001) %MON dynstat_uvel_max             =   1.9212699723360E-01
(PID.TID 0001.0001) %MON dynstat_uvel_min             =  -2.4927259732999E-01
(PID.TID 0001.0001) %MON dynstat_uvel_mean            =  -4.4714926279546E-04
(PID.TID 0001.0001) %MON dynstat_uvel_sd              =   1.1848547212312E-02
(PID.TID 0001.0001) %MON dynstat_uvel_del2            =   1.5749703862501E-03
(PID.TID 0001.0001) %MON dynstat_vvel_max             =   1.7298311841556E-01
(PID.TID 0001.0001) %MON dynstat_vvel_min             =  -2.2267587631816E-01
(PID.TID 0001.0001) %MON dynstat_vvel_mean            =  -3.6357873584789E-04
(PID.TID 0001.0001) %MON dynstat_vvel_sd              =   1.2684386382222E-02
(PID.TID 0001.0001) %MON dynstat_vvel_del2            =   1.6037935805126E-03
(PID.TID 0001.0001) %MON dynstat_wvel_max             =   1.0817732076872E-04
(PID.TID 0001.0001) %MON dynstat_wvel_min             =  -1.9681039067712E-04
(PID.TID 0001.0001) %MON dynstat_wvel_mean            =  -2.4469658836237E-10
(PID.TID 0001.0001) %MON dynstat_wvel_sd              =   3.5228726132167E-06
(PID.TID 0001.0001) %MON dynstat_wvel_del2            =   8.4241973766636E-07
(PID.TID 0001.0001) %MON dynstat_theta_max            =   3.1438718446270E+01
(PID.TID 0001.0001) %MON dynstat_theta_min            =  -4.1685131750634E+00
(PID.TID 0001.0001) %MON dynstat_theta_mean           =   3.9130839888012E+00
(PID.TID 0001.0001) %MON dynstat_theta_sd             =   4.5872922168220E+00
(PID.TID 0001.0001) %MON dynstat_theta_del2           =   8.9759417435090E-02
(PID.TID 0001.0001) %MON dynstat_salt_max             =   4.1438838680445E+01
(PID.TID 0001.0001) %MON dynstat_salt_min             =   1.8418468358433E+01
(PID.TID 0001.0001) %MON dynstat_salt_mean            =   3.4772134958139E+01
(PID.TID 0001.0001) %MON dynstat_salt_sd              =   5.3118071823890E-01
(PID.TID 0001.0001) %MON dynstat_salt_del2            =   1.8975523283871E-02
(PID.TID 0001.0001) %MON dynstat_sst_max              =   3.1438718446270E+01
(PID.TID 0001.0001) %MON dynstat_sst_min              =  -1.9907748458456E+00
(PID.TID 0001.0001) %MON dynstat_sst_mean             =   1.8416579655703E+01
(PID.TID 0001.0001) %MON dynstat_sst_sd               =   9.9941138403538E+00
(PID.TID 0001.0001) %MON dynstat_sst_del2             =   2.1322174330207E-01
(PID.TID 0001.0001) %MON dynstat_sss_max              =   4.1438838680445E+01
(PID.TID 0001.0001) %MON dynstat_sss_min              =   1.8418468358433E+01
(PID.TID 0001.0001) %MON dynstat_sss_mean             =   3.4620677112681E+01
(PID.TID 0001.0001) %MON dynstat_sss_sd               =   1.4538632742225E+00
(PID.TID 0001.0001) %MON dynstat_sss_del2             =   8.0437709719707E-02
(PID.TID 0001.0001) %MON extforcing_qnet_max          =   3.2681350329793E+02
(PID.TID 0001.0001) %MON extforcing_qnet_min          =  -1.8473802603583E+02
(PID.TID 0001.0001) %MON extforcing_qnet_mean         =  -7.5996396021010E+00
(PID.TID 0001.0001) %MON extforcing_qnet_sd           =   6.0332936086325E+01
(PID.TID 0001.0001) %MON extforcing_qnet_del2         =   4.9110132860793E+00
(PID.TID 0001.0001) %MON extforcing_qsw_max           =   0.0000000000000E+00
(PID.TID 0001.0001) %MON extforcing_qsw_min           =   0.0000000000000E+00
(PID.TID 0001.0001) %MON extforcing_qsw_mean          =   0.0000000000000E+00
(PID.TID 0001.0001) %MON extforcing_qsw_sd            =   0.0000000000000E+00
(PID.TID 0001.0001) %MON extforcing_qsw_del2          =   0.0000000000000E+00
(PID.TID 0001.0001) %MON extforcing_empmr_max         =   7.6494447208479E-08
(PID.TID 0001.0001) %MON extforcing_empmr_min         =  -1.5362614137596E-07
(PID.TID 0001.0001) %MON extforcing_empmr_mean        =  -2.0474999028391E-24
(PID.TID 0001.0001) %MON extforcing_empmr_sd          =   2.4051723601802E-08
(PID.TID 0001.0001) %MON extforcing_empmr_del2        =   1.2835223797615E-09
(PID.TID 0001.0001) %MON extforcing_fu_max            =   2.5763214745217E-01
(PID.TID 0001.0001) %MON extforcing_fu_min            =  -3.4615167880888E-01
(PID.TID 0001.0001) %MON extforcing_fu_mean           =  -8.6093307665017E-03
(PID.TID 0001.0001) %MON extforcing_fu_sd             =   7.0851478518888E-02
(PID.TID 0001.0001) %MON extforcing_fu_del2           =   3.1616550183080E-03
(PID.TID 0001.0001) %MON extforcing_fv_max            =   2.5944834729251E-01
(PID.TID 0001.0001) %MON extforcing_fv_min            =  -3.3795949425166E-01
(PID.TID 0001.0001) %MON extforcing_fv_mean           =  -1.2651124493027E-02
(PID.TID 0001.0001) %MON extforcing_fv_sd             =   8.0579923773102E-02
(PID.TID 0001.0001) %MON extforcing_fv_del2           =   3.5168065961194E-03
(PID.TID 0001.0001) %MON advcfl_uvel_max              =   7.5072473748630E-02
(PID.TID 0001.0001) %MON advcfl_vvel_max              =   7.5400904294120E-02
(PID.TID 0001.0001) %MON advcfl_wvel_max              =   6.4167614167937E-02
(PID.TID 0001.0001) %MON advcfl_W_hf_max              =   7.9121390675387E-02
(PID.TID 0001.0001) %MON pe_b_mean                    =   4.7914683289623E-04
(PID.TID 0001.0001) %MON ke_max                       =   3.4303280875991E-02
(PID.TID 0001.0001) %MON ke_mean                      =   1.3929187394526E-04
(PID.TID 0001.0001) %MON ke_vol                       =   1.3398024453628E+18
(PID.TID 0001.0001) %MON vort_r_min                   =  -1.3251470980279E-06
(PID.TID 0001.0001) %MON vort_r_max                   =   1.2367987346733E-06
(PID.TID 0001.0001) %MON vort_a_mean                  =  -2.0493733748264E-05
(PID.TID 0001.0001) %MON vort_a_sd                    =   7.5053954599409E-05
(PID.TID 0001.0001) %MON vort_p_mean                  =  -2.4715770780597E-05
(PID.TID 0001.0001) %MON vort_p_sd                    =   1.2777065423541E-04
(PID.TID 0001.0001) %MON surfExpan_theta_mean         =   5.9181344349519E-08
(PID.TID 0001.0001) %MON surfExpan_salt_mean          =   1.5570011494561E-08
(PID.TID 0001.0001) // =======================================================
(PID.TID 0001.0001) // End MONITOR dynamic field statistics
(PID.TID 0001.0001) // =======================================================
 DRIVER_GET_EXPORT_STATE_3D:MASK. This code is stubbed!
 DRIVER_SET_IMPORT_STATE_3D:SWHEAT. This code is stubbed!
 cg2d: Sum(rhs),rhsMax =  -9.83391146291979E-12  1.37492191500057E+00
(PID.TID 0001.0001)                    cg2d_init_res =    1.25878264478018E-01
(PID.TID 0001.0001)                       cg2d_iters =    61
(PID.TID 0001.0001)                         cg2d_res =    5.28291585162101E-07
(PID.TID 0001.0001) // =======================================================
(PID.TID 0001.0001) // Begin MONITOR dynamic field statistics
(PID.TID 0001.0001) // =======================================================
(PID.TID 0001.0001) %MON time_tsnumber                =                 72077
(PID.TID 0001.0001) %MON time_secondsf                =   6.2274528000000E+09
(PID.TID 0001.0001) %MON dynstat_eta_max              =   8.8299088111292E-01
(PID.TID 0001.0001) %MON dynstat_eta_min              =  -1.6027743911519E+00
(PID.TID 0001.0001) %MON dynstat_eta_mean             =   1.4482528371570E-14
(PID.TID 0001.0001) %MON dynstat_eta_sd               =   5.9990304020467E-01
(PID.TID 0001.0001) %MON dynstat_eta_del2             =   1.1421042896267E-02
(PID.TID 0001.0001) %MON dynstat_uvel_max             =   1.9249115374009E-01
(PID.TID 0001.0001) %MON dynstat_uvel_min             =  -2.4905033109084E-01
(PID.TID 0001.0001) %MON dynstat_uvel_mean            =  -4.4655337013036E-04
(PID.TID 0001.0001) %MON dynstat_uvel_sd              =   1.1849380242666E-02
(PID.TID 0001.0001) %MON dynstat_uvel_del2            =   1.5751285413651E-03
(PID.TID 0001.0001) %MON dynstat_vvel_max             =   1.7305520245000E-01
(PID.TID 0001.0001) %MON dynstat_vvel_min             =  -2.2261276487587E-01
(PID.TID 0001.0001) %MON dynstat_vvel_mean            =  -3.6256308904205E-04
(PID.TID 0001.0001) %MON dynstat_vvel_sd              =   1.2685267284468E-02
(PID.TID 0001.0001) %MON dynstat_vvel_del2            =   1.6043611115042E-03
(PID.TID 0001.0001) %MON dynstat_wvel_max             =   1.0794382986523E-04
(PID.TID 0001.0001) %MON dynstat_wvel_min             =  -1.9656392037029E-04
(PID.TID 0001.0001) %MON dynstat_wvel_mean            =  -2.2914923089988E-10
(PID.TID 0001.0001) %MON dynstat_wvel_sd              =   3.5203596603101E-06
(PID.TID 0001.0001) %MON dynstat_wvel_del2            =   8.4289545241736E-07
(PID.TID 0001.0001) %MON dynstat_theta_max            =   3.1441461432919E+01
(PID.TID 0001.0001) %MON dynstat_theta_min            =  -4.1669595213984E+00
(PID.TID 0001.0001) %MON dynstat_theta_mean           =   3.9130995958403E+00
(PID.TID 0001.0001) %MON dynstat_theta_sd             =   4.5875318129569E+00
(PID.TID 0001.0001) %MON dynstat_theta_del2           =   8.9770007169161E-02
(PID.TID 0001.0001) %MON dynstat_salt_max             =   4.1439660159172E+01
(PID.TID 0001.0001) %MON dynstat_salt_min             =   1.8418440771408E+01
(PID.TID 0001.0001) %MON dynstat_salt_mean            =   3.4772136062506E+01
(PID.TID 0001.0001) %MON dynstat_salt_sd              =   5.3117631723629E-01
(PID.TID 0001.0001) %MON dynstat_salt_del2            =   1.8975858447228E-02
(PID.TID 0001.0001) %MON dynstat_sst_max              =   3.1441461432919E+01
(PID.TID 0001.0001) %MON dynstat_sst_min              =  -1.9905774857568E+00
(PID.TID 0001.0001) %MON dynstat_sst_mean             =   1.8415883779327E+01
(PID.TID 0001.0001) %MON dynstat_sst_sd               =   1.0001965539841E+01
(PID.TID 0001.0001) %MON dynstat_sst_del2             =   2.1301174807633E-01
(PID.TID 0001.0001) %MON dynstat_sss_max              =   4.1439660159172E+01
(PID.TID 0001.0001) %MON dynstat_sss_min              =   1.8418440771408E+01
(PID.TID 0001.0001) %MON dynstat_sss_mean             =   3.4620693688780E+01
(PID.TID 0001.0001) %MON dynstat_sss_sd               =   1.4537578871197E+00
(PID.TID 0001.0001) %MON dynstat_sss_del2             =   8.0431886196925E-02
(PID.TID 0001.0001) %MON extforcing_qnet_max          =   3.2192078789803E+02
(PID.TID 0001.0001) %MON extforcing_qnet_min          =  -1.8419329843260E+02
(PID.TID 0001.0001) %MON extforcing_qnet_mean         =  -7.2139527035485E+00
(PID.TID 0001.0001) %MON extforcing_qnet_sd           =   5.9498593057739E+01
(PID.TID 0001.0001) %MON extforcing_qnet_del2         =   4.8714224376269E+00
(PID.TID 0001.0001) %MON extforcing_qsw_max           =   0.0000000000000E+00
(PID.TID 0001.0001) %MON extforcing_qsw_min           =   0.0000000000000E+00
(PID.TID 0001.0001) %MON extforcing_qsw_mean          =   0.0000000000000E+00
(PID.TID 0001.0001) %MON extforcing_qsw_sd            =   0.0000000000000E+00
(PID.TID 0001.0001) %MON extforcing_qsw_del2          =   0.0000000000000E+00
(PID.TID 0001.0001) %MON extforcing_empmr_max         =   7.6494447208479E-08
(PID.TID 0001.0001) %MON extforcing_empmr_min         =  -1.5362614137596E-07
(PID.TID 0001.0001) %MON extforcing_empmr_mean        =  -1.6379999222713E-24
(PID.TID 0001.0001) %MON extforcing_empmr_sd          =   2.4051723601802E-08
(PID.TID 0001.0001) %MON extforcing_empmr_del2        =   1.2835223797615E-09
(PID.TID 0001.0001) %MON extforcing_fu_max            =   2.5826097122533E-01
(PID.TID 0001.0001) %MON extforcing_fu_min            =  -3.4372797448693E-01
(PID.TID 0001.0001) %MON extforcing_fu_mean           =  -8.6091995173459E-03
(PID.TID 0001.0001) %MON extforcing_fu_sd             =   7.0786533603689E-02
(PID.TID 0001.0001) %MON extforcing_fu_del2           =   3.1130173523104E-03
(PID.TID 0001.0001) %MON extforcing_fv_max            =   2.5104870783483E-01
(PID.TID 0001.0001) %MON extforcing_fv_min            =  -3.3699272536324E-01
(PID.TID 0001.0001) %MON extforcing_fv_mean           =  -1.2663790232313E-02
(PID.TID 0001.0001) %MON extforcing_fv_sd             =   8.0017204887245E-02
(PID.TID 0001.0001) %MON extforcing_fv_del2           =   3.4595537186638E-03
(PID.TID 0001.0001) %MON advcfl_uvel_max              =   7.5263597512294E-02
(PID.TID 0001.0001) %MON advcfl_vvel_max              =   7.5432324709198E-02
(PID.TID 0001.0001) %MON advcfl_wvel_max              =   6.4087255547145E-02
(PID.TID 0001.0001) %MON advcfl_W_hf_max              =   7.9022336649398E-02
(PID.TID 0001.0001) %MON pe_b_mean                    =   4.7943153707861E-04
(PID.TID 0001.0001) %MON ke_max                       =   3.4260714849861E-02
(PID.TID 0001.0001) %MON ke_mean                      =   1.3931072141621E-04
(PID.TID 0001.0001) %MON ke_vol                       =   1.3398024453628E+18
(PID.TID 0001.0001) %MON vort_r_min                   =  -1.3242711994969E-06
(PID.TID 0001.0001) %MON vort_r_max                   =   1.2437785777412E-06
(PID.TID 0001.0001) %MON vort_a_mean                  =  -2.0493733748264E-05
(PID.TID 0001.0001) %MON vort_a_sd                    =   7.5053954775596E-05
(PID.TID 0001.0001) %MON vort_p_mean                  =  -2.4715770726632E-05
(PID.TID 0001.0001) %MON vort_p_sd                    =   1.2777066222689E-04
(PID.TID 0001.0001) %MON surfExpan_theta_mean         =   5.8552254474044E-08
(PID.TID 0001.0001) %MON surfExpan_salt_mean          =   1.5533221502340E-08
(PID.TID 0001.0001) // =======================================================
(PID.TID 0001.0001) // End MONITOR dynamic field statistics
(PID.TID 0001.0001) // =======================================================
 DRIVER_GET_EXPORT_STATE_3D:MASK. This code is stubbed!
 DRIVER_SET_IMPORT_STATE_3D:SWHEAT. This code is stubbed!
 cg2d: Sum(rhs),rhsMax =  -9.74864633462857E-12  1.37372475759595E+00
(PID.TID 0001.0001)                    cg2d_init_res =    1.25332804058316E-01
(PID.TID 0001.0001)                       cg2d_iters =    60
(PID.TID 0001.0001)                         cg2d_res =    5.78819051541821E-07
(PID.TID 0001.0001) // =======================================================
(PID.TID 0001.0001) // Begin MONITOR dynamic field statistics
(PID.TID 0001.0001) // =======================================================
(PID.TID 0001.0001) %MON time_tsnumber                =                 72078
(PID.TID 0001.0001) %MON time_secondsf                =   6.2275392000000E+09
(PID.TID 0001.0001) %MON dynstat_eta_max              =   8.8361838679549E-01
(PID.TID 0001.0001) %MON dynstat_eta_min              =  -1.6029722213282E+00
(PID.TID 0001.0001) %MON dynstat_eta_mean             =   1.4400085136058E-14
(PID.TID 0001.0001) %MON dynstat_eta_sd               =   6.0006410638716E-01
(PID.TID 0001.0001) %MON dynstat_eta_del2             =   1.1422304003002E-02
(PID.TID 0001.0001) %MON dynstat_uvel_max             =   1.9283206998193E-01
(PID.TID 0001.0001) %MON dynstat_uvel_min             =  -2.4882422904584E-01
(PID.TID 0001.0001) %MON dynstat_uvel_mean            =  -4.4594407393821E-04
(PID.TID 0001.0001) %MON dynstat_uvel_sd              =   1.1850460937780E-02
(PID.TID 0001.0001) %MON dynstat_uvel_del2            =   1.5752334384190E-03
(PID.TID 0001.0001) %MON dynstat_vvel_max             =   1.7309738014252E-01
(PID.TID 0001.0001) %MON dynstat_vvel_min             =  -2.2254373440365E-01
(PID.TID 0001.0001) %MON dynstat_vvel_mean            =  -3.6152713742705E-04
(PID.TID 0001.0001) %MON dynstat_vvel_sd              =   1.2685310575463E-02
(PID.TID 0001.0001) %MON dynstat_vvel_del2            =   1.6050508296151E-03
(PID.TID 0001.0001) %MON dynstat_wvel_max             =   1.0768632590857E-04
(PID.TID 0001.0001) %MON dynstat_wvel_min             =  -1.9633262957476E-04
(PID.TID 0001.0001) %MON dynstat_wvel_mean            =  -1.9955394225573E-10
(PID.TID 0001.0001) %MON dynstat_wvel_sd              =   3.5182031154098E-06
(PID.TID 0001.0001) %MON dynstat_wvel_del2            =   8.4338172226654E-07
(PID.TID 0001.0001) %MON dynstat_theta_max            =   3.1442977161692E+01
(PID.TID 0001.0001) %MON dynstat_theta_min            =  -4.1647229572153E+00
(PID.TID 0001.0001) %MON dynstat_theta_mean           =   3.9131128560845E+00
(PID.TID 0001.0001) %MON dynstat_theta_sd             =   4.5877613265685E+00
(PID.TID 0001.0001) %MON dynstat_theta_del2           =   8.9781558089003E-02
(PID.TID 0001.0001) %MON dynstat_salt_max             =   4.1440376619827E+01
(PID.TID 0001.0001) %MON dynstat_salt_min             =   1.8418428543387E+01
(PID.TID 0001.0001) %MON dynstat_salt_mean            =   3.4772137177936E+01
(PID.TID 0001.0001) %MON dynstat_salt_sd              =   5.3117189737326E-01
(PID.TID 0001.0001) %MON dynstat_salt_del2            =   1.8976019443669E-02
(PID.TID 0001.0001) %MON dynstat_sst_max              =   3.1442977161692E+01
(PID.TID 0001.0001) %MON dynstat_sst_min              =  -1.9903701663055E+00
(PID.TID 0001.0001) %MON dynstat_sst_mean             =   1.8414948086674E+01
(PID.TID 0001.0001) %MON dynstat_sst_sd               =   1.0009760557090E+01
(PID.TID 0001.0001) %MON dynstat_sst_del2             =   2.1281952227344E-01
(PID.TID 0001.0001) %MON dynstat_sss_max              =   4.1440376619827E+01
(PID.TID 0001.0001) %MON dynstat_sss_min              =   1.8418428543387E+01
(PID.TID 0001.0001) %MON dynstat_sss_mean             =   3.4620714939524E+01
(PID.TID 0001.0001) %MON dynstat_sss_sd               =   1.4536600809101E+00
(PID.TID 0001.0001) %MON dynstat_sss_del2             =   8.0427906424081E-02
(PID.TID 0001.0001) %MON extforcing_qnet_max          =   3.1702807249813E+02
(PID.TID 0001.0001) %MON extforcing_qnet_min          =  -1.8364857082938E+02
(PID.TID 0001.0001) %MON extforcing_qnet_mean         =  -6.8282658049960E+00
(PID.TID 0001.0001) %MON extforcing_qnet_sd           =   5.8715778443579E+01
(PID.TID 0001.0001) %MON extforcing_qnet_del2         =   4.8335486071565E+00
(PID.TID 0001.0001) %MON extforcing_qsw_max           =   0.0000000000000E+00
(PID.TID 0001.0001) %MON extforcing_qsw_min           =   0.0000000000000E+00
(PID.TID 0001.0001) %MON extforcing_qsw_mean          =   0.0000000000000E+00
(PID.TID 0001.0001) %MON extforcing_qsw_sd            =   0.0000000000000E+00
(PID.TID 0001.0001) %MON extforcing_qsw_del2          =   0.0000000000000E+00
(PID.TID 0001.0001) %MON extforcing_empmr_max         =   7.6494447208479E-08
(PID.TID 0001.0001) %MON extforcing_empmr_min         =  -1.5362614137596E-07
(PID.TID 0001.0001) %MON extforcing_empmr_mean        =  -2.0474999028391E-24
(PID.TID 0001.0001) %MON extforcing_empmr_sd          =   2.4051723601802E-08
(PID.TID 0001.0001) %MON extforcing_empmr_del2        =   1.2835223797615E-09
(PID.TID 0001.0001) %MON extforcing_fu_max            =   2.5888979499848E-01
(PID.TID 0001.0001) %MON extforcing_fu_min            =  -3.4130427016498E-01
(PID.TID 0001.0001) %MON extforcing_fu_mean           =  -8.6090649016594E-03
(PID.TID 0001.0001) %MON extforcing_fu_sd             =   7.0739989648810E-02
(PID.TID 0001.0001) %MON extforcing_fu_del2           =   3.0664707864143E-03
(PID.TID 0001.0001) %MON extforcing_fv_max            =   2.4264906837714E-01
(PID.TID 0001.0001) %MON extforcing_fv_min            =  -3.3602595647482E-01
(PID.TID 0001.0001) %MON extforcing_fv_mean           =  -1.2676453707116E-02
(PID.TID 0001.0001) %MON extforcing_fv_sd             =   7.9476186853396E-02
(PID.TID 0001.0001) %MON extforcing_fv_del2           =   3.4042860205552E-03
(PID.TID 0001.0001) %MON advcfl_uvel_max              =   7.5435148549432E-02
(PID.TID 0001.0001) %MON advcfl_vvel_max              =   7.5450709371156E-02
(PID.TID 0001.0001) %MON advcfl_wvel_max              =   6.4011846019847E-02
(PID.TID 0001.0001) %MON advcfl_W_hf_max              =   7.8929379956469E-02
(PID.TID 0001.0001) %MON pe_b_mean                    =   4.7968901393264E-04
(PID.TID 0001.0001) %MON ke_max                       =   3.4217479092339E-02
(PID.TID 0001.0001) %MON ke_mean                      =   1.3932239613293E-04
(PID.TID 0001.0001) %MON ke_vol                       =   1.3398024453628E+18
(PID.TID 0001.0001) %MON vort_r_min                   =  -1.3234505445974E-06
(PID.TID 0001.0001) %MON vort_r_max                   =   1.2510210354433E-06
(PID.TID 0001.0001) %MON vort_a_mean                  =  -2.0493733748264E-05
(PID.TID 0001.0001) %MON vort_a_sd                    =   7.5053954945041E-05
(PID.TID 0001.0001) %MON vort_p_mean                  =  -2.4715770679420E-05
(PID.TID 0001.0001) %MON vort_p_sd                    =   1.2777066946588E-04
(PID.TID 0001.0001) %MON surfExpan_theta_mean         =   5.7928151153151E-08
(PID.TID 0001.0001) %MON surfExpan_salt_mean          =   1.5491462654064E-08
(PID.TID 0001.0001) // =======================================================
(PID.TID 0001.0001) // End MONITOR dynamic field statistics
(PID.TID 0001.0001) // =======================================================
 DRIVER_GET_EXPORT_STATE_3D:MASK. This code is stubbed!
 DRIVER_SET_IMPORT_STATE_3D:SWHEAT. This code is stubbed!
 cg2d: Sum(rhs),rhsMax =  -9.83391146291979E-12  1.37219546255313E+00
(PID.TID 0001.0001)                    cg2d_init_res =    1.23923785145858E-01
(PID.TID 0001.0001)                       cg2d_iters =    60
(PID.TID 0001.0001)                         cg2d_res =    5.45907208431991E-07
(PID.TID 0001.0001) // =======================================================
(PID.TID 0001.0001) // Begin MONITOR dynamic field statistics
(PID.TID 0001.0001) // =======================================================
(PID.TID 0001.0001) %MON time_tsnumber                =                 72079
(PID.TID 0001.0001) %MON time_secondsf                =   6.2276256000000E+09
(PID.TID 0001.0001) %MON dynstat_eta_max              =   8.8423811919636E-01
(PID.TID 0001.0001) %MON dynstat_eta_min              =  -1.6031555873561E+00
(PID.TID 0001.0001) %MON dynstat_eta_mean             =   1.4317641900547E-14
(PID.TID 0001.0001) %MON dynstat_eta_sd               =   6.0020769714922E-01
(PID.TID 0001.0001) %MON dynstat_eta_del2             =   1.1423811932666E-02
(PID.TID 0001.0001) %MON dynstat_uvel_max             =   1.9314968569117E-01
(PID.TID 0001.0001) %MON dynstat_uvel_min             =  -2.4859418422576E-01
(PID.TID 0001.0001) %MON dynstat_uvel_mean            =  -4.4533126913419E-04
(PID.TID 0001.0001) %MON dynstat_uvel_sd              =   1.1851691523060E-02
(PID.TID 0001.0001) %MON dynstat_uvel_del2            =   1.5752767101147E-03
(PID.TID 0001.0001) %MON dynstat_vvel_max             =   1.7310877179761E-01
(PID.TID 0001.0001) %MON dynstat_vvel_min             =  -2.2246901830314E-01
(PID.TID 0001.0001) %MON dynstat_vvel_mean            =  -3.6046982900512E-04
(PID.TID 0001.0001) %MON dynstat_vvel_sd              =   1.2684586605427E-02
(PID.TID 0001.0001) %MON dynstat_vvel_del2            =   1.6056720419527E-03
(PID.TID 0001.0001) %MON dynstat_wvel_max             =   1.0741045433697E-04
(PID.TID 0001.0001) %MON dynstat_wvel_min             =  -1.9611818246685E-04
(PID.TID 0001.0001) %MON dynstat_wvel_mean            =  -1.5959562455071E-10
(PID.TID 0001.0001) %MON dynstat_wvel_sd              =   3.5164009368497E-06
(PID.TID 0001.0001) %MON dynstat_wvel_del2            =   8.4388034224637E-07
(PID.TID 0001.0001) %MON dynstat_theta_max            =   3.1443254016096E+01
(PID.TID 0001.0001) %MON dynstat_theta_min            =  -4.1618244208804E+00
(PID.TID 0001.0001) %MON dynstat_theta_mean           =   3.9131238225569E+00
(PID.TID 0001.0001) %MON dynstat_theta_sd             =   4.5879809181645E+00
(PID.TID 0001.0001) %MON dynstat_theta_del2           =   8.9786008754217E-02
(PID.TID 0001.0001) %MON dynstat_salt_max             =   4.1440989238626E+01
(PID.TID 0001.0001) %MON dynstat_salt_min             =   1.8418431778178E+01
(PID.TID 0001.0001) %MON dynstat_salt_mean            =   3.4772138304126E+01
(PID.TID 0001.0001) %MON dynstat_salt_sd              =   5.3116745875626E-01
(PID.TID 0001.0001) %MON dynstat_salt_del2            =   1.8975632803845E-02
(PID.TID 0001.0001) %MON dynstat_sst_max              =   3.1443254016096E+01
(PID.TID 0001.0001) %MON dynstat_sst_min              =  -1.9901634889447E+00
(PID.TID 0001.0001) %MON dynstat_sst_mean             =   1.8413721173667E+01
(PID.TID 0001.0001) %MON dynstat_sst_sd               =   1.0017538351499E+01
(PID.TID 0001.0001) %MON dynstat_sst_del2             =   2.1255516764671E-01
(PID.TID 0001.0001) %MON dynstat_sss_max              =   4.1440989238626E+01
(PID.TID 0001.0001) %MON dynstat_sss_min              =   1.8418431778178E+01
(PID.TID 0001.0001) %MON dynstat_sss_mean             =   3.4620731683294E+01
(PID.TID 0001.0001) %MON dynstat_sss_sd               =   1.4535636113121E+00
(PID.TID 0001.0001) %MON dynstat_sss_del2             =   8.0426347996322E-02
(PID.TID 0001.0001) %MON extforcing_qnet_max          =   3.1213535709823E+02
(PID.TID 0001.0001) %MON extforcing_qnet_min          =  -1.8310384322615E+02
(PID.TID 0001.0001) %MON extforcing_qnet_mean         =  -6.4425789064435E+00
(PID.TID 0001.0001) %MON extforcing_qnet_sd           =   5.7986579170974E+01
(PID.TID 0001.0001) %MON extforcing_qnet_del2         =   4.7984075176375E+00
(PID.TID 0001.0001) %MON extforcing_qsw_max           =   0.0000000000000E+00
(PID.TID 0001.0001) %MON extforcing_qsw_min           =   0.0000000000000E+00
(PID.TID 0001.0001) %MON extforcing_qsw_mean          =   0.0000000000000E+00
(PID.TID 0001.0001) %MON extforcing_qsw_sd            =   0.0000000000000E+00
(PID.TID 0001.0001) %MON extforcing_qsw_del2          =   0.0000000000000E+00
(PID.TID 0001.0001) %MON extforcing_empmr_max         =   7.6494447208479E-08
(PID.TID 0001.0001) %MON extforcing_empmr_min         =  -1.5362614137596E-07
(PID.TID 0001.0001) %MON extforcing_empmr_mean        =  -1.6379999222713E-24
(PID.TID 0001.0001) %MON extforcing_empmr_sd          =   2.4051723601802E-08
(PID.TID 0001.0001) %MON extforcing_empmr_del2        =   1.2835223797615E-09
(PID.TID 0001.0001) %MON extforcing_fu_max            =   2.5951861877164E-01
(PID.TID 0001.0001) %MON extforcing_fu_min            =  -3.3895507593183E-01
(PID.TID 0001.0001) %MON extforcing_fu_mean           =  -8.6089262321869E-03
(PID.TID 0001.0001) %MON extforcing_fu_sd             =   7.0711882370144E-02
(PID.TID 0001.0001) %MON extforcing_fu_del2           =   3.0226809562923E-03
(PID.TID 0001.0001) %MON extforcing_fv_max            =   2.3568944674356E-01
(PID.TID 0001.0001) %MON extforcing_fv_min            =  -3.3505918758639E-01
(PID.TID 0001.0001) %MON extforcing_fv_mean           =  -1.2689116453142E-02
(PID.TID 0001.0001) %MON extforcing_fv_sd             =   7.8957315715364E-02
(PID.TID 0001.0001) %MON extforcing_fv_del2           =   3.3513136658837E-03
(PID.TID 0001.0001) %MON advcfl_uvel_max              =   7.5587097569239E-02
(PID.TID 0001.0001) %MON advcfl_vvel_max              =   7.5455674833124E-02
(PID.TID 0001.0001) %MON advcfl_wvel_max              =   6.3941928170324E-02
(PID.TID 0001.0001) %MON advcfl_W_hf_max              =   7.8843194393991E-02
(PID.TID 0001.0001) %MON pe_b_mean                    =   4.7991861324187E-04
(PID.TID 0001.0001) %MON ke_max                       =   3.4173508336121E-02
(PID.TID 0001.0001) %MON ke_mean                      =   1.3932666587512E-04
(PID.TID 0001.0001) %MON ke_vol                       =   1.3398024453628E+18
(PID.TID 0001.0001) %MON vort_r_min                   =  -1.3226827296986E-06
(PID.TID 0001.0001) %MON vort_r_max                   =   1.2584780916406E-06
(PID.TID 0001.0001) %MON vort_a_mean                  =  -2.0493733748264E-05
(PID.TID 0001.0001) %MON vort_a_sd                    =   7.5053955111461E-05
(PID.TID 0001.0001) %MON vort_p_mean                  =  -2.4715770639198E-05
(PID.TID 0001.0001) %MON vort_p_sd                    =   1.2777067583720E-04
(PID.TID 0001.0001) %MON surfExpan_theta_mean         =   5.7408498869055E-08
(PID.TID 0001.0001) %MON surfExpan_salt_mean          =   1.5450223153172E-08
(PID.TID 0001.0001) // =======================================================
(PID.TID 0001.0001) // End MONITOR dynamic field statistics
(PID.TID 0001.0001) // =======================================================
 DRIVER_GET_EXPORT_STATE_3D:MASK. This code is stubbed!
 DRIVER_SET_IMPORT_STATE_3D:SWHEAT. This code is stubbed!
 cg2d: Sum(rhs),rhsMax =  -9.23705556488130E-12  1.37076195584175E+00
(PID.TID 0001.0001)                    cg2d_init_res =    1.22998327930629E-01
(PID.TID 0001.0001)                       cg2d_iters =    60
(PID.TID 0001.0001)                         cg2d_res =    5.20197339424892E-07
(PID.TID 0001.0001) // =======================================================
(PID.TID 0001.0001) // Begin MONITOR dynamic field statistics
(PID.TID 0001.0001) // =======================================================
(PID.TID 0001.0001) %MON time_tsnumber                =                 72080
(PID.TID 0001.0001) %MON time_secondsf                =   6.2277120000000E+09
(PID.TID 0001.0001) %MON dynstat_eta_max              =   8.8484174612511E-01
(PID.TID 0001.0001) %MON dynstat_eta_min              =  -1.6033340873030E+00
(PID.TID 0001.0001) %MON dynstat_eta_mean             =   1.4097793272515E-14
(PID.TID 0001.0001) %MON dynstat_eta_sd               =   6.0033349393646E-01
(PID.TID 0001.0001) %MON dynstat_eta_del2             =   1.1425924843634E-02
(PID.TID 0001.0001) %MON dynstat_uvel_max             =   1.9344417525836E-01
(PID.TID 0001.0001) %MON dynstat_uvel_min             =  -2.4836012411554E-01
(PID.TID 0001.0001) %MON dynstat_uvel_mean            =  -4.4472491067043E-04
(PID.TID 0001.0001) %MON dynstat_uvel_sd              =   1.1852970282162E-02
(PID.TID 0001.0001) %MON dynstat_uvel_del2            =   1.5752496018863E-03
(PID.TID 0001.0001) %MON dynstat_vvel_max             =   1.7308874511017E-01
(PID.TID 0001.0001) %MON dynstat_vvel_min             =  -2.2238884494675E-01
(PID.TID 0001.0001) %MON dynstat_vvel_mean            =  -3.5939102908945E-04
(PID.TID 0001.0001) %MON dynstat_vvel_sd              =   1.2683156758692E-02
(PID.TID 0001.0001) %MON dynstat_vvel_del2            =   1.6061104423044E-03
(PID.TID 0001.0001) %MON dynstat_wvel_max             =   1.0712239232491E-04
(PID.TID 0001.0001) %MON dynstat_wvel_min             =  -1.9592113504887E-04
(PID.TID 0001.0001) %MON dynstat_wvel_mean            =  -1.1412165948946E-10
(PID.TID 0001.0001) %MON dynstat_wvel_sd              =   3.5149276270802E-06
(PID.TID 0001.0001) %MON dynstat_wvel_del2            =   8.4440997464991E-07
(PID.TID 0001.0001) %MON dynstat_theta_max            =   3.1442281684354E+01
(PID.TID 0001.0001) %MON dynstat_theta_min            =  -4.1582660570842E+00
(PID.TID 0001.0001) %MON dynstat_theta_mean           =   3.9131325505324E+00
(PID.TID 0001.0001) %MON dynstat_theta_sd             =   4.5881908218840E+00
(PID.TID 0001.0001) %MON dynstat_theta_del2           =   8.9790135231785E-02
(PID.TID 0001.0001) %MON dynstat_salt_max             =   4.1441498303579E+01
(PID.TID 0001.0001) %MON dynstat_salt_min             =   1.8418450553519E+01
(PID.TID 0001.0001) %MON dynstat_salt_mean            =   3.4772139440708E+01
(PID.TID 0001.0001) %MON dynstat_salt_sd              =   5.3116298449970E-01
(PID.TID 0001.0001) %MON dynstat_salt_del2            =   1.8975823817861E-02
(PID.TID 0001.0001) %MON dynstat_sst_max              =   3.1442281684354E+01
(PID.TID 0001.0001) %MON dynstat_sst_min              =  -1.9899578171269E+00
(PID.TID 0001.0001) %MON dynstat_sst_mean             =   1.8412240882802E+01
(PID.TID 0001.0001) %MON dynstat_sst_sd               =   1.0025280418681E+01
(PID.TID 0001.0001) %MON dynstat_sst_del2             =   2.1229041311428E-01
(PID.TID 0001.0001) %MON dynstat_sss_max              =   4.1441498303579E+01
(PID.TID 0001.0001) %MON dynstat_sss_min              =   1.8418450553519E+01
(PID.TID 0001.0001) %MON dynstat_sss_mean             =   3.4620745589070E+01
(PID.TID 0001.0001) %MON dynstat_sss_sd               =   1.4534645187409E+00
(PID.TID 0001.0001) %MON dynstat_sss_del2             =   8.0427817817682E-02
(PID.TID 0001.0001) %MON extforcing_qnet_max          =   3.0724264169833E+02
(PID.TID 0001.0001) %MON extforcing_qnet_min          =  -1.8255911562293E+02
(PID.TID 0001.0001) %MON extforcing_qnet_mean         =  -6.0568920078910E+00
(PID.TID 0001.0001) %MON extforcing_qnet_sd           =   5.7313041735706E+01
(PID.TID 0001.0001) %MON extforcing_qnet_del2         =   4.7653599886431E+00
(PID.TID 0001.0001) %MON extforcing_qsw_max           =   0.0000000000000E+00
(PID.TID 0001.0001) %MON extforcing_qsw_min           =   0.0000000000000E+00
(PID.TID 0001.0001) %MON extforcing_qsw_mean          =   0.0000000000000E+00
(PID.TID 0001.0001) %MON extforcing_qsw_sd            =   0.0000000000000E+00
(PID.TID 0001.0001) %MON extforcing_qsw_del2          =   0.0000000000000E+00
(PID.TID 0001.0001) %MON extforcing_empmr_max         =   7.6494447208479E-08
(PID.TID 0001.0001) %MON extforcing_empmr_min         =  -1.5362614137596E-07
(PID.TID 0001.0001) %MON extforcing_empmr_mean        =  -2.0474999028391E-24
(PID.TID 0001.0001) %MON extforcing_empmr_sd          =   2.4051723601802E-08
(PID.TID 0001.0001) %MON extforcing_empmr_del2        =   1.2835223797615E-09
(PID.TID 0001.0001) %MON extforcing_fu_max            =   2.6014744254479E-01
(PID.TID 0001.0001) %MON extforcing_fu_min            =  -3.3680429159616E-01
(PID.TID 0001.0001) %MON extforcing_fu_mean           =  -8.6087836388474E-03
(PID.TID 0001.0001) %MON extforcing_fu_sd             =   7.0702232360070E-02
(PID.TID 0001.0001) %MON extforcing_fu_del2           =   2.9812126758087E-03
(PID.TID 0001.0001) %MON extforcing_fv_max            =   2.2887950063899E-01
(PID.TID 0001.0001) %MON extforcing_fv_min            =  -3.3409241869797E-01
(PID.TID 0001.0001) %MON extforcing_fv_mean           =  -1.2701779571349E-02
(PID.TID 0001.0001) %MON extforcing_fv_sd             =   7.8461030828735E-02
(PID.TID 0001.0001) %MON extforcing_fv_del2           =   3.3010473830023E-03
(PID.TID 0001.0001) %MON advcfl_uvel_max              =   7.5719893622373E-02
(PID.TID 0001.0001) %MON advcfl_vvel_max              =   7.5446945482209E-02
(PID.TID 0001.0001) %MON advcfl_wvel_max              =   6.3877683276311E-02
(PID.TID 0001.0001) %MON advcfl_W_hf_max              =   7.8764002643111E-02
(PID.TID 0001.0001) %MON pe_b_mean                    =   4.8011980541797E-04
(PID.TID 0001.0001) %MON ke_max                       =   3.4128749614654E-02
(PID.TID 0001.0001) %MON ke_mean                      =   1.3932315148309E-04
(PID.TID 0001.0001) %MON ke_vol                       =   1.3398024453628E+18
(PID.TID 0001.0001) %MON vort_r_min                   =  -1.3219666763879E-06
(PID.TID 0001.0001) %MON vort_r_max                   =   1.2661047983130E-06
(PID.TID 0001.0001) %MON vort_a_mean                  =  -2.0493733748264E-05
(PID.TID 0001.0001) %MON vort_a_sd                    =   7.5053955275496E-05
(PID.TID 0001.0001) %MON vort_p_mean                  =  -2.4715770608122E-05
(PID.TID 0001.0001) %MON vort_p_sd                    =   1.2777068126313E-04
(PID.TID 0001.0001) %MON surfExpan_theta_mean         =   5.7017936862817E-08
(PID.TID 0001.0001) %MON surfExpan_salt_mean          =   1.5421493709625E-08
(PID.TID 0001.0001) // =======================================================
(PID.TID 0001.0001) // End MONITOR dynamic field statistics
(PID.TID 0001.0001) // =======================================================
(PID.TID 0001.0001) %CHECKPOINT     72080 0000072080
 DRIVER_GET_EXPORT_STATE_3D:MASK. This code is stubbed!
 DRIVER_SET_IMPORT_STATE_3D:SWHEAT. This code is stubbed!
 cg2d: Sum(rhs),rhsMax =  -9.72022462519817E-12  1.36914939235241E+00
(PID.TID 0001.0001)                    cg2d_init_res =    1.22173384059770E-01
(PID.TID 0001.0001)                       cg2d_iters =    59
(PID.TID 0001.0001)                         cg2d_res =    5.60218281888020E-07
(PID.TID 0001.0001) // =======================================================
(PID.TID 0001.0001) // Begin MONITOR dynamic field statistics
(PID.TID 0001.0001) // =======================================================
(PID.TID 0001.0001) %MON time_tsnumber                =                 72081
(PID.TID 0001.0001) %MON time_secondsf                =   6.2277984000000E+09
(PID.TID 0001.0001) %MON dynstat_eta_max              =   8.8542186958838E-01
(PID.TID 0001.0001) %MON dynstat_eta_min              =  -1.6035106001090E+00
(PID.TID 0001.0001) %MON dynstat_eta_mean             =   1.4317641900547E-14
(PID.TID 0001.0001) %MON dynstat_eta_sd               =   6.0044138051162E-01
(PID.TID 0001.0001) %MON dynstat_eta_del2             =   1.1428379088173E-02
(PID.TID 0001.0001) %MON dynstat_uvel_max             =   1.9371584513256E-01
(PID.TID 0001.0001) %MON dynstat_uvel_min             =  -2.4812201628312E-01
(PID.TID 0001.0001) %MON dynstat_uvel_mean            =  -4.4413511833837E-04
(PID.TID 0001.0001) %MON dynstat_uvel_sd              =   1.1854204586229E-02
(PID.TID 0001.0001) %MON dynstat_uvel_del2            =   1.5751434083859E-03
(PID.TID 0001.0001) %MON dynstat_vvel_max             =   1.7303686306994E-01
(PID.TID 0001.0001) %MON dynstat_vvel_min             =  -2.2230343565569E-01
(PID.TID 0001.0001) %MON dynstat_vvel_mean            =  -3.5829674601328E-04
(PID.TID 0001.0001) %MON dynstat_vvel_sd              =   1.2681091632197E-02
(PID.TID 0001.0001) %MON dynstat_vvel_del2            =   1.6064594830185E-03
(PID.TID 0001.0001) %MON dynstat_wvel_max             =   1.0682864262472E-04
(PID.TID 0001.0001) %MON dynstat_wvel_min             =  -1.9574182783203E-04
(PID.TID 0001.0001) %MON dynstat_wvel_mean            =  -6.8465603207793E-11
(PID.TID 0001.0001) %MON dynstat_wvel_sd              =   3.5137592006070E-06
(PID.TID 0001.0001) %MON dynstat_wvel_del2            =   8.4491208774818E-07
(PID.TID 0001.0001) %MON dynstat_theta_max            =   3.1440051197267E+01
(PID.TID 0001.0001) %MON dynstat_theta_min            =  -4.1540622668028E+00
(PID.TID 0001.0001) %MON dynstat_theta_mean           =   3.9131391251624E+00
(PID.TID 0001.0001) %MON dynstat_theta_sd             =   4.5883913389651E+00
(PID.TID 0001.0001) %MON dynstat_theta_del2           =   8.9790604195668E-02
(PID.TID 0001.0001) %MON dynstat_salt_max             =   4.1441903341844E+01
(PID.TID 0001.0001) %MON dynstat_salt_min             =   1.8418484960833E+01
(PID.TID 0001.0001) %MON dynstat_salt_mean            =   3.4772140587345E+01
(PID.TID 0001.0001) %MON dynstat_salt_sd              =   5.3115851908611E-01
(PID.TID 0001.0001) %MON dynstat_salt_del2            =   1.8976522110374E-02
(PID.TID 0001.0001) %MON dynstat_sst_max              =   3.1440051197267E+01
(PID.TID 0001.0001) %MON dynstat_sst_min              =  -1.9897535774290E+00
(PID.TID 0001.0001) %MON dynstat_sst_mean             =   1.8410524094994E+01
(PID.TID 0001.0001) %MON dynstat_sst_sd               =   1.0032987892446E+01
(PID.TID 0001.0001) %MON dynstat_sst_del2             =   2.1201159393984E-01
(PID.TID 0001.0001) %MON dynstat_sss_max              =   4.1441903341844E+01
(PID.TID 0001.0001) %MON dynstat_sss_min              =   1.8418484960833E+01
(PID.TID 0001.0001) %MON dynstat_sss_mean             =   3.4620764659188E+01
(PID.TID 0001.0001) %MON dynstat_sss_sd               =   1.4533789177431E+00
(PID.TID 0001.0001) %MON dynstat_sss_del2             =   8.0430099330903E-02
(PID.TID 0001.0001) %MON extforcing_qnet_max          =   3.0234992629844E+02
(PID.TID 0001.0001) %MON extforcing_qnet_min          =  -1.8201438801970E+02
(PID.TID 0001.0001) %MON extforcing_qnet_mean         =  -5.6712051093385E+00
(PID.TID 0001.0001) %MON extforcing_qnet_sd           =   5.6697149887600E+01
(PID.TID 0001.0001) %MON extforcing_qnet_del2         =   4.7343181951922E+00
(PID.TID 0001.0001) %MON extforcing_qsw_max           =   0.0000000000000E+00
(PID.TID 0001.0001) %MON extforcing_qsw_min           =   0.0000000000000E+00
(PID.TID 0001.0001) %MON extforcing_qsw_mean          =   0.0000000000000E+00
(PID.TID 0001.0001) %MON extforcing_qsw_sd            =   0.0000000000000E+00
(PID.TID 0001.0001) %MON extforcing_qsw_del2          =   0.0000000000000E+00
(PID.TID 0001.0001) %MON extforcing_empmr_max         =   7.6494447208479E-08
(PID.TID 0001.0001) %MON extforcing_empmr_min         =  -1.5362614137596E-07
(PID.TID 0001.0001) %MON extforcing_empmr_mean        =  -2.0474999028391E-24
(PID.TID 0001.0001) %MON extforcing_empmr_sd          =   2.4051723601802E-08
(PID.TID 0001.0001) %MON extforcing_empmr_del2        =   1.2835223797615E-09
(PID.TID 0001.0001) %MON extforcing_fu_max            =   2.6077626631795E-01
(PID.TID 0001.0001) %MON extforcing_fu_min            =  -3.3465350726048E-01
(PID.TID 0001.0001) %MON extforcing_fu_mean           =  -8.6086378126541E-03
(PID.TID 0001.0001) %MON extforcing_fu_sd             =   7.0711045827260E-02
(PID.TID 0001.0001) %MON extforcing_fu_del2           =   2.9428510031966E-03
(PID.TID 0001.0001) %MON extforcing_fv_max            =   2.2206955453443E-01
(PID.TID 0001.0001) %MON extforcing_fv_min            =  -3.3312564980954E-01
(PID.TID 0001.0001) %MON extforcing_fv_mean           =  -1.2714443508132E-02
(PID.TID 0001.0001) %MON extforcing_fv_sd             =   7.7987763297821E-02
(PID.TID 0001.0001) %MON extforcing_fv_del2           =   3.2532048169171E-03
(PID.TID 0001.0001) %MON advcfl_uvel_max              =   7.5834195686676E-02
(PID.TID 0001.0001) %MON advcfl_vvel_max              =   7.5424330831796E-02
(PID.TID 0001.0001) %MON advcfl_wvel_max              =   6.3819222357312E-02
(PID.TID 0001.0001) %MON advcfl_W_hf_max              =   7.8691940535108E-02
(PID.TID 0001.0001) %MON pe_b_mean                    =   4.8029238661285E-04
(PID.TID 0001.0001) %MON ke_max                       =   3.4083162514111E-02
(PID.TID 0001.0001) %MON ke_mean                      =   1.3931168396691E-04
(PID.TID 0001.0001) %MON ke_vol                       =   1.3398024453628E+18
(PID.TID 0001.0001) %MON vort_r_min                   =  -1.3213001779767E-06
(PID.TID 0001.0001) %MON vort_r_max                   =   1.2738513451698E-06
(PID.TID 0001.0001) %MON vort_a_mean                  =  -2.0493733748264E-05
(PID.TID 0001.0001) %MON vort_a_sd                    =   7.5053955435930E-05
(PID.TID 0001.0001) %MON vort_p_mean                  =  -2.4715770588089E-05
(PID.TID 0001.0001) %MON vort_p_sd                    =   1.2777068568477E-04
(PID.TID 0001.0001) %MON surfExpan_theta_mean         =   5.6740610089998E-08
(PID.TID 0001.0001) %MON surfExpan_salt_mean          =   1.5415711051386E-08
(PID.TID 0001.0001) // =======================================================
(PID.TID 0001.0001) // End MONITOR dynamic field statistics
(PID.TID 0001.0001) // =======================================================
 DRIVER_GET_EXPORT_STATE_3D:MASK. This code is stubbed!
 DRIVER_SET_IMPORT_STATE_3D:SWHEAT. This code is stubbed!
 cg2d: Sum(rhs),rhsMax =  -9.29389898374211E-12  1.36755774666416E+00
(PID.TID 0001.0001)                    cg2d_init_res =    1.21143270915889E-01
(PID.TID 0001.0001)                       cg2d_iters =    59
(PID.TID 0001.0001)                         cg2d_res =    5.20134773278909E-07
(PID.TID 0001.0001) // =======================================================
(PID.TID 0001.0001) // Begin MONITOR dynamic field statistics
(PID.TID 0001.0001) // =======================================================
(PID.TID 0001.0001) %MON time_tsnumber                =                 72082
(PID.TID 0001.0001) %MON time_secondsf                =   6.2278848000000E+09
(PID.TID 0001.0001) %MON dynstat_eta_max              =   8.8597274214548E-01
(PID.TID 0001.0001) %MON dynstat_eta_min              =  -1.6036864928048E+00
(PID.TID 0001.0001) %MON dynstat_eta_mean             =   1.4592452685586E-14
(PID.TID 0001.0001) %MON dynstat_eta_sd               =   6.0053148879865E-01
(PID.TID 0001.0001) %MON dynstat_eta_del2             =   1.1431365631391E-02
(PID.TID 0001.0001) %MON dynstat_uvel_max             =   1.9396515909205E-01
(PID.TID 0001.0001) %MON dynstat_uvel_min             =  -2.4787983935939E-01
(PID.TID 0001.0001) %MON dynstat_uvel_mean            =  -4.4356969417306E-04
(PID.TID 0001.0001) %MON dynstat_uvel_sd              =   1.1855313087971E-02
(PID.TID 0001.0001) %MON dynstat_uvel_del2            =   1.5749902792956E-03
(PID.TID 0001.0001) %MON dynstat_vvel_max             =   1.7295289693653E-01
(PID.TID 0001.0001) %MON dynstat_vvel_min             =  -2.2221300713676E-01
(PID.TID 0001.0001) %MON dynstat_vvel_mean            =  -3.5719802963207E-04
(PID.TID 0001.0001) %MON dynstat_vvel_sd              =   1.2678469060980E-02
(PID.TID 0001.0001) %MON dynstat_vvel_del2            =   1.6067597205643E-03
(PID.TID 0001.0001) %MON dynstat_wvel_max             =   1.0653578108638E-04
(PID.TID 0001.0001) %MON dynstat_wvel_min             =  -1.9558032902920E-04
(PID.TID 0001.0001) %MON dynstat_wvel_mean            =  -2.6576510527459E-11
(PID.TID 0001.0001) %MON dynstat_wvel_sd              =   3.5128475666460E-06
(PID.TID 0001.0001) %MON dynstat_wvel_del2            =   8.4538918902976E-07
(PID.TID 0001.0001) %MON dynstat_theta_max            =   3.1436554996953E+01
(PID.TID 0001.0001) %MON dynstat_theta_min            =  -4.1492145430465E+00
(PID.TID 0001.0001) %MON dynstat_theta_mean           =   3.9131435475987E+00
(PID.TID 0001.0001) %MON dynstat_theta_sd             =   4.5885827309527E+00
(PID.TID 0001.0001) %MON dynstat_theta_del2           =   8.9792291902634E-02
(PID.TID 0001.0001) %MON dynstat_salt_max             =   4.1442203515030E+01
(PID.TID 0001.0001) %MON dynstat_salt_min             =   1.8418535066370E+01
(PID.TID 0001.0001) %MON dynstat_salt_mean            =   3.4772141743779E+01
(PID.TID 0001.0001) %MON dynstat_salt_sd              =   5.3115403356526E-01
(PID.TID 0001.0001) %MON dynstat_salt_del2            =   1.8977326205548E-02
(PID.TID 0001.0001) %MON dynstat_sst_max              =   3.1436554996953E+01
(PID.TID 0001.0001) %MON dynstat_sst_min              =  -1.9895512798096E+00
(PID.TID 0001.0001) %MON dynstat_sst_mean             =   1.8408547986383E+01
(PID.TID 0001.0001) %MON dynstat_sst_sd               =   1.0040672178789E+01
(PID.TID 0001.0001) %MON dynstat_sst_del2             =   2.1177305043823E-01
(PID.TID 0001.0001) %MON dynstat_sss_max              =   4.1442203515030E+01
(PID.TID 0001.0001) %MON dynstat_sss_min              =   1.8418535066370E+01
(PID.TID 0001.0001) %MON dynstat_sss_mean             =   3.4620779842682E+01
(PID.TID 0001.0001) %MON dynstat_sss_sd               =   1.4532978156749E+00
(PID.TID 0001.0001) %MON dynstat_sss_del2             =   8.0437805278937E-02
(PID.TID 0001.0001) %MON extforcing_qnet_max          =   2.9745721089854E+02
(PID.TID 0001.0001) %MON extforcing_qnet_min          =  -1.8146966041648E+02
(PID.TID 0001.0001) %MON extforcing_qnet_mean         =  -5.2855182107860E+00
(PID.TID 0001.0001) %MON extforcing_qnet_sd           =   5.6140800858968E+01
(PID.TID 0001.0001) %MON extforcing_qnet_del2         =   4.7047349649273E+00
(PID.TID 0001.0001) %MON extforcing_qsw_max           =   0.0000000000000E+00
(PID.TID 0001.0001) %MON extforcing_qsw_min           =   0.0000000000000E+00
(PID.TID 0001.0001) %MON extforcing_qsw_mean          =   0.0000000000000E+00
(PID.TID 0001.0001) %MON extforcing_qsw_sd            =   0.0000000000000E+00
(PID.TID 0001.0001) %MON extforcing_qsw_del2          =   0.0000000000000E+00
(PID.TID 0001.0001) %MON extforcing_empmr_max         =   7.6494447208479E-08
(PID.TID 0001.0001) %MON extforcing_empmr_min         =  -1.5362614137596E-07
(PID.TID 0001.0001) %MON extforcing_empmr_mean        =  -1.6379999222713E-24
(PID.TID 0001.0001) %MON extforcing_empmr_sd          =   2.4051723601802E-08
(PID.TID 0001.0001) %MON extforcing_empmr_del2        =   1.2835223797615E-09
(PID.TID 0001.0001) %MON extforcing_fu_max            =   2.6140509009110E-01
(PID.TID 0001.0001) %MON extforcing_fu_min            =  -3.3250272292481E-01
(PID.TID 0001.0001) %MON extforcing_fu_mean           =  -8.6084897631386E-03
(PID.TID 0001.0001) %MON extforcing_fu_sd             =   7.0738314967215E-02
(PID.TID 0001.0001) %MON extforcing_fu_del2           =   2.9083724788712E-03
(PID.TID 0001.0001) %MON extforcing_fv_max            =   2.1532016349653E-01
(PID.TID 0001.0001) %MON extforcing_fv_min            =  -3.3215888092112E-01
(PID.TID 0001.0001) %MON extforcing_fv_mean           =  -1.2727108209130E-02
(PID.TID 0001.0001) %MON extforcing_fv_sd             =   7.7537934572794E-02
(PID.TID 0001.0001) %MON extforcing_fv_del2           =   3.2083977214596E-03
(PID.TID 0001.0001) %MON advcfl_uvel_max              =   7.5930858692907E-02
(PID.TID 0001.0001) %MON advcfl_vvel_max              =   7.5387731177175E-02
(PID.TID 0001.0001) %MON advcfl_wvel_max              =   6.3766567653294E-02
(PID.TID 0001.0001) %MON advcfl_W_hf_max              =   7.8627034374025E-02
(PID.TID 0001.0001) %MON pe_b_mean                    =   4.8043655246493E-04
(PID.TID 0001.0001) %MON ke_max                       =   3.4036710712684E-02
(PID.TID 0001.0001) %MON ke_mean                      =   1.3929230331483E-04
(PID.TID 0001.0001) %MON ke_vol                       =   1.3398024453628E+18
(PID.TID 0001.0001) %MON vort_r_min                   =  -1.3206799931071E-06
(PID.TID 0001.0001) %MON vort_r_max                   =   1.2816756870596E-06
(PID.TID 0001.0001) %MON vort_a_mean                  =  -2.0493733748264E-05
(PID.TID 0001.0001) %MON vort_a_sd                    =   7.5053955591296E-05
(PID.TID 0001.0001) %MON vort_p_mean                  =  -2.4715770579287E-05
(PID.TID 0001.0001) %MON vort_p_sd                    =   1.2777068908120E-04
(PID.TID 0001.0001) %MON surfExpan_theta_mean         =   5.6557591954356E-08
(PID.TID 0001.0001) %MON surfExpan_salt_mean          =   1.5436858621030E-08
(PID.TID 0001.0001) // =======================================================
(PID.TID 0001.0001) // End MONITOR dynamic field statistics
(PID.TID 0001.0001) // =======================================================
 DRIVER_GET_EXPORT_STATE_3D:MASK. This code is stubbed!
 DRIVER_SET_IMPORT_STATE_3D:SWHEAT. This code is stubbed!
 cg2d: Sum(rhs),rhsMax =  -9.52127265918534E-12  1.36590805742543E+00
(PID.TID 0001.0001)                    cg2d_init_res =    1.20240511172146E-01
(PID.TID 0001.0001)                       cg2d_iters =    58
(PID.TID 0001.0001)                         cg2d_res =    5.74389865787861E-07
(PID.TID 0001.0001) // =======================================================
(PID.TID 0001.0001) // Begin MONITOR dynamic field statistics
(PID.TID 0001.0001) // =======================================================
(PID.TID 0001.0001) %MON time_tsnumber                =                 72083
(PID.TID 0001.0001) %MON time_secondsf                =   6.2279712000000E+09
(PID.TID 0001.0001) %MON dynstat_eta_max              =   8.8649571784168E-01
(PID.TID 0001.0001) %MON dynstat_eta_min              =  -1.6038641359717E+00
(PID.TID 0001.0001) %MON dynstat_eta_mean             =   1.4674895921098E-14
(PID.TID 0001.0001) %MON dynstat_eta_sd               =   6.0060425911067E-01
(PID.TID 0001.0001) %MON dynstat_eta_del2             =   1.1434821330148E-02
(PID.TID 0001.0001) %MON dynstat_uvel_max             =   1.9419272196416E-01
(PID.TID 0001.0001) %MON dynstat_uvel_min             =  -2.4763355960200E-01
(PID.TID 0001.0001) %MON dynstat_uvel_mean            =  -4.4303512110710E-04
(PID.TID 0001.0001) %MON dynstat_uvel_sd              =   1.1856226641991E-02
(PID.TID 0001.0001) %MON dynstat_uvel_del2            =   1.5747133493029E-03
(PID.TID 0001.0001) %MON dynstat_vvel_max             =   1.7283682903479E-01
(PID.TID 0001.0001) %MON dynstat_vvel_min             =  -2.2211777250652E-01
(PID.TID 0001.0001) %MON dynstat_vvel_mean            =  -3.5610896113736E-04
(PID.TID 0001.0001) %MON dynstat_vvel_sd              =   1.2675371746847E-02
(PID.TID 0001.0001) %MON dynstat_vvel_del2            =   1.6070561033562E-03
(PID.TID 0001.0001) %MON dynstat_wvel_max             =   1.0625023456332E-04
(PID.TID 0001.0001) %MON dynstat_wvel_min             =  -1.9543625072319E-04
(PID.TID 0001.0001) %MON dynstat_wvel_mean            =   9.6963378586669E-12
(PID.TID 0001.0001) %MON dynstat_wvel_sd              =   3.5121473626957E-06
(PID.TID 0001.0001) %MON dynstat_wvel_del2            =   8.4591390405595E-07
(PID.TID 0001.0001) %MON dynstat_theta_max            =   3.1446485980638E+01
(PID.TID 0001.0001) %MON dynstat_theta_min            =  -4.1437335514767E+00
(PID.TID 0001.0001) %MON dynstat_theta_mean           =   3.9131459281145E+00
(PID.TID 0001.0001) %MON dynstat_theta_sd             =   4.5887652347889E+00
(PID.TID 0001.0001) %MON dynstat_theta_del2           =   8.9790657141180E-02
(PID.TID 0001.0001) %MON dynstat_salt_max             =   4.1442398176273E+01
(PID.TID 0001.0001) %MON dynstat_salt_min             =   1.8418600934448E+01
(PID.TID 0001.0001) %MON dynstat_salt_mean            =   3.4772142910105E+01
(PID.TID 0001.0001) %MON dynstat_salt_sd              =   5.3114954353538E-01
(PID.TID 0001.0001) %MON dynstat_salt_del2            =   1.8977594771903E-02
(PID.TID 0001.0001) %MON dynstat_sst_max              =   3.1446485980638E+01
(PID.TID 0001.0001) %MON dynstat_sst_min              =  -1.9893514932610E+00
(PID.TID 0001.0001) %MON dynstat_sst_mean             =   1.8406352983719E+01
(PID.TID 0001.0001) %MON dynstat_sst_sd               =   1.0048334849153E+01
(PID.TID 0001.0001) %MON dynstat_sst_del2             =   2.1149832468969E-01
(PID.TID 0001.0001) %MON dynstat_sss_max              =   4.1442398176273E+01
(PID.TID 0001.0001) %MON dynstat_sss_min              =   1.8418600934448E+01
(PID.TID 0001.0001) %MON dynstat_sss_mean             =   3.4620796511309E+01
(PID.TID 0001.0001) %MON dynstat_sss_sd               =   1.4532261544075E+00
(PID.TID 0001.0001) %MON dynstat_sss_del2             =   8.0445596817684E-02
(PID.TID 0001.0001) %MON extforcing_qnet_max          =   2.9256449549864E+02
(PID.TID 0001.0001) %MON extforcing_qnet_min          =  -1.8092493281325E+02
(PID.TID 0001.0001) %MON extforcing_qnet_mean         =  -4.8998313122335E+00
(PID.TID 0001.0001) %MON extforcing_qnet_sd           =   5.5645780613867E+01
(PID.TID 0001.0001) %MON extforcing_qnet_del2         =   4.6770229891069E+00
(PID.TID 0001.0001) %MON extforcing_qsw_max           =   0.0000000000000E+00
(PID.TID 0001.0001) %MON extforcing_qsw_min           =   0.0000000000000E+00
(PID.TID 0001.0001) %MON extforcing_qsw_mean          =   0.0000000000000E+00
(PID.TID 0001.0001) %MON extforcing_qsw_sd            =   0.0000000000000E+00
(PID.TID 0001.0001) %MON extforcing_qsw_del2          =   0.0000000000000E+00
(PID.TID 0001.0001) %MON extforcing_empmr_max         =   7.6494447208479E-08
(PID.TID 0001.0001) %MON extforcing_empmr_min         =  -1.5362614137596E-07
(PID.TID 0001.0001) %MON extforcing_empmr_mean        =  -2.0474999028391E-24
(PID.TID 0001.0001) %MON extforcing_empmr_sd          =   2.4051723601802E-08
(PID.TID 0001.0001) %MON extforcing_empmr_del2        =   1.2835223797615E-09
(PID.TID 0001.0001) %MON extforcing_fu_max            =   2.6203391386426E-01
(PID.TID 0001.0001) %MON extforcing_fu_min            =  -3.3035193858914E-01
(PID.TID 0001.0001) %MON extforcing_fu_mean           =  -8.6083405877607E-03
(PID.TID 0001.0001) %MON extforcing_fu_sd             =   7.0784018028833E-02
(PID.TID 0001.0001) %MON extforcing_fu_del2           =   2.8771889300329E-03
(PID.TID 0001.0001) %MON extforcing_fv_max            =   2.0995420547069E-01
(PID.TID 0001.0001) %MON extforcing_fv_min            =  -3.3119211203270E-01
(PID.TID 0001.0001) %MON extforcing_fv_mean           =  -1.2739773383735E-02
(PID.TID 0001.0001) %MON extforcing_fv_sd             =   7.7111954907850E-02
(PID.TID 0001.0001) %MON extforcing_fv_del2           =   3.1665319430080E-03
(PID.TID 0001.0001) %MON advcfl_uvel_max              =   7.6010917596664E-02
(PID.TID 0001.0001) %MON advcfl_vvel_max              =   7.5337138813996E-02
(PID.TID 0001.0001) %MON advcfl_wvel_max              =   6.3719592688618E-02
(PID.TID 0001.0001) %MON advcfl_W_hf_max              =   7.8569127246969E-02
(PID.TID 0001.0001) %MON pe_b_mean                    =   4.8055299477225E-04
(PID.TID 0001.0001) %MON ke_max                       =   3.3989356218480E-02
(PID.TID 0001.0001) %MON ke_mean                      =   1.3926523997803E-04
(PID.TID 0001.0001) %MON ke_vol                       =   1.3398024453628E+18
(PID.TID 0001.0001) %MON vort_r_min                   =  -1.3201018816405E-06
(PID.TID 0001.0001) %MON vort_r_max                   =   1.2895292871198E-06
(PID.TID 0001.0001) %MON vort_a_mean                  =  -2.0493733748264E-05
(PID.TID 0001.0001) %MON vort_a_sd                    =   7.5053955740816E-05
(PID.TID 0001.0001) %MON vort_p_mean                  =  -2.4715770580632E-05
(PID.TID 0001.0001) %MON vort_p_sd                    =   1.2777069145742E-04
(PID.TID 0001.0001) %MON surfExpan_theta_mean         =   5.6469437278647E-08
(PID.TID 0001.0001) %MON surfExpan_salt_mean          =   1.5484506965942E-08
(PID.TID 0001.0001) // =======================================================
(PID.TID 0001.0001) // End MONITOR dynamic field statistics
(PID.TID 0001.0001) // =======================================================
 DRIVER_GET_EXPORT_STATE_3D:MASK. This code is stubbed!
 DRIVER_SET_IMPORT_STATE_3D:SWHEAT. This code is stubbed!
 cg2d: Sum(rhs),rhsMax =  -9.83391146291979E-12  1.36426918159488E+00
(PID.TID 0001.0001)                    cg2d_init_res =    1.19341143763499E-01
(PID.TID 0001.0001)                       cg2d_iters =    58
(PID.TID 0001.0001)                         cg2d_res =    5.21987242270104E-07
(PID.TID 0001.0001) // =======================================================
(PID.TID 0001.0001) // Begin MONITOR dynamic field statistics
(PID.TID 0001.0001) // =======================================================
(PID.TID 0001.0001) %MON time_tsnumber                =                 72084
(PID.TID 0001.0001) %MON time_secondsf                =   6.2280576000000E+09
(PID.TID 0001.0001) %MON dynstat_eta_max              =   8.8699051197266E-01
(PID.TID 0001.0001) %MON dynstat_eta_min              =  -1.6040458641247E+00
(PID.TID 0001.0001) %MON dynstat_eta_mean             =   1.4235198665035E-14
(PID.TID 0001.0001) %MON dynstat_eta_sd               =   6.0066029547693E-01
(PID.TID 0001.0001) %MON dynstat_eta_del2             =   1.1438163863025E-02
(PID.TID 0001.0001) %MON dynstat_uvel_max             =   1.9439927104398E-01
(PID.TID 0001.0001) %MON dynstat_uvel_min             =  -2.4738312381164E-01
(PID.TID 0001.0001) %MON dynstat_uvel_mean            =  -4.4253697082261E-04
(PID.TID 0001.0001) %MON dynstat_uvel_sd              =   1.1856889826383E-02
(PID.TID 0001.0001) %MON dynstat_uvel_del2            =   1.5745201502652E-03
(PID.TID 0001.0001) %MON dynstat_vvel_max             =   1.7268887896553E-01
(PID.TID 0001.0001) %MON dynstat_vvel_min             =  -2.2201793935213E-01
(PID.TID 0001.0001) %MON dynstat_vvel_mean            =  -3.5504424342513E-04
(PID.TID 0001.0001) %MON dynstat_vvel_sd              =   1.2671885849777E-02
(PID.TID 0001.0001) %MON dynstat_vvel_del2            =   1.6071412079883E-03
(PID.TID 0001.0001) %MON dynstat_wvel_max             =   1.0597817672072E-04
(PID.TID 0001.0001) %MON dynstat_wvel_min             =  -1.9530896731396E-04
(PID.TID 0001.0001) %MON dynstat_wvel_mean            =   4.0419245263742E-11
(PID.TID 0001.0001) %MON dynstat_wvel_sd              =   3.5116163906524E-06
(PID.TID 0001.0001) %MON dynstat_wvel_del2            =   8.4638955547028E-07
(PID.TID 0001.0001) %MON dynstat_theta_max            =   3.1455079061023E+01
(PID.TID 0001.0001) %MON dynstat_theta_min            =  -4.1376205030323E+00
(PID.TID 0001.0001) %MON dynstat_theta_mean           =   3.9131463250475E+00
(PID.TID 0001.0001) %MON dynstat_theta_sd             =   4.5889390584146E+00
(PID.TID 0001.0001) %MON dynstat_theta_del2           =   8.9787187460874E-02
(PID.TID 0001.0001) %MON dynstat_salt_max             =   4.1442487185872E+01
(PID.TID 0001.0001) %MON dynstat_salt_min             =   1.8418682602064E+01
(PID.TID 0001.0001) %MON dynstat_salt_mean            =   3.4772144086489E+01
(PID.TID 0001.0001) %MON dynstat_salt_sd              =   5.3114503433652E-01
(PID.TID 0001.0001) %MON dynstat_salt_del2            =   1.8978805674705E-02
(PID.TID 0001.0001) %MON dynstat_sst_max              =   3.1455079061023E+01
(PID.TID 0001.0001) %MON dynstat_sst_min              =  -1.9891547804233E+00
(PID.TID 0001.0001) %MON dynstat_sst_mean             =   1.8403910636071E+01
(PID.TID 0001.0001) %MON dynstat_sst_sd               =   1.0055986990245E+01
(PID.TID 0001.0001) %MON dynstat_sst_del2             =   2.1122677203191E-01
(PID.TID 0001.0001) %MON dynstat_sss_max              =   4.1442487185872E+01
(PID.TID 0001.0001) %MON dynstat_sss_min              =   1.8418682602064E+01
(PID.TID 0001.0001) %MON dynstat_sss_mean             =   3.4620809189027E+01
(PID.TID 0001.0001) %MON dynstat_sss_sd               =   1.4531580785715E+00
(PID.TID 0001.0001) %MON dynstat_sss_del2             =   8.0449313938901E-02
(PID.TID 0001.0001) %MON extforcing_qnet_max          =   2.8767178009874E+02
(PID.TID 0001.0001) %MON extforcing_qnet_min          =  -1.8038020521003E+02
(PID.TID 0001.0001) %MON extforcing_qnet_mean         =  -4.5141444136810E+00
(PID.TID 0001.0001) %MON extforcing_qnet_sd           =   5.5213738711466E+01
(PID.TID 0001.0001) %MON extforcing_qnet_del2         =   4.6512896776101E+00
(PID.TID 0001.0001) %MON extforcing_qsw_max           =   0.0000000000000E+00
(PID.TID 0001.0001) %MON extforcing_qsw_min           =   0.0000000000000E+00
(PID.TID 0001.0001) %MON extforcing_qsw_mean          =   0.0000000000000E+00
(PID.TID 0001.0001) %MON extforcing_qsw_sd            =   0.0000000000000E+00
(PID.TID 0001.0001) %MON extforcing_qsw_del2          =   0.0000000000000E+00
(PID.TID 0001.0001) %MON extforcing_empmr_max         =   7.6494447208479E-08
(PID.TID 0001.0001) %MON extforcing_empmr_min         =  -1.5362614137596E-07
(PID.TID 0001.0001) %MON extforcing_empmr_mean        =  -8.1899996113563E-25
(PID.TID 0001.0001) %MON extforcing_empmr_sd          =   2.4051723601802E-08
(PID.TID 0001.0001) %MON extforcing_empmr_del2        =   1.2835223797615E-09
(PID.TID 0001.0001) %MON extforcing_fu_max            =   2.6266273763741E-01
(PID.TID 0001.0001) %MON extforcing_fu_min            =  -3.2820115425347E-01
(PID.TID 0001.0001) %MON extforcing_fu_mean           =  -8.6081912805533E-03
(PID.TID 0001.0001) %MON extforcing_fu_sd             =   7.0848119247867E-02
(PID.TID 0001.0001) %MON extforcing_fu_del2           =   2.8493841842805E-03
(PID.TID 0001.0001) %MON extforcing_fv_max            =   2.0838762883766E-01
(PID.TID 0001.0001) %MON extforcing_fv_min            =  -3.3022534314427E-01
(PID.TID 0001.0001) %MON extforcing_fv_mean           =  -1.2752438711242E-02
(PID.TID 0001.0001) %MON extforcing_fv_sd             =   7.6710221754962E-02
(PID.TID 0001.0001) %MON extforcing_fv_del2           =   3.1274481061589E-03
(PID.TID 0001.0001) %MON advcfl_uvel_max              =   7.6075572058074E-02
(PID.TID 0001.0001) %MON advcfl_vvel_max              =   7.5272649463160E-02
(PID.TID 0001.0001) %MON advcfl_wvel_max              =   6.3678093494061E-02
(PID.TID 0001.0001) %MON advcfl_W_hf_max              =   7.8517966970218E-02
(PID.TID 0001.0001) %MON pe_b_mean                    =   4.8064267012644E-04
(PID.TID 0001.0001) %MON ke_max                       =   3.3941057700725E-02
(PID.TID 0001.0001) %MON ke_mean                      =   1.3923091394179E-04
(PID.TID 0001.0001) %MON ke_vol                       =   1.3398024453628E+18
(PID.TID 0001.0001) %MON vort_r_min                   =  -1.3195606165887E-06
(PID.TID 0001.0001) %MON vort_r_max                   =   1.2973739012482E-06
(PID.TID 0001.0001) %MON vort_a_mean                  =  -2.0493733748264E-05
(PID.TID 0001.0001) %MON vort_a_sd                    =   7.5053955884682E-05
(PID.TID 0001.0001) %MON vort_p_mean                  =  -2.4715770590684E-05
(PID.TID 0001.0001) %MON vort_p_sd                    =   1.2777069284083E-04
(PID.TID 0001.0001) %MON surfExpan_theta_mean         =   5.6486439603633E-08
(PID.TID 0001.0001) %MON surfExpan_salt_mean          =   1.5553366846178E-08
(PID.TID 0001.0001) // =======================================================
(PID.TID 0001.0001) // End MONITOR dynamic field statistics
(PID.TID 0001.0001) // =======================================================
 DRIVER_GET_EXPORT_STATE_3D:MASK. This code is stubbed!
 DRIVER_SET_IMPORT_STATE_3D:SWHEAT. This code is stubbed!
 cg2d: Sum(rhs),rhsMax =  -1.00328634289326E-11  1.36259926937997E+00
(PID.TID 0001.0001)                    cg2d_init_res =    1.18476151392872E-01
(PID.TID 0001.0001)                       cg2d_iters =    56
(PID.TID 0001.0001)                         cg2d_res =    5.64821716669159E-07
(PID.TID 0001.0001) // =======================================================
(PID.TID 0001.0001) // Begin MONITOR dynamic field statistics
(PID.TID 0001.0001) // =======================================================
(PID.TID 0001.0001) %MON time_tsnumber                =                 72085
(PID.TID 0001.0001) %MON time_secondsf                =   6.2281440000000E+09
(PID.TID 0001.0001) %MON dynstat_eta_max              =   8.8745956719115E-01
(PID.TID 0001.0001) %MON dynstat_eta_min              =  -1.6042342757932E+00
(PID.TID 0001.0001) %MON dynstat_eta_mean             =   1.4125274351019E-14
(PID.TID 0001.0001) %MON dynstat_eta_sd               =   6.0070027017827E-01
(PID.TID 0001.0001) %MON dynstat_eta_del2             =   1.1441207695995E-02
(PID.TID 0001.0001) %MON dynstat_uvel_max             =   1.9458566813380E-01
(PID.TID 0001.0001) %MON dynstat_uvel_min             =  -2.4712846354465E-01
(PID.TID 0001.0001) %MON dynstat_uvel_mean            =  -4.4208068274512E-04
(PID.TID 0001.0001) %MON dynstat_uvel_sd              =   1.1857261119984E-02
(PID.TID 0001.0001) %MON dynstat_uvel_del2            =   1.5744029436545E-03
(PID.TID 0001.0001) %MON dynstat_vvel_max             =   1.7250951114012E-01
(PID.TID 0001.0001) %MON dynstat_vvel_min             =  -2.2191370677346E-01
(PID.TID 0001.0001) %MON dynstat_vvel_mean            =  -3.5401784761140E-04
(PID.TID 0001.0001) %MON dynstat_vvel_sd              =   1.2668098826453E-02
(PID.TID 0001.0001) %MON dynstat_vvel_del2            =   1.6070146555322E-03
(PID.TID 0001.0001) %MON dynstat_wvel_max             =   1.0572547996801E-04
(PID.TID 0001.0001) %MON dynstat_wvel_min             =  -1.9519765615389E-04
(PID.TID 0001.0001) %MON dynstat_wvel_mean            =   6.6738075914744E-11
(PID.TID 0001.0001) %MON dynstat_wvel_sd              =   3.5112086607938E-06
(PID.TID 0001.0001) %MON dynstat_wvel_del2            =   8.4679879302452E-07
(PID.TID 0001.0001) %MON dynstat_theta_max            =   3.1462146445370E+01
(PID.TID 0001.0001) %MON dynstat_theta_min            =  -4.1308825703096E+00
(PID.TID 0001.0001) %MON dynstat_theta_mean           =   3.9131447282083E+00
(PID.TID 0001.0001) %MON dynstat_theta_sd             =   4.5891046212663E+00
(PID.TID 0001.0001) %MON dynstat_theta_del2           =   8.9786315611292E-02
(PID.TID 0001.0001) %MON dynstat_salt_max             =   4.1442470953421E+01
(PID.TID 0001.0001) %MON dynstat_salt_min             =   1.8418780088245E+01
(PID.TID 0001.0001) %MON dynstat_salt_mean            =   3.4772145273261E+01
(PID.TID 0001.0001) %MON dynstat_salt_sd              =   5.3114054609165E-01
(PID.TID 0001.0001) %MON dynstat_salt_del2            =   1.8979869252741E-02
(PID.TID 0001.0001) %MON dynstat_sst_max              =   3.1462146445370E+01
(PID.TID 0001.0001) %MON dynstat_sst_min              =  -1.9889616578707E+00
(PID.TID 0001.0001) %MON dynstat_sst_mean             =   1.8401261717321E+01
(PID.TID 0001.0001) %MON dynstat_sst_sd               =   1.0063597432213E+01
(PID.TID 0001.0001) %MON dynstat_sst_del2             =   2.1097872562778E-01
(PID.TID 0001.0001) %MON dynstat_sss_max              =   4.1442470953421E+01
(PID.TID 0001.0001) %MON dynstat_sss_min              =   1.8418780088245E+01
(PID.TID 0001.0001) %MON dynstat_sss_mean             =   3.4620822297912E+01
(PID.TID 0001.0001) %MON dynstat_sss_sd               =   1.4530952818918E+00
(PID.TID 0001.0001) %MON dynstat_sss_del2             =   8.0452462167346E-02
(PID.TID 0001.0001) %MON extforcing_qnet_max          =   2.8277906469884E+02
(PID.TID 0001.0001) %MON extforcing_qnet_min          =  -1.7983547760680E+02
(PID.TID 0001.0001) %MON extforcing_qnet_mean         =  -4.1284575151285E+00
(PID.TID 0001.0001) %MON extforcing_qnet_sd           =   5.4846163477499E+01
(PID.TID 0001.0001) %MON extforcing_qnet_del2         =   4.6276893084268E+00
(PID.TID 0001.0001) %MON extforcing_qsw_max           =   0.0000000000000E+00
(PID.TID 0001.0001) %MON extforcing_qsw_min           =   0.0000000000000E+00
(PID.TID 0001.0001) %MON extforcing_qsw_mean          =   0.0000000000000E+00
(PID.TID 0001.0001) %MON extforcing_qsw_sd            =   0.0000000000000E+00
(PID.TID 0001.0001) %MON extforcing_qsw_del2          =   0.0000000000000E+00
(PID.TID 0001.0001) %MON extforcing_empmr_max         =   7.6494447208479E-08
(PID.TID 0001.0001) %MON extforcing_empmr_min         =  -1.5362614137596E-07
(PID.TID 0001.0001) %MON extforcing_empmr_mean        =  -1.6379999222713E-24
(PID.TID 0001.0001) %MON extforcing_empmr_sd          =   2.4051723601802E-08
(PID.TID 0001.0001) %MON extforcing_empmr_del2        =   1.2835223797615E-09
(PID.TID 0001.0001) %MON extforcing_fu_max            =   2.6329156141057E-01
(PID.TID 0001.0001) %MON extforcing_fu_min            =  -3.2605036991779E-01
(PID.TID 0001.0001) %MON extforcing_fu_mean           =  -8.6080426136757E-03
(PID.TID 0001.0001) %MON extforcing_fu_sd             =   7.0930568823084E-02
(PID.TID 0001.0001) %MON extforcing_fu_del2           =   2.8254014109267E-03
(PID.TID 0001.0001) %MON extforcing_fv_max            =   2.0682105220463E-01
(PID.TID 0001.0001) %MON extforcing_fv_min            =  -3.2925857425585E-01
(PID.TID 0001.0001) %MON extforcing_fv_mean           =  -1.2765103940150E-02
(PID.TID 0001.0001) %MON extforcing_fv_sd             =   7.6333118089680E-02
(PID.TID 0001.0001) %MON extforcing_fv_del2           =   3.0919887487623E-03
(PID.TID 0001.0001) %MON advcfl_uvel_max              =   7.6126169648349E-02
(PID.TID 0001.0001) %MON advcfl_vvel_max              =   7.5194465555034E-02
(PID.TID 0001.0001) %MON advcfl_wvel_max              =   6.3641801855457E-02
(PID.TID 0001.0001) %MON advcfl_W_hf_max              =   7.8473222752541E-02
(PID.TID 0001.0001) %MON pe_b_mean                    =   4.8070664700881E-04
(PID.TID 0001.0001) %MON ke_max                       =   3.3891771583758E-02
(PID.TID 0001.0001) %MON ke_mean                      =   1.3918991089455E-04
(PID.TID 0001.0001) %MON ke_vol                       =   1.3398024453628E+18
(PID.TID 0001.0001) %MON vort_r_min                   =  -1.3190500177135E-06
(PID.TID 0001.0001) %MON vort_r_max                   =   1.3051639313737E-06
(PID.TID 0001.0001) %MON vort_a_mean                  =  -2.0493733748264E-05
(PID.TID 0001.0001) %MON vort_a_sd                    =   7.5053956023728E-05
(PID.TID 0001.0001) %MON vort_p_mean                  =  -2.4715770608293E-05
(PID.TID 0001.0001) %MON vort_p_sd                    =   1.2777069327115E-04
(PID.TID 0001.0001) %MON surfExpan_theta_mean         =   5.6622154981756E-08
(PID.TID 0001.0001) %MON surfExpan_salt_mean          =   1.5636558076776E-08
(PID.TID 0001.0001) // =======================================================
(PID.TID 0001.0001) // End MONITOR dynamic field statistics
(PID.TID 0001.0001) // =======================================================
 DRIVER_GET_EXPORT_STATE_3D:MASK. This code is stubbed!
 DRIVER_SET_IMPORT_STATE_3D:SWHEAT. This code is stubbed!
 cg2d: Sum(rhs),rhsMax =  -9.97602001007181E-12  1.36093377488231E+00
(PID.TID 0001.0001)                    cg2d_init_res =    1.17640075133988E-01
(PID.TID 0001.0001)                       cg2d_iters =    58
(PID.TID 0001.0001)                         cg2d_res =    4.77034728619655E-07
(PID.TID 0001.0001) // =======================================================
(PID.TID 0001.0001) // Begin MONITOR dynamic field statistics
(PID.TID 0001.0001) // =======================================================
(PID.TID 0001.0001) %MON time_tsnumber                =                 72086
(PID.TID 0001.0001) %MON time_secondsf                =   6.2282304000000E+09
(PID.TID 0001.0001) %MON dynstat_eta_max              =   8.8790421009847E-01
(PID.TID 0001.0001) %MON dynstat_eta_min              =  -1.6044316081562E+00
(PID.TID 0001.0001) %MON dynstat_eta_mean             =   1.4207717586531E-14
(PID.TID 0001.0001) %MON dynstat_eta_sd               =   6.0072496788271E-01
(PID.TID 0001.0001) %MON dynstat_eta_del2             =   1.1444101283030E-02
(PID.TID 0001.0001) %MON dynstat_uvel_max             =   1.9475288800212E-01
(PID.TID 0001.0001) %MON dynstat_uvel_min             =  -2.4686950396660E-01
(PID.TID 0001.0001) %MON dynstat_uvel_mean            =  -4.4167115217072E-04
(PID.TID 0001.0001) %MON dynstat_uvel_sd              =   1.1857313459144E-02
(PID.TID 0001.0001) %MON dynstat_uvel_del2            =   1.5743108196056E-03
(PID.TID 0001.0001) %MON dynstat_vvel_max             =   1.7229943745968E-01
(PID.TID 0001.0001) %MON dynstat_vvel_min             =  -2.2180526240076E-01
(PID.TID 0001.0001) %MON dynstat_vvel_mean            =  -3.5304216930042E-04
(PID.TID 0001.0001) %MON dynstat_vvel_sd              =   1.2664098091445E-02
(PID.TID 0001.0001) %MON dynstat_vvel_del2            =   1.6068917858889E-03
(PID.TID 0001.0001) %MON dynstat_wvel_max             =   1.0549754554080E-04
(PID.TID 0001.0001) %MON dynstat_wvel_min             =  -1.9510118294842E-04
(PID.TID 0001.0001) %MON dynstat_wvel_mean            =   8.9488138316211E-11
(PID.TID 0001.0001) %MON dynstat_wvel_sd              =   3.5108870284881E-06
(PID.TID 0001.0001) %MON dynstat_wvel_del2            =   8.4717841857203E-07
(PID.TID 0001.0001) %MON dynstat_theta_max            =   3.1467701263877E+01
(PID.TID 0001.0001) %MON dynstat_theta_min            =  -4.1235206503425E+00
(PID.TID 0001.0001) %MON dynstat_theta_mean           =   3.9131411946037E+00
(PID.TID 0001.0001) %MON dynstat_theta_sd             =   4.5892621304538E+00
(PID.TID 0001.0001) %MON dynstat_theta_del2           =   8.9781520358662E-02
(PID.TID 0001.0001) %MON dynstat_salt_max             =   4.1442350313594E+01
(PID.TID 0001.0001) %MON dynstat_salt_min             =   1.8418893379871E+01
(PID.TID 0001.0001) %MON dynstat_salt_mean            =   3.4772146470664E+01
(PID.TID 0001.0001) %MON dynstat_salt_sd              =   5.3113605340436E-01
(PID.TID 0001.0001) %MON dynstat_salt_del2            =   1.8979888909063E-02
(PID.TID 0001.0001) %MON dynstat_sst_max              =   3.1467701263877E+01
(PID.TID 0001.0001) %MON dynstat_sst_min              =  -1.9887725754210E+00
(PID.TID 0001.0001) %MON dynstat_sst_mean             =   1.8398359991168E+01
(PID.TID 0001.0001) %MON dynstat_sst_sd               =   1.0071239702156E+01
(PID.TID 0001.0001) %MON dynstat_sst_del2             =   2.1070968509378E-01
(PID.TID 0001.0001) %MON dynstat_sss_max              =   4.1442350313594E+01
(PID.TID 0001.0001) %MON dynstat_sss_min              =   1.8418893379871E+01
(PID.TID 0001.0001) %MON dynstat_sss_mean             =   3.4620828083745E+01
(PID.TID 0001.0001) %MON dynstat_sss_sd               =   1.4530362892768E+00
(PID.TID 0001.0001) %MON dynstat_sss_del2             =   8.0451329081781E-02
(PID.TID 0001.0001) %MON extforcing_qnet_max          =   2.7788634929894E+02
(PID.TID 0001.0001) %MON extforcing_qnet_min          =  -1.7929075000358E+02
(PID.TID 0001.0001) %MON extforcing_qnet_mean         =  -3.7427706165760E+00
(PID.TID 0001.0001) %MON extforcing_qnet_sd           =   5.4544358253022E+01
(PID.TID 0001.0001) %MON extforcing_qnet_del2         =   4.6061467845737E+00
(PID.TID 0001.0001) %MON extforcing_qsw_max           =   0.0000000000000E+00
(PID.TID 0001.0001) %MON extforcing_qsw_min           =   0.0000000000000E+00
(PID.TID 0001.0001) %MON extforcing_qsw_mean          =   0.0000000000000E+00
(PID.TID 0001.0001) %MON extforcing_qsw_sd            =   0.0000000000000E+00
(PID.TID 0001.0001) %MON extforcing_qsw_del2          =   0.0000000000000E+00
(PID.TID 0001.0001) %MON extforcing_empmr_max         =   7.6494447208479E-08
(PID.TID 0001.0001) %MON extforcing_empmr_min         =  -1.5362614137596E-07
(PID.TID 0001.0001) %MON extforcing_empmr_mean        =  -1.2284999417034E-24
(PID.TID 0001.0001) %MON extforcing_empmr_sd          =   2.4051723601802E-08
(PID.TID 0001.0001) %MON extforcing_empmr_del2        =   1.2835223797615E-09
(PID.TID 0001.0001) %MON extforcing_fu_max            =   2.6392038518372E-01
(PID.TID 0001.0001) %MON extforcing_fu_min            =  -3.2389958558212E-01
(PID.TID 0001.0001) %MON extforcing_fu_mean           =  -8.6078950880959E-03
(PID.TID 0001.0001) %MON extforcing_fu_sd             =   7.1031303003012E-02
(PID.TID 0001.0001) %MON extforcing_fu_del2           =   2.8046940207124E-03
(PID.TID 0001.0001) %MON extforcing_fv_max            =   2.0525447557160E-01
(PID.TID 0001.0001) %MON extforcing_fv_min            =  -3.2829180536742E-01
(PID.TID 0001.0001) %MON extforcing_fv_mean           =  -1.2777768922823E-02
(PID.TID 0001.0001) %MON extforcing_fv_sd             =   7.5981010745704E-02
(PID.TID 0001.0001) %MON extforcing_fv_del2           =   3.0603424433780E-03
(PID.TID 0001.0001) %MON advcfl_uvel_max              =   7.6164185979265E-02
(PID.TID 0001.0001) %MON advcfl_vvel_max              =   7.5102897397293E-02
(PID.TID 0001.0001) %MON advcfl_wvel_max              =   6.3610347949974E-02
(PID.TID 0001.0001) %MON advcfl_W_hf_max              =   7.8434438929762E-02
(PID.TID 0001.0001) %MON pe_b_mean                    =   4.8074617618948E-04
(PID.TID 0001.0001) %MON ke_max                       =   3.3841454315283E-02
(PID.TID 0001.0001) %MON ke_mean                      =   1.3914297196798E-04
(PID.TID 0001.0001) %MON ke_vol                       =   1.3398024453628E+18
(PID.TID 0001.0001) %MON vort_r_min                   =  -1.3185630170451E-06
(PID.TID 0001.0001) %MON vort_r_max                   =   1.3128661180357E-06
(PID.TID 0001.0001) %MON vort_a_mean                  =  -2.0493733748264E-05
(PID.TID 0001.0001) %MON vort_a_sd                    =   7.5053956159126E-05
(PID.TID 0001.0001) %MON vort_p_mean                  =  -2.4715770632892E-05
(PID.TID 0001.0001) %MON vort_p_sd                    =   1.2777069280114E-04
(PID.TID 0001.0001) %MON surfExpan_theta_mean         =   5.6879661898997E-08
(PID.TID 0001.0001) %MON surfExpan_salt_mean          =   1.5727514663953E-08
(PID.TID 0001.0001) // =======================================================
(PID.TID 0001.0001) // End MONITOR dynamic field statistics
(PID.TID 0001.0001) // =======================================================
 DRIVER_GET_EXPORT_STATE_3D:MASK. This code is stubbed!
 DRIVER_SET_IMPORT_STATE_3D:SWHEAT. This code is stubbed!
 cg2d: Sum(rhs),rhsMax =  -9.12336872715969E-12  1.35929764746382E+00
(PID.TID 0001.0001)                    cg2d_init_res =    1.16822578104897E-01
(PID.TID 0001.0001)                       cg2d_iters =    58
(PID.TID 0001.0001)                         cg2d_res =    5.78818433023361E-07
(PID.TID 0001.0001) // =======================================================
(PID.TID 0001.0001) // Begin MONITOR dynamic field statistics
(PID.TID 0001.0001) // =======================================================
(PID.TID 0001.0001) %MON time_tsnumber                =                 72087
(PID.TID 0001.0001) %MON time_secondsf                =   6.2283168000000E+09
(PID.TID 0001.0001) %MON dynstat_eta_max              =   8.8832535012186E-01
(PID.TID 0001.0001) %MON dynstat_eta_min              =  -1.6046402977943E+00
(PID.TID 0001.0001) %MON dynstat_eta_mean             =   1.4482528371570E-14
(PID.TID 0001.0001) %MON dynstat_eta_sd               =   6.0073536134432E-01
(PID.TID 0001.0001) %MON dynstat_eta_del2             =   1.1446890783639E-02
(PID.TID 0001.0001) %MON dynstat_uvel_max             =   1.9490200269646E-01
(PID.TID 0001.0001) %MON dynstat_uvel_min             =  -2.4660617112961E-01
(PID.TID 0001.0001) %MON dynstat_uvel_mean            =  -4.4131222306129E-04
(PID.TID 0001.0001) %MON dynstat_uvel_sd              =   1.1857033694111E-02
(PID.TID 0001.0001) %MON dynstat_uvel_del2            =   1.5741397634899E-03
(PID.TID 0001.0001) %MON dynstat_vvel_max             =   1.7205959638122E-01
(PID.TID 0001.0001) %MON dynstat_vvel_min             =  -2.2169277976525E-01
(PID.TID 0001.0001) %MON dynstat_vvel_mean            =  -3.5212791473238E-04
(PID.TID 0001.0001) %MON dynstat_vvel_sd              =   1.2659969748051E-02
(PID.TID 0001.0001) %MON dynstat_vvel_del2            =   1.6067403665364E-03
(PID.TID 0001.0001) %MON dynstat_wvel_max             =   1.0529928876050E-04
(PID.TID 0001.0001) %MON dynstat_wvel_min             =  -1.9501808279013E-04
(PID.TID 0001.0001) %MON dynstat_wvel_mean            =   1.0914443464456E-10
(PID.TID 0001.0001) %MON dynstat_wvel_sd              =   3.5106196166262E-06
(PID.TID 0001.0001) %MON dynstat_wvel_del2            =   8.4760804755856E-07
(PID.TID 0001.0001) %MON dynstat_theta_max            =   3.1471757676535E+01
(PID.TID 0001.0001) %MON dynstat_theta_min            =  -4.1155388950837E+00
(PID.TID 0001.0001) %MON dynstat_theta_mean           =   3.9131357971021E+00
(PID.TID 0001.0001) %MON dynstat_theta_sd             =   4.5894118421897E+00
(PID.TID 0001.0001) %MON dynstat_theta_del2           =   8.9775478310818E-02
(PID.TID 0001.0001) %MON dynstat_salt_max             =   4.1442126346704E+01
(PID.TID 0001.0001) %MON dynstat_salt_min             =   1.8419022423930E+01
(PID.TID 0001.0001) %MON dynstat_salt_mean            =   3.4772147678999E+01
(PID.TID 0001.0001) %MON dynstat_salt_sd              =   5.3113156131629E-01
(PID.TID 0001.0001) %MON dynstat_salt_del2            =   1.8979123902377E-02
(PID.TID 0001.0001) %MON dynstat_sst_max              =   3.1471757676535E+01
(PID.TID 0001.0001) %MON dynstat_sst_min              =  -1.9885878985527E+00
(PID.TID 0001.0001) %MON dynstat_sst_mean             =   1.8395263970988E+01
(PID.TID 0001.0001) %MON dynstat_sst_sd               =   1.0078861226627E+01
(PID.TID 0001.0001) %MON dynstat_sst_del2             =   2.1042140261652E-01
(PID.TID 0001.0001) %MON dynstat_sss_max              =   4.1442126346704E+01
(PID.TID 0001.0001) %MON dynstat_sss_min              =   1.8419022423930E+01
(PID.TID 0001.0001) %MON dynstat_sss_mean             =   3.4620832846641E+01
(PID.TID 0001.0001) %MON dynstat_sss_sd               =   1.4529833351510E+00
(PID.TID 0001.0001) %MON dynstat_sss_del2             =   8.0450158344552E-02
(PID.TID 0001.0001) %MON extforcing_qnet_max          =   2.7299363389905E+02
(PID.TID 0001.0001) %MON extforcing_qnet_min          =  -1.7874602240036E+02
(PID.TID 0001.0001) %MON extforcing_qnet_mean         =  -3.3570837180235E+00
(PID.TID 0001.0001) %MON extforcing_qnet_sd           =   5.4309419529200E+01
(PID.TID 0001.0001) %MON extforcing_qnet_del2         =   4.5872668539777E+00
(PID.TID 0001.0001) %MON extforcing_qsw_max           =   0.0000000000000E+00
(PID.TID 0001.0001) %MON extforcing_qsw_min           =   0.0000000000000E+00
(PID.TID 0001.0001) %MON extforcing_qsw_mean          =   0.0000000000000E+00
(PID.TID 0001.0001) %MON extforcing_qsw_sd            =   0.0000000000000E+00
(PID.TID 0001.0001) %MON extforcing_qsw_del2          =   0.0000000000000E+00
(PID.TID 0001.0001) %MON extforcing_empmr_max         =   7.6494447208479E-08
(PID.TID 0001.0001) %MON extforcing_empmr_min         =  -1.5362614137596E-07
(PID.TID 0001.0001) %MON extforcing_empmr_mean        =  -8.1899996113563E-25
(PID.TID 0001.0001) %MON extforcing_empmr_sd          =   2.4051723601802E-08
(PID.TID 0001.0001) %MON extforcing_empmr_del2        =   1.2835223797615E-09
(PID.TID 0001.0001) %MON extforcing_fu_max            =   2.6454920895687E-01
(PID.TID 0001.0001) %MON extforcing_fu_min            =  -3.2174880124645E-01
(PID.TID 0001.0001) %MON extforcing_fu_mean           =  -8.6077489439076E-03
(PID.TID 0001.0001) %MON extforcing_fu_sd             =   7.1150244294681E-02
(PID.TID 0001.0001) %MON extforcing_fu_del2           =   2.7867584476925E-03
(PID.TID 0001.0001) %MON extforcing_fv_max            =   2.0368789893857E-01
(PID.TID 0001.0001) %MON extforcing_fv_min            =  -3.2732503647900E-01
(PID.TID 0001.0001) %MON extforcing_fv_mean           =  -1.2790433603992E-02
(PID.TID 0001.0001) %MON extforcing_fv_sd             =   7.5654248795759E-02
(PID.TID 0001.0001) %MON extforcing_fv_del2           =   3.0315934673000E-03
(PID.TID 0001.0001) %MON advcfl_uvel_max              =   7.6191202603207E-02
(PID.TID 0001.0001) %MON advcfl_vvel_max              =   7.4998354050127E-02
(PID.TID 0001.0001) %MON advcfl_wvel_max              =   6.3583254162516E-02
(PID.TID 0001.0001) %MON advcfl_W_hf_max              =   7.8401026887366E-02
(PID.TID 0001.0001) %MON pe_b_mean                    =   4.8076281162305E-04
(PID.TID 0001.0001) %MON ke_max                       =   3.3790064304914E-02
(PID.TID 0001.0001) %MON ke_mean                      =   1.3909097257446E-04
(PID.TID 0001.0001) %MON ke_vol                       =   1.3398024453628E+18
(PID.TID 0001.0001) %MON vort_r_min                   =  -1.3180917685593E-06
(PID.TID 0001.0001) %MON vort_r_max                   =   1.3204386241643E-06
(PID.TID 0001.0001) %MON vort_a_mean                  =  -2.0493733748264E-05
(PID.TID 0001.0001) %MON vort_a_sd                    =   7.5053956292079E-05
(PID.TID 0001.0001) %MON vort_p_mean                  =  -2.4715770664239E-05
(PID.TID 0001.0001) %MON vort_p_sd                    =   1.2777069150010E-04
(PID.TID 0001.0001) %MON surfExpan_theta_mean         =   5.7251096869841E-08
(PID.TID 0001.0001) %MON surfExpan_salt_mean          =   1.5821808200277E-08
(PID.TID 0001.0001) // =======================================================
(PID.TID 0001.0001) // End MONITOR dynamic field statistics
(PID.TID 0001.0001) // =======================================================
 DRIVER_GET_EXPORT_STATE_3D:MASK. This code is stubbed!
 DRIVER_SET_IMPORT_STATE_3D:SWHEAT. This code is stubbed!
 cg2d: Sum(rhs),rhsMax =  -9.83391146291979E-12  1.35770216458941E+00
(PID.TID 0001.0001)                    cg2d_init_res =    1.16170001628831E-01
(PID.TID 0001.0001)                       cg2d_iters =    59
(PID.TID 0001.0001)                         cg2d_res =    5.18310063939015E-07
(PID.TID 0001.0001) // =======================================================
(PID.TID 0001.0001) // Begin MONITOR dynamic field statistics
(PID.TID 0001.0001) // =======================================================
(PID.TID 0001.0001) %MON time_tsnumber                =                 72088
(PID.TID 0001.0001) %MON time_secondsf                =   6.2284032000000E+09
(PID.TID 0001.0001) %MON dynstat_eta_max              =   8.8885449795482E-01
(PID.TID 0001.0001) %MON dynstat_eta_min              =  -1.6048624580217E+00
(PID.TID 0001.0001) %MON dynstat_eta_mean             =   1.4345122979050E-14
(PID.TID 0001.0001) %MON dynstat_eta_sd               =   6.0073276860849E-01
(PID.TID 0001.0001) %MON dynstat_eta_del2             =   1.1449587096512E-02
(PID.TID 0001.0001) %MON dynstat_uvel_max             =   1.9503416326537E-01
(PID.TID 0001.0001) %MON dynstat_uvel_min             =  -2.4633839770490E-01
(PID.TID 0001.0001) %MON dynstat_uvel_mean            =  -4.4100502757416E-04
(PID.TID 0001.0001) %MON dynstat_uvel_sd              =   1.1856421119375E-02
(PID.TID 0001.0001) %MON dynstat_uvel_del2            =   1.5740466353500E-03
(PID.TID 0001.0001) %MON dynstat_vvel_max             =   1.7179114948158E-01
(PID.TID 0001.0001) %MON dynstat_vvel_min             =  -2.2157641550433E-01
(PID.TID 0001.0001) %MON dynstat_vvel_mean            =  -3.5128419202666E-04
(PID.TID 0001.0001) %MON dynstat_vvel_sd              =   1.2655797320965E-02
(PID.TID 0001.0001) %MON dynstat_vvel_del2            =   1.6065608354333E-03
(PID.TID 0001.0001) %MON dynstat_wvel_max             =   1.0513112953304E-04
(PID.TID 0001.0001) %MON dynstat_wvel_min             =  -1.9493946335851E-04
(PID.TID 0001.0001) %MON dynstat_wvel_mean            =   1.2523235199590E-10
(PID.TID 0001.0001) %MON dynstat_wvel_sd              =   3.5103769608314E-06
(PID.TID 0001.0001) %MON dynstat_wvel_del2            =   8.4805654121981E-07
(PID.TID 0001.0001) %MON dynstat_theta_max            =   3.1474330872364E+01
(PID.TID 0001.0001) %MON dynstat_theta_min            =  -4.1069378562466E+00
(PID.TID 0001.0001) %MON dynstat_theta_mean           =   3.9131285623759E+00
(PID.TID 0001.0001) %MON dynstat_theta_sd             =   4.5895539945462E+00
(PID.TID 0001.0001) %MON dynstat_theta_del2           =   8.9768044450395E-02
(PID.TID 0001.0001) %MON dynstat_salt_max             =   4.1441800205128E+01
(PID.TID 0001.0001) %MON dynstat_salt_min             =   1.8419167124390E+01
(PID.TID 0001.0001) %MON dynstat_salt_mean            =   3.4772148898365E+01
(PID.TID 0001.0001) %MON dynstat_salt_sd              =   5.3112704708806E-01
(PID.TID 0001.0001) %MON dynstat_salt_del2            =   1.8978043780264E-02
(PID.TID 0001.0001) %MON dynstat_sst_max              =   3.1474330872364E+01
(PID.TID 0001.0001) %MON dynstat_sst_min              =  -1.9884078895698E+00
(PID.TID 0001.0001) %MON dynstat_sst_mean             =   1.8391913479228E+01
(PID.TID 0001.0001) %MON dynstat_sst_sd               =   1.0086505951938E+01
(PID.TID 0001.0001) %MON dynstat_sst_del2             =   2.1011707326332E-01
(PID.TID 0001.0001) %MON dynstat_sss_max              =   4.1441800205128E+01
(PID.TID 0001.0001) %MON dynstat_sss_min              =   1.8419167124390E+01
(PID.TID 0001.0001) %MON dynstat_sss_mean             =   3.4620828382361E+01
(PID.TID 0001.0001) %MON dynstat_sss_sd               =   1.4529303732315E+00
(PID.TID 0001.0001) %MON dynstat_sss_del2             =   8.0446164581793E-02
(PID.TID 0001.0001) %MON extforcing_qnet_max          =   2.6810091849915E+02
(PID.TID 0001.0001) %MON extforcing_qnet_min          =  -1.7820129479713E+02
(PID.TID 0001.0001) %MON extforcing_qnet_mean         =  -2.9713968194710E+00
(PID.TID 0001.0001) %MON extforcing_qnet_sd           =   5.4142217772218E+01
(PID.TID 0001.0001) %MON extforcing_qnet_del2         =   4.5711994866737E+00
(PID.TID 0001.0001) %MON extforcing_qsw_max           =   0.0000000000000E+00
(PID.TID 0001.0001) %MON extforcing_qsw_min           =   0.0000000000000E+00
(PID.TID 0001.0001) %MON extforcing_qsw_mean          =   0.0000000000000E+00
(PID.TID 0001.0001) %MON extforcing_qsw_sd            =   0.0000000000000E+00
(PID.TID 0001.0001) %MON extforcing_qsw_del2          =   0.0000000000000E+00
(PID.TID 0001.0001) %MON extforcing_empmr_max         =   7.6494447208479E-08
(PID.TID 0001.0001) %MON extforcing_empmr_min         =  -1.5362614137596E-07
(PID.TID 0001.0001) %MON extforcing_empmr_mean        =  -2.0474999028391E-24
(PID.TID 0001.0001) %MON extforcing_empmr_sd          =   2.4051723601802E-08
(PID.TID 0001.0001) %MON extforcing_empmr_del2        =   1.2835223797615E-09
(PID.TID 0001.0001) %MON extforcing_fu_max            =   2.6517803273003E-01
(PID.TID 0001.0001) %MON extforcing_fu_min            =  -3.2237697723938E-01
(PID.TID 0001.0001) %MON extforcing_fu_mean           =  -8.6076042086180E-03
(PID.TID 0001.0001) %MON extforcing_fu_sd             =   7.1287301755162E-02
(PID.TID 0001.0001) %MON extforcing_fu_del2           =   2.7728094489724E-03
(PID.TID 0001.0001) %MON extforcing_fv_max            =   2.0212132230554E-01
(PID.TID 0001.0001) %MON extforcing_fv_min            =  -3.2635826759058E-01
(PID.TID 0001.0001) %MON extforcing_fv_mean           =  -1.2803097991120E-02
(PID.TID 0001.0001) %MON extforcing_fv_sd             =   7.5353161982693E-02
(PID.TID 0001.0001) %MON extforcing_fv_del2           =   3.0059849245232E-03
(PID.TID 0001.0001) %MON advcfl_uvel_max              =   7.6208881813385E-02
(PID.TID 0001.0001) %MON advcfl_vvel_max              =   7.4881341828511E-02
(PID.TID 0001.0001) %MON advcfl_wvel_max              =   6.3557621261039E-02
(PID.TID 0001.0001) %MON advcfl_W_hf_max              =   7.8369412203020E-02
(PID.TID 0001.0001) %MON pe_b_mean                    =   4.8075866174823E-04
(PID.TID 0001.0001) %MON ke_max                       =   3.3737563278654E-02
(PID.TID 0001.0001) %MON ke_mean                      =   1.3903489081622E-04
(PID.TID 0001.0001) %MON ke_vol                       =   1.3398024453628E+18
(PID.TID 0001.0001) %MON vort_r_min                   =  -1.3176277787778E-06
(PID.TID 0001.0001) %MON vort_r_max                   =   1.3278537549740E-06
(PID.TID 0001.0001) %MON vort_a_mean                  =  -2.0493733748264E-05
(PID.TID 0001.0001) %MON vort_a_sd                    =   7.5053956423779E-05
(PID.TID 0001.0001) %MON vort_p_mean                  =  -2.4715770702253E-05
(PID.TID 0001.0001) %MON vort_p_sd                    =   1.2777068945732E-04
(PID.TID 0001.0001) %MON surfExpan_theta_mean         =   5.7715156042240E-08
(PID.TID 0001.0001) %MON surfExpan_salt_mean          =   1.5917410289663E-08
(PID.TID 0001.0001) // =======================================================
(PID.TID 0001.0001) // End MONITOR dynamic field statistics
(PID.TID 0001.0001) // =======================================================
 DRIVER_GET_EXPORT_STATE_3D:MASK. This code is stubbed!
 DRIVER_SET_IMPORT_STATE_3D:SWHEAT. This code is stubbed!
 cg2d: Sum(rhs),rhsMax =  -9.35074240260292E-12  1.35616940898423E+00
(PID.TID 0001.0001)                    cg2d_init_res =    1.15459291022907E-01
(PID.TID 0001.0001)                       cg2d_iters =    59
(PID.TID 0001.0001)                         cg2d_res =    5.51445406092367E-07
(PID.TID 0001.0001) // =======================================================
(PID.TID 0001.0001) // Begin MONITOR dynamic field statistics
(PID.TID 0001.0001) // =======================================================
(PID.TID 0001.0001) %MON time_tsnumber                =                 72089
(PID.TID 0001.0001) %MON time_secondsf                =   6.2284896000000E+09
(PID.TID 0001.0001) %MON dynstat_eta_max              =   8.8959242613078E-01
(PID.TID 0001.0001) %MON dynstat_eta_min              =  -1.6050996013956E+00
(PID.TID 0001.0001) %MON dynstat_eta_mean             =   1.4262679743539E-14
(PID.TID 0001.0001) %MON dynstat_eta_sd               =   6.0071885067631E-01
(PID.TID 0001.0001) %MON dynstat_eta_del2             =   1.1451988681391E-02
(PID.TID 0001.0001) %MON dynstat_uvel_max             =   1.9515058201258E-01
(PID.TID 0001.0001) %MON dynstat_uvel_min             =  -2.4606612412156E-01
(PID.TID 0001.0001) %MON dynstat_uvel_mean            =  -4.4074770236699E-04
(PID.TID 0001.0001) %MON dynstat_uvel_sd              =   1.1855487410251E-02
(PID.TID 0001.0001) %MON dynstat_uvel_del2            =   1.5740091220347E-03
(PID.TID 0001.0001) %MON dynstat_vvel_max             =   1.7149545009979E-01
(PID.TID 0001.0001) %MON dynstat_vvel_min             =  -2.2145630688745E-01
(PID.TID 0001.0001) %MON dynstat_vvel_mean            =  -3.5051840918894E-04
(PID.TID 0001.0001) %MON dynstat_vvel_sd              =   1.2651661861471E-02
(PID.TID 0001.0001) %MON dynstat_vvel_del2            =   1.6064122800239E-03
(PID.TID 0001.0001) %MON dynstat_wvel_max             =   1.0499830072851E-04
(PID.TID 0001.0001) %MON dynstat_wvel_min             =  -1.9486631186438E-04
(PID.TID 0001.0001) %MON dynstat_wvel_mean            =   1.3690437624052E-10
(PID.TID 0001.0001) %MON dynstat_wvel_sd              =   3.5101499144361E-06
(PID.TID 0001.0001) %MON dynstat_wvel_del2            =   8.4845204708224E-07
(PID.TID 0001.0001) %MON dynstat_theta_max            =   3.1475437066432E+01
(PID.TID 0001.0001) %MON dynstat_theta_min            =  -4.0977199004933E+00
(PID.TID 0001.0001) %MON dynstat_theta_mean           =   3.9131195692555E+00
(PID.TID 0001.0001) %MON dynstat_theta_sd             =   4.5896888544037E+00
(PID.TID 0001.0001) %MON dynstat_theta_del2           =   8.9760027953975E-02
(PID.TID 0001.0001) %MON dynstat_salt_max             =   4.1441372967369E+01
(PID.TID 0001.0001) %MON dynstat_salt_min             =   1.8419327337734E+01
(PID.TID 0001.0001) %MON dynstat_salt_mean            =   3.4772150128919E+01
(PID.TID 0001.0001) %MON dynstat_salt_sd              =   5.3112251917623E-01
(PID.TID 0001.0001) %MON dynstat_salt_del2            =   1.8976682022754E-02
(PID.TID 0001.0001) %MON dynstat_sst_max              =   3.1475437066432E+01
(PID.TID 0001.0001) %MON dynstat_sst_min              =  -1.9882326865951E+00
(PID.TID 0001.0001) %MON dynstat_sst_mean             =   1.8388399471913E+01
(PID.TID 0001.0001) %MON dynstat_sst_sd               =   1.0094126118118E+01
(PID.TID 0001.0001) %MON dynstat_sst_del2             =   2.0982249014613E-01
(PID.TID 0001.0001) %MON dynstat_sss_max              =   4.1441372967369E+01
(PID.TID 0001.0001) %MON dynstat_sss_min              =   1.8419327337734E+01
(PID.TID 0001.0001) %MON dynstat_sss_mean             =   3.4620825638800E+01
(PID.TID 0001.0001) %MON dynstat_sss_sd               =   1.4528853389827E+00
(PID.TID 0001.0001) %MON dynstat_sss_del2             =   8.0442213589267E-02
(PID.TID 0001.0001) %MON extforcing_qnet_max          =   2.6320820309925E+02
(PID.TID 0001.0001) %MON extforcing_qnet_min          =  -1.7765656719391E+02
(PID.TID 0001.0001) %MON extforcing_qnet_mean         =  -2.5857099209185E+00
(PID.TID 0001.0001) %MON extforcing_qnet_sd           =   5.4043381688427E+01
(PID.TID 0001.0001) %MON extforcing_qnet_del2         =   4.5574247083330E+00
(PID.TID 0001.0001) %MON extforcing_qsw_max           =   0.0000000000000E+00
(PID.TID 0001.0001) %MON extforcing_qsw_min           =   0.0000000000000E+00
(PID.TID 0001.0001) %MON extforcing_qsw_mean          =   0.0000000000000E+00
(PID.TID 0001.0001) %MON extforcing_qsw_sd            =   0.0000000000000E+00
(PID.TID 0001.0001) %MON extforcing_qsw_del2          =   0.0000000000000E+00
(PID.TID 0001.0001) %MON extforcing_empmr_max         =   7.6494447208479E-08
(PID.TID 0001.0001) %MON extforcing_empmr_min         =  -1.5362614137596E-07
(PID.TID 0001.0001) %MON extforcing_empmr_mean        =  -2.0474999028391E-24
(PID.TID 0001.0001) %MON extforcing_empmr_sd          =   2.4051723601802E-08
(PID.TID 0001.0001) %MON extforcing_empmr_del2        =   1.2835223797615E-09
(PID.TID 0001.0001) %MON extforcing_fu_max            =   2.6580685650318E-01
(PID.TID 0001.0001) %MON extforcing_fu_min            =  -3.2361106149734E-01
(PID.TID 0001.0001) %MON extforcing_fu_mean           =  -8.6074607650796E-03
(PID.TID 0001.0001) %MON extforcing_fu_sd             =   7.1442371341496E-02
(PID.TID 0001.0001) %MON extforcing_fu_del2           =   2.7629447578742E-03
(PID.TID 0001.0001) %MON extforcing_fv_max            =   2.0093333982484E-01
(PID.TID 0001.0001) %MON extforcing_fv_min            =  -3.2539149870215E-01
(PID.TID 0001.0001) %MON extforcing_fv_mean           =  -1.2815762122247E-02
(PID.TID 0001.0001) %MON extforcing_fv_sd             =   7.5078059210539E-02
(PID.TID 0001.0001) %MON extforcing_fv_del2           =   2.9838958368049E-03
(PID.TID 0001.0001) %MON advcfl_uvel_max              =   7.6218941873217E-02
(PID.TID 0001.0001) %MON advcfl_vvel_max              =   7.4752450633864E-02
(PID.TID 0001.0001) %MON advcfl_wvel_max              =   6.3533771113518E-02
(PID.TID 0001.0001) %MON advcfl_W_hf_max              =   7.8339991124451E-02
(PID.TID 0001.0001) %MON pe_b_mean                    =   4.8073638532420E-04
(PID.TID 0001.0001) %MON ke_max                       =   3.3683916481278E-02
(PID.TID 0001.0001) %MON ke_mean                      =   1.3897580787361E-04
(PID.TID 0001.0001) %MON ke_vol                       =   1.3398024453628E+18
(PID.TID 0001.0001) %MON vort_r_min                   =  -1.3171620511981E-06
(PID.TID 0001.0001) %MON vort_r_max                   =   1.3350753418947E-06
(PID.TID 0001.0001) %MON vort_a_mean                  =  -2.0493733748264E-05
(PID.TID 0001.0001) %MON vort_a_sd                    =   7.5053956555334E-05
(PID.TID 0001.0001) %MON vort_p_mean                  =  -2.4715770746677E-05
(PID.TID 0001.0001) %MON vort_p_sd                    =   1.2777068678763E-04
(PID.TID 0001.0001) %MON surfExpan_theta_mean         =   5.8246571576952E-08
(PID.TID 0001.0001) %MON surfExpan_salt_mean          =   1.6014778591283E-08
(PID.TID 0001.0001) // =======================================================
(PID.TID 0001.0001) // End MONITOR dynamic field statistics
(PID.TID 0001.0001) // =======================================================
 DRIVER_GET_EXPORT_STATE_3D:MASK. This code is stubbed!
 DRIVER_SET_IMPORT_STATE_3D:SWHEAT. This code is stubbed!
 cg2d: Sum(rhs),rhsMax =  -9.43600753089413E-12  1.35469179762983E+00
(PID.TID 0001.0001)                    cg2d_init_res =    1.14907867266880E-01
(PID.TID 0001.0001)                       cg2d_iters =    60
(PID.TID 0001.0001)                         cg2d_res =    5.12319493062816E-07
(PID.TID 0001.0001) // =======================================================
(PID.TID 0001.0001) // Begin MONITOR dynamic field statistics
(PID.TID 0001.0001) // =======================================================
(PID.TID 0001.0001) %MON time_tsnumber                =                 72090
(PID.TID 0001.0001) %MON time_secondsf                =   6.2285760000000E+09
(PID.TID 0001.0001) %MON dynstat_eta_max              =   8.9030538372594E-01
(PID.TID 0001.0001) %MON dynstat_eta_min              =  -1.6053525564316E+00
(PID.TID 0001.0001) %MON dynstat_eta_mean             =   1.4372604057554E-14
(PID.TID 0001.0001) %MON dynstat_eta_sd               =   6.0069571062308E-01
(PID.TID 0001.0001) %MON dynstat_eta_del2             =   1.1454218545590E-02
(PID.TID 0001.0001) %MON dynstat_uvel_max             =   1.9525251575183E-01
(PID.TID 0001.0001) %MON dynstat_uvel_min             =  -2.4578929903152E-01
(PID.TID 0001.0001) %MON dynstat_uvel_mean            =  -4.4053529908122E-04
(PID.TID 0001.0001) %MON dynstat_uvel_sd              =   1.1854253799061E-02
(PID.TID 0001.0001) %MON dynstat_uvel_del2            =   1.5740029120207E-03
(PID.TID 0001.0001) %MON dynstat_vvel_max             =   1.7248852399548E-01
(PID.TID 0001.0001) %MON dynstat_vvel_min             =  -2.2133257044828E-01
(PID.TID 0001.0001) %MON dynstat_vvel_mean            =  -3.4983685392913E-04
(PID.TID 0001.0001) %MON dynstat_vvel_sd              =   1.2647640802764E-02
(PID.TID 0001.0001) %MON dynstat_vvel_del2            =   1.6062973984814E-03
(PID.TID 0001.0001) %MON dynstat_wvel_max             =   1.0490384053656E-04
(PID.TID 0001.0001) %MON dynstat_wvel_min             =  -1.9479666440733E-04
(PID.TID 0001.0001) %MON dynstat_wvel_mean            =   1.4340344131710E-10
(PID.TID 0001.0001) %MON dynstat_wvel_sd              =   3.5099392899317E-06
(PID.TID 0001.0001) %MON dynstat_wvel_del2            =   8.4886967920542E-07
(PID.TID 0001.0001) %MON dynstat_theta_max            =   3.1475093492929E+01
(PID.TID 0001.0001) %MON dynstat_theta_min            =  -4.0878858296617E+00
(PID.TID 0001.0001) %MON dynstat_theta_mean           =   3.9131088734549E+00
(PID.TID 0001.0001) %MON dynstat_theta_sd             =   4.5898165954324E+00
(PID.TID 0001.0001) %MON dynstat_theta_del2           =   8.9751850824993E-02
(PID.TID 0001.0001) %MON dynstat_salt_max             =   4.1440845525634E+01
(PID.TID 0001.0001) %MON dynstat_salt_min             =   1.8419502868713E+01
(PID.TID 0001.0001) %MON dynstat_salt_mean            =   3.4772151370591E+01
(PID.TID 0001.0001) %MON dynstat_salt_sd              =   5.3111795741242E-01
(PID.TID 0001.0001) %MON dynstat_salt_del2            =   1.8974797351770E-02
(PID.TID 0001.0001) %MON dynstat_sst_max              =   3.1475093492929E+01
(PID.TID 0001.0001) %MON dynstat_sst_min              =  -1.9880622808739E+00
(PID.TID 0001.0001) %MON dynstat_sst_mean             =   1.8384657636338E+01
(PID.TID 0001.0001) %MON dynstat_sst_sd               =   1.0101751715707E+01
(PID.TID 0001.0001) %MON dynstat_sst_del2             =   2.0949926755735E-01
(PID.TID 0001.0001) %MON dynstat_sss_max              =   4.1440845525634E+01
(PID.TID 0001.0001) %MON dynstat_sss_min              =   1.8419502868713E+01
(PID.TID 0001.0001) %MON dynstat_sss_mean             =   3.4620814859228E+01
(PID.TID 0001.0001) %MON dynstat_sss_sd               =   1.4528393902568E+00
(PID.TID 0001.0001) %MON dynstat_sss_del2             =   8.0432175736007E-02
(PID.TID 0001.0001) %MON extforcing_qnet_max          =   2.5831548769935E+02
(PID.TID 0001.0001) %MON extforcing_qnet_min          =  -1.7711183959068E+02
(PID.TID 0001.0001) %MON extforcing_qnet_mean         =  -2.2000230223660E+00
(PID.TID 0001.0001) %MON extforcing_qnet_sd           =   5.4013286575424E+01
(PID.TID 0001.0001) %MON extforcing_qnet_del2         =   4.5459548265832E+00
(PID.TID 0001.0001) %MON extforcing_qsw_max           =   0.0000000000000E+00
(PID.TID 0001.0001) %MON extforcing_qsw_min           =   0.0000000000000E+00
(PID.TID 0001.0001) %MON extforcing_qsw_mean          =   0.0000000000000E+00
(PID.TID 0001.0001) %MON extforcing_qsw_sd            =   0.0000000000000E+00
(PID.TID 0001.0001) %MON extforcing_qsw_del2          =   0.0000000000000E+00
(PID.TID 0001.0001) %MON extforcing_empmr_max         =   7.6494447208479E-08
(PID.TID 0001.0001) %MON extforcing_empmr_min         =  -1.5362614137596E-07
(PID.TID 0001.0001) %MON extforcing_empmr_mean        =  -2.4569998834069E-24
(PID.TID 0001.0001) %MON extforcing_empmr_sd          =   2.4051723601802E-08
(PID.TID 0001.0001) %MON extforcing_empmr_del2        =   1.2835223797615E-09
(PID.TID 0001.0001) %MON extforcing_fu_max            =   2.6643568027634E-01
(PID.TID 0001.0001) %MON extforcing_fu_min            =  -3.2484514575530E-01
(PID.TID 0001.0001) %MON extforcing_fu_mean           =  -8.6073184145381E-03
(PID.TID 0001.0001) %MON extforcing_fu_sd             =   7.1615336301780E-02
(PID.TID 0001.0001) %MON extforcing_fu_del2           =   2.7585889795376E-03
(PID.TID 0001.0001) %MON extforcing_fv_max            =   2.0001411394083E-01
(PID.TID 0001.0001) %MON extforcing_fv_min            =  -3.2442472981373E-01
(PID.TID 0001.0001) %MON extforcing_fv_mean           =  -1.2828426052154E-02
(PID.TID 0001.0001) %MON extforcing_fv_sd             =   7.4829227084886E-02
(PID.TID 0001.0001) %MON extforcing_fv_del2           =   2.9665450953024E-03
(PID.TID 0001.0001) %MON advcfl_uvel_max              =   7.6223131955764E-02
(PID.TID 0001.0001) %MON advcfl_vvel_max              =   7.4612352685931E-02
(PID.TID 0001.0001) %MON advcfl_wvel_max              =   6.3511063414315E-02
(PID.TID 0001.0001) %MON advcfl_W_hf_max              =   7.8311975660615E-02
(PID.TID 0001.0001) %MON pe_b_mean                    =   4.8069934952526E-04
(PID.TID 0001.0001) %MON ke_max                       =   3.3629092699154E-02
(PID.TID 0001.0001) %MON ke_mean                      =   1.3891486395556E-04
(PID.TID 0001.0001) %MON ke_vol                       =   1.3398024453628E+18
(PID.TID 0001.0001) %MON vort_r_min                   =  -1.3166852245485E-06
(PID.TID 0001.0001) %MON vort_r_max                   =   1.3420816076841E-06
(PID.TID 0001.0001) %MON vort_a_mean                  =  -2.0493733748264E-05
(PID.TID 0001.0001) %MON vort_a_sd                    =   7.5053956687857E-05
(PID.TID 0001.0001) %MON vort_p_mean                  =  -2.4715770796928E-05
(PID.TID 0001.0001) %MON vort_p_sd                    =   1.2777068362694E-04
(PID.TID 0001.0001) %MON surfExpan_theta_mean         =   5.8819356389659E-08
(PID.TID 0001.0001) %MON surfExpan_salt_mean          =   1.6114892923433E-08
(PID.TID 0001.0001) // =======================================================
(PID.TID 0001.0001) // End MONITOR dynamic field statistics
(PID.TID 0001.0001) // =======================================================
 DRIVER_GET_EXPORT_STATE_3D:MASK. This code is stubbed!
 DRIVER_SET_IMPORT_STATE_3D:SWHEAT. This code is stubbed!
 cg2d: Sum(rhs),rhsMax =  -9.57811607804615E-12  1.35343097458629E+00
(PID.TID 0001.0001)                    cg2d_init_res =    1.14442050702585E-01
(PID.TID 0001.0001)                       cg2d_iters =    60
(PID.TID 0001.0001)                         cg2d_res =    5.39420127910018E-07
(PID.TID 0001.0001) // =======================================================
(PID.TID 0001.0001) // Begin MONITOR dynamic field statistics
(PID.TID 0001.0001) // =======================================================
(PID.TID 0001.0001) %MON time_tsnumber                =                 72091
(PID.TID 0001.0001) %MON time_secondsf                =   6.2286624000000E+09
(PID.TID 0001.0001) %MON dynstat_eta_max              =   8.9099743379919E-01
(PID.TID 0001.0001) %MON dynstat_eta_min              =  -1.6056216081894E+00
(PID.TID 0001.0001) %MON dynstat_eta_mean             =   1.4427566214562E-14
(PID.TID 0001.0001) %MON dynstat_eta_sd               =   6.0066576932187E-01
(PID.TID 0001.0001) %MON dynstat_eta_del2             =   1.1456311257822E-02
(PID.TID 0001.0001) %MON dynstat_uvel_max             =   1.9534125056914E-01
(PID.TID 0001.0001) %MON dynstat_uvel_min             =  -2.4550787910267E-01
(PID.TID 0001.0001) %MON dynstat_uvel_mean            =  -4.4036008217074E-04
(PID.TID 0001.0001) %MON dynstat_uvel_sd              =   1.1852750457256E-02
(PID.TID 0001.0001) %MON dynstat_uvel_del2            =   1.5740404175513E-03
(PID.TID 0001.0001) %MON dynstat_vvel_max             =   1.7398722821339E-01
(PID.TID 0001.0001) %MON dynstat_vvel_min             =  -2.2120530145528E-01
(PID.TID 0001.0001) %MON dynstat_vvel_mean            =  -3.4924451518236E-04
(PID.TID 0001.0001) %MON dynstat_vvel_sd              =   1.2643806960297E-02
(PID.TID 0001.0001) %MON dynstat_vvel_del2            =   1.6061627024405E-03
(PID.TID 0001.0001) %MON dynstat_wvel_max             =   1.0484983323149E-04
(PID.TID 0001.0001) %MON dynstat_wvel_min             =  -1.9472802761135E-04
(PID.TID 0001.0001) %MON dynstat_wvel_mean            =   1.4417379180256E-10
(PID.TID 0001.0001) %MON dynstat_wvel_sd              =   3.5097561437198E-06
(PID.TID 0001.0001) %MON dynstat_wvel_del2            =   8.4923494772212E-07
(PID.TID 0001.0001) %MON dynstat_theta_max            =   3.1473318393713E+01
(PID.TID 0001.0001) %MON dynstat_theta_min            =  -4.0774369309597E+00
(PID.TID 0001.0001) %MON dynstat_theta_mean           =   3.9130965162789E+00
(PID.TID 0001.0001) %MON dynstat_theta_sd             =   4.5899375218300E+00
(PID.TID 0001.0001) %MON dynstat_theta_del2           =   8.9741718940960E-02
(PID.TID 0001.0001) %MON dynstat_salt_max             =   4.1440218510006E+01
(PID.TID 0001.0001) %MON dynstat_salt_min             =   1.8419693454763E+01
(PID.TID 0001.0001) %MON dynstat_salt_mean            =   3.4772152623493E+01
(PID.TID 0001.0001) %MON dynstat_salt_sd              =   5.3111337054805E-01
(PID.TID 0001.0001) %MON dynstat_salt_del2            =   1.8972153041077E-02
(PID.TID 0001.0001) %MON dynstat_sst_max              =   3.1473318393713E+01
(PID.TID 0001.0001) %MON dynstat_sst_min              =  -1.9878964911046E+00
(PID.TID 0001.0001) %MON dynstat_sst_mean             =   1.8380756393974E+01
(PID.TID 0001.0001) %MON dynstat_sst_sd               =   1.0109360014409E+01
(PID.TID 0001.0001) %MON dynstat_sst_del2             =   2.0918563640192E-01
(PID.TID 0001.0001) %MON dynstat_sss_max              =   4.1440218510006E+01
(PID.TID 0001.0001) %MON dynstat_sss_min              =   1.8419693454763E+01
(PID.TID 0001.0001) %MON dynstat_sss_mean             =   3.4620803051256E+01
(PID.TID 0001.0001) %MON dynstat_sss_sd               =   1.4527982263132E+00
(PID.TID 0001.0001) %MON dynstat_sss_del2             =   8.0422967462823E-02
(PID.TID 0001.0001) %MON extforcing_qnet_max          =   2.5342277229945E+02
(PID.TID 0001.0001) %MON extforcing_qnet_min          =  -1.7656711198746E+02
(PID.TID 0001.0001) %MON extforcing_qnet_mean         =  -1.8143361238135E+00
(PID.TID 0001.0001) %MON extforcing_qnet_sd           =   5.4052047254176E+01
(PID.TID 0001.0001) %MON extforcing_qnet_del2         =   4.5378045658144E+00
(PID.TID 0001.0001) %MON extforcing_qsw_max           =   0.0000000000000E+00
(PID.TID 0001.0001) %MON extforcing_qsw_min           =   0.0000000000000E+00
(PID.TID 0001.0001) %MON extforcing_qsw_mean          =   0.0000000000000E+00
(PID.TID 0001.0001) %MON extforcing_qsw_sd            =   0.0000000000000E+00
(PID.TID 0001.0001) %MON extforcing_qsw_del2          =   0.0000000000000E+00
(PID.TID 0001.0001) %MON extforcing_empmr_max         =   7.6494447208479E-08
(PID.TID 0001.0001) %MON extforcing_empmr_min         =  -1.5362614137596E-07
(PID.TID 0001.0001) %MON extforcing_empmr_mean        =  -2.0474999028391E-24
(PID.TID 0001.0001) %MON extforcing_empmr_sd          =   2.4051723601802E-08
(PID.TID 0001.0001) %MON extforcing_empmr_del2        =   1.2835223797615E-09
(PID.TID 0001.0001) %MON extforcing_fu_max            =   2.6706450404949E-01
(PID.TID 0001.0001) %MON extforcing_fu_min            =  -3.2607923001326E-01
(PID.TID 0001.0001) %MON extforcing_fu_mean           =  -8.6071769245113E-03
(PID.TID 0001.0001) %MON extforcing_fu_sd             =   7.1806067594254E-02
(PID.TID 0001.0001) %MON extforcing_fu_del2           =   2.7582115406742E-03
(PID.TID 0001.0001) %MON extforcing_fv_max            =   2.0032899804423E-01
(PID.TID 0001.0001) %MON extforcing_fv_min            =  -3.2345796092531E-01
(PID.TID 0001.0001) %MON extforcing_fv_mean           =  -1.2841089834796E-02
(PID.TID 0001.0001) %MON extforcing_fv_sd             =   7.4606928517336E-02
(PID.TID 0001.0001) %MON extforcing_fv_del2           =   2.9525012713689E-03
(PID.TID 0001.0001) %MON advcfl_uvel_max              =   7.6223207497307E-02
(PID.TID 0001.0001) %MON advcfl_vvel_max              =   7.4461795414790E-02
(PID.TID 0001.0001) %MON advcfl_wvel_max              =   6.3488685228756E-02
(PID.TID 0001.0001) %MON advcfl_W_hf_max              =   7.8284363514236E-02
(PID.TID 0001.0001) %MON pe_b_mean                    =   4.8065143040394E-04
(PID.TID 0001.0001) %MON ke_max                       =   3.3573064096598E-02
(PID.TID 0001.0001) %MON ke_mean                      =   1.3885323994054E-04
(PID.TID 0001.0001) %MON ke_vol                       =   1.3398024453628E+18
(PID.TID 0001.0001) %MON vort_r_min                   =  -1.3161877177908E-06
(PID.TID 0001.0001) %MON vort_r_max                   =   1.3488430385267E-06
(PID.TID 0001.0001) %MON vort_a_mean                  =  -2.0493733748264E-05
(PID.TID 0001.0001) %MON vort_a_sd                    =   7.5053956822483E-05
(PID.TID 0001.0001) %MON vort_p_mean                  =  -2.4715770852104E-05
(PID.TID 0001.0001) %MON vort_p_sd                    =   1.2777068012736E-04
(PID.TID 0001.0001) %MON surfExpan_theta_mean         =   5.9408536857555E-08
(PID.TID 0001.0001) %MON surfExpan_salt_mean          =   1.6218941042941E-08
(PID.TID 0001.0001) // =======================================================
(PID.TID 0001.0001) // End MONITOR dynamic field statistics
(PID.TID 0001.0001) // =======================================================
 DRIVER_GET_EXPORT_STATE_3D:MASK. This code is stubbed!
 DRIVER_SET_IMPORT_STATE_3D:SWHEAT. This code is stubbed!
 cg2d: Sum(rhs),rhsMax =  -9.57811607804615E-12  1.35233103090898E+00
(PID.TID 0001.0001)                    cg2d_init_res =    1.14112231211423E-01
(PID.TID 0001.0001)                       cg2d_iters =    60
(PID.TID 0001.0001)                         cg2d_res =    5.62631197850998E-07
(PID.TID 0001.0001) // =======================================================
(PID.TID 0001.0001) // Begin MONITOR dynamic field statistics
(PID.TID 0001.0001) // =======================================================
(PID.TID 0001.0001) %MON time_tsnumber                =                 72092
(PID.TID 0001.0001) %MON time_secondsf                =   6.2287488000000E+09
(PID.TID 0001.0001) %MON dynstat_eta_max              =   8.9167299577776E-01
(PID.TID 0001.0001) %MON dynstat_eta_min              =  -1.6059055177975E+00
(PID.TID 0001.0001) %MON dynstat_eta_mean             =   1.4564971607082E-14
(PID.TID 0001.0001) %MON dynstat_eta_sd               =   6.0063163857052E-01
(PID.TID 0001.0001) %MON dynstat_eta_del2             =   1.1458222303598E-02
(PID.TID 0001.0001) %MON dynstat_uvel_max             =   1.9541808894666E-01
(PID.TID 0001.0001) %MON dynstat_uvel_min             =  -2.4522182960055E-01
(PID.TID 0001.0001) %MON dynstat_uvel_mean            =  -4.4021235736323E-04
(PID.TID 0001.0001) %MON dynstat_uvel_sd              =   1.1851014802916E-02
(PID.TID 0001.0001) %MON dynstat_uvel_del2            =   1.5739938907302E-03
(PID.TID 0001.0001) %MON dynstat_vvel_max             =   1.7545850206552E-01
(PID.TID 0001.0001) %MON dynstat_vvel_min             =  -2.2107457311575E-01
(PID.TID 0001.0001) %MON dynstat_vvel_mean            =  -3.4874517879126E-04
(PID.TID 0001.0001) %MON dynstat_vvel_sd              =   1.2640227641925E-02
(PID.TID 0001.0001) %MON dynstat_vvel_del2            =   1.6059818546896E-03
(PID.TID 0001.0001) %MON dynstat_wvel_max             =   1.0483751772840E-04
(PID.TID 0001.0001) %MON dynstat_wvel_min             =  -1.9465761871635E-04
(PID.TID 0001.0001) %MON dynstat_wvel_mean            =   1.3913166165207E-10
(PID.TID 0001.0001) %MON dynstat_wvel_sd              =   3.5096193793459E-06
(PID.TID 0001.0001) %MON dynstat_wvel_del2            =   8.4957457105657E-07
(PID.TID 0001.0001) %MON dynstat_theta_max            =   3.1470131002729E+01
(PID.TID 0001.0001) %MON dynstat_theta_min            =  -4.0663736853251E+00
(PID.TID 0001.0001) %MON dynstat_theta_mean           =   3.9130825227068E+00
(PID.TID 0001.0001) %MON dynstat_theta_sd             =   4.5900518674676E+00
(PID.TID 0001.0001) %MON dynstat_theta_del2           =   8.9732536710474E-02
(PID.TID 0001.0001) %MON dynstat_salt_max             =   4.1439492260232E+01
(PID.TID 0001.0001) %MON dynstat_salt_min             =   1.8419898734663E+01
(PID.TID 0001.0001) %MON dynstat_salt_mean            =   3.4772153887631E+01
(PID.TID 0001.0001) %MON dynstat_salt_sd              =   5.3110875394158E-01
(PID.TID 0001.0001) %MON dynstat_salt_del2            =   1.8969854511942E-02
(PID.TID 0001.0001) %MON dynstat_sst_max              =   3.1470131002729E+01
(PID.TID 0001.0001) %MON dynstat_sst_min              =  -1.9877349359372E+00
(PID.TID 0001.0001) %MON dynstat_sst_mean             =   1.8376652409681E+01
(PID.TID 0001.0001) %MON dynstat_sst_sd               =   1.0116983190869E+01
(PID.TID 0001.0001) %MON dynstat_sst_del2             =   2.0884863222871E-01
(PID.TID 0001.0001) %MON dynstat_sss_max              =   4.1439492260232E+01
(PID.TID 0001.0001) %MON dynstat_sss_min              =   1.8419898734663E+01
(PID.TID 0001.0001) %MON dynstat_sss_mean             =   3.4620785835995E+01
(PID.TID 0001.0001) %MON dynstat_sss_sd               =   1.4527589619195E+00
(PID.TID 0001.0001) %MON dynstat_sss_del2             =   8.0406739375776E-02
(PID.TID 0001.0001) %MON extforcing_qnet_max          =   2.4853005689956E+02
(PID.TID 0001.0001) %MON extforcing_qnet_min          =  -1.7602238438423E+02
(PID.TID 0001.0001) %MON extforcing_qnet_mean         =  -1.4286492252610E+00
(PID.TID 0001.0001) %MON extforcing_qnet_sd           =   5.4159515889524E+01
(PID.TID 0001.0001) %MON extforcing_qnet_del2         =   4.5334074301613E+00
(PID.TID 0001.0001) %MON extforcing_qsw_max           =   0.0000000000000E+00
(PID.TID 0001.0001) %MON extforcing_qsw_min           =   0.0000000000000E+00
(PID.TID 0001.0001) %MON extforcing_qsw_mean          =   0.0000000000000E+00
(PID.TID 0001.0001) %MON extforcing_qsw_sd            =   0.0000000000000E+00
(PID.TID 0001.0001) %MON extforcing_qsw_del2          =   0.0000000000000E+00
(PID.TID 0001.0001) %MON extforcing_empmr_max         =   7.6494447208479E-08
(PID.TID 0001.0001) %MON extforcing_empmr_min         =  -1.5362614137596E-07
(PID.TID 0001.0001) %MON extforcing_empmr_mean        =  -2.4569998834069E-24
(PID.TID 0001.0001) %MON extforcing_empmr_sd          =   2.4051723601802E-08
(PID.TID 0001.0001) %MON extforcing_empmr_del2        =   1.2835223797615E-09
(PID.TID 0001.0001) %MON extforcing_fu_max            =   2.6769332782265E-01
(PID.TID 0001.0001) %MON extforcing_fu_min            =  -3.2731331427123E-01
(PID.TID 0001.0001) %MON extforcing_fu_mean           =  -8.6070360511686E-03
(PID.TID 0001.0001) %MON extforcing_fu_sd             =   7.2014424344160E-02
(PID.TID 0001.0001) %MON extforcing_fu_del2           =   2.7610107547946E-03
(PID.TID 0001.0001) %MON extforcing_fv_max            =   2.0115014717268E-01
(PID.TID 0001.0001) %MON extforcing_fv_min            =  -3.2317382924317E-01
(PID.TID 0001.0001) %MON extforcing_fv_mean           =  -1.2853753518392E-02
(PID.TID 0001.0001) %MON extforcing_fv_sd             =   7.4411401397243E-02
(PID.TID 0001.0001) %MON extforcing_fv_del2           =   2.9424478402160E-03
(PID.TID 0001.0001) %MON advcfl_uvel_max              =   7.6220906630694E-02
(PID.TID 0001.0001) %MON advcfl_vvel_max              =   7.4301594874177E-02
(PID.TID 0001.0001) %MON advcfl_wvel_max              =   6.3465729272047E-02
(PID.TID 0001.0001) %MON advcfl_W_hf_max              =   7.8256036239879E-02
(PID.TID 0001.0001) %MON pe_b_mean                    =   4.8059680925116E-04
(PID.TID 0001.0001) %MON ke_max                       =   3.3515806376671E-02
(PID.TID 0001.0001) %MON ke_mean                      =   1.3879212893861E-04
(PID.TID 0001.0001) %MON ke_vol                       =   1.3398024453628E+18
(PID.TID 0001.0001) %MON vort_r_min                   =  -1.3156598622798E-06
(PID.TID 0001.0001) %MON vort_r_max                   =   1.3553439621074E-06
(PID.TID 0001.0001) %MON vort_a_mean                  =  -2.0493733748264E-05
(PID.TID 0001.0001) %MON vort_a_sd                    =   7.5053956960355E-05
(PID.TID 0001.0001) %MON vort_p_mean                  =  -2.4715770911080E-05
(PID.TID 0001.0001) %MON vort_p_sd                    =   1.2777067645860E-04
(PID.TID 0001.0001) %MON surfExpan_theta_mean         =   5.9993243882998E-08
(PID.TID 0001.0001) %MON surfExpan_salt_mean          =   1.6327270659650E-08
(PID.TID 0001.0001) // =======================================================
(PID.TID 0001.0001) // End MONITOR dynamic field statistics
(PID.TID 0001.0001) // =======================================================
 DRIVER_GET_EXPORT_STATE_3D:MASK. This code is stubbed!
 DRIVER_SET_IMPORT_STATE_3D:SWHEAT. This code is stubbed!
 cg2d: Sum(rhs),rhsMax =  -9.66338120633736E-12  1.35138562673365E+00
(PID.TID 0001.0001)                    cg2d_init_res =    1.13885304020441E-01
(PID.TID 0001.0001)                       cg2d_iters =    60
(PID.TID 0001.0001)                         cg2d_res =    5.80367999036770E-07
(PID.TID 0001.0001) // =======================================================
(PID.TID 0001.0001) // Begin MONITOR dynamic field statistics
(PID.TID 0001.0001) // =======================================================
(PID.TID 0001.0001) %MON time_tsnumber                =                 72093
(PID.TID 0001.0001) %MON time_secondsf                =   6.2288352000000E+09
(PID.TID 0001.0001) %MON dynstat_eta_max              =   8.9233688436303E-01
(PID.TID 0001.0001) %MON dynstat_eta_min              =  -1.6062021170666E+00
(PID.TID 0001.0001) %MON dynstat_eta_mean             =   1.4400085136058E-14
(PID.TID 0001.0001) %MON dynstat_eta_sd               =   6.0059596427922E-01
(PID.TID 0001.0001) %MON dynstat_eta_del2             =   1.1459854512958E-02
(PID.TID 0001.0001) %MON dynstat_uvel_max             =   1.9548433849985E-01
(PID.TID 0001.0001) %MON dynstat_uvel_min             =  -2.4493112678670E-01
(PID.TID 0001.0001) %MON dynstat_uvel_mean            =  -4.4008181877621E-04
(PID.TID 0001.0001) %MON dynstat_uvel_sd              =   1.1849089627202E-02
(PID.TID 0001.0001) %MON dynstat_uvel_del2            =   1.5738556625714E-03
(PID.TID 0001.0001) %MON dynstat_vvel_max             =   1.7689364485229E-01
(PID.TID 0001.0001) %MON dynstat_vvel_min             =  -2.2094043639035E-01
(PID.TID 0001.0001) %MON dynstat_vvel_mean            =  -3.4834103463046E-04
(PID.TID 0001.0001) %MON dynstat_vvel_sd              =   1.2636964714147E-02
(PID.TID 0001.0001) %MON dynstat_vvel_del2            =   1.6059172562979E-03
(PID.TID 0001.0001) %MON dynstat_wvel_max             =   1.0486735577405E-04
(PID.TID 0001.0001) %MON dynstat_wvel_min             =  -1.9458303157596E-04
(PID.TID 0001.0001) %MON dynstat_wvel_mean            =   1.2875014293764E-10
(PID.TID 0001.0001) %MON dynstat_wvel_sd              =   3.5095591956518E-06
(PID.TID 0001.0001) %MON dynstat_wvel_del2            =   8.4988813308874E-07
(PID.TID 0001.0001) %MON dynstat_theta_max            =   3.1465551525613E+01
(PID.TID 0001.0001) %MON dynstat_theta_min            =  -4.0546966051013E+00
(PID.TID 0001.0001) %MON dynstat_theta_mean           =   3.9130669474069E+00
(PID.TID 0001.0001) %MON dynstat_theta_sd             =   4.5901599170572E+00
(PID.TID 0001.0001) %MON dynstat_theta_del2           =   8.9719393140361E-02
(PID.TID 0001.0001) %MON dynstat_salt_max             =   4.1438666842009E+01
(PID.TID 0001.0001) %MON dynstat_salt_min             =   1.8420118296024E+01
(PID.TID 0001.0001) %MON dynstat_salt_mean            =   3.4772155163167E+01
(PID.TID 0001.0001) %MON dynstat_salt_sd              =   5.3110413425290E-01
(PID.TID 0001.0001) %MON dynstat_salt_del2            =   1.8967488746057E-02
(PID.TID 0001.0001) %MON dynstat_sst_max              =   3.1465551525613E+01
(PID.TID 0001.0001) %MON dynstat_sst_min              =  -1.9875770061279E+00
(PID.TID 0001.0001) %MON dynstat_sst_mean             =   1.8372383291322E+01
(PID.TID 0001.0001) %MON dynstat_sst_sd               =   1.0124603397767E+01
(PID.TID 0001.0001) %MON dynstat_sst_del2             =   2.0852190475152E-01
(PID.TID 0001.0001) %MON dynstat_sss_max              =   4.1438666842009E+01
(PID.TID 0001.0001) %MON dynstat_sss_min              =   1.8420118296024E+01
(PID.TID 0001.0001) %MON dynstat_sss_mean             =   3.4620765230391E+01
(PID.TID 0001.0001) %MON dynstat_sss_sd               =   1.4527210759541E+00
(PID.TID 0001.0001) %MON dynstat_sss_del2             =   8.0384491657579E-02
(PID.TID 0001.0001) %MON extforcing_qnet_max          =   2.4363734149966E+02
(PID.TID 0001.0001) %MON extforcing_qnet_min          =  -1.7547765678101E+02
(PID.TID 0001.0001) %MON extforcing_qnet_mean         =  -1.0429623267085E+00
(PID.TID 0001.0001) %MON extforcing_qnet_sd           =   5.4335284794861E+01
(PID.TID 0001.0001) %MON extforcing_qnet_del2         =   4.5313122077498E+00
(PID.TID 0001.0001) %MON extforcing_qsw_max           =   0.0000000000000E+00
(PID.TID 0001.0001) %MON extforcing_qsw_min           =   0.0000000000000E+00
(PID.TID 0001.0001) %MON extforcing_qsw_mean          =   0.0000000000000E+00
(PID.TID 0001.0001) %MON extforcing_qsw_sd            =   0.0000000000000E+00
(PID.TID 0001.0001) %MON extforcing_qsw_del2          =   0.0000000000000E+00
(PID.TID 0001.0001) %MON extforcing_empmr_max         =   7.6494447208479E-08
(PID.TID 0001.0001) %MON extforcing_empmr_min         =  -1.5362614137596E-07
(PID.TID 0001.0001) %MON extforcing_empmr_mean        =  -2.0474999028391E-24
(PID.TID 0001.0001) %MON extforcing_empmr_sd          =   2.4051723601802E-08
(PID.TID 0001.0001) %MON extforcing_empmr_del2        =   1.2835223797615E-09
(PID.TID 0001.0001) %MON extforcing_fu_max            =   2.6832215159580E-01
(PID.TID 0001.0001) %MON extforcing_fu_min            =  -3.2854739852919E-01
(PID.TID 0001.0001) %MON extforcing_fu_mean           =  -8.6068955458385E-03
(PID.TID 0001.0001) %MON extforcing_fu_sd             =   7.2240254329609E-02
(PID.TID 0001.0001) %MON extforcing_fu_del2           =   2.7673178651665E-03
(PID.TID 0001.0001) %MON extforcing_fv_max            =   2.0197129630113E-01
(PID.TID 0001.0001) %MON extforcing_fv_min            =  -3.2387646331316E-01
(PID.TID 0001.0001) %MON extforcing_fv_mean           =  -1.2866417138180E-02
(PID.TID 0001.0001) %MON extforcing_fv_sd             =   7.4242857352364E-02
(PID.TID 0001.0001) %MON extforcing_fv_del2           =   2.9372831662508E-03
(PID.TID 0001.0001) %MON advcfl_uvel_max              =   7.6217927957262E-02
(PID.TID 0001.0001) %MON advcfl_vvel_max              =   7.4132628935745E-02
(PID.TID 0001.0001) %MON advcfl_wvel_max              =   6.3441411049670E-02
(PID.TID 0001.0001) %MON advcfl_W_hf_max              =   7.8226027118695E-02
(PID.TID 0001.0001) %MON pe_b_mean                    =   4.8053972121147E-04
(PID.TID 0001.0001) %MON ke_max                       =   3.3457299491766E-02
(PID.TID 0001.0001) %MON ke_mean                      =   1.3873271719337E-04
(PID.TID 0001.0001) %MON ke_vol                       =   1.3398024453628E+18
(PID.TID 0001.0001) %MON vort_r_min                   =  -1.3150920303113E-06
(PID.TID 0001.0001) %MON vort_r_max                   =   1.3615625406865E-06
(PID.TID 0001.0001) %MON vort_a_mean                  =  -2.0493733748264E-05
(PID.TID 0001.0001) %MON vort_a_sd                    =   7.5053957102521E-05
(PID.TID 0001.0001) %MON vort_p_mean                  =  -2.4715770972515E-05
(PID.TID 0001.0001) %MON vort_p_sd                    =   1.2777067276958E-04
(PID.TID 0001.0001) %MON surfExpan_theta_mean         =   6.0557939567759E-08
(PID.TID 0001.0001) %MON surfExpan_salt_mean          =   1.6438368679603E-08
(PID.TID 0001.0001) // =======================================================
(PID.TID 0001.0001) // End MONITOR dynamic field statistics
(PID.TID 0001.0001) // =======================================================
 DRIVER_GET_EXPORT_STATE_3D:MASK. This code is stubbed!
 DRIVER_SET_IMPORT_STATE_3D:SWHEAT. This code is stubbed!
 cg2d: Sum(rhs),rhsMax =  -9.60653778747655E-12  1.35058314027657E+00
(PID.TID 0001.0001)                    cg2d_init_res =    1.13788066881675E-01
(PID.TID 0001.0001)                       cg2d_iters =    61
(PID.TID 0001.0001)                         cg2d_res =    5.16132685353722E-07
(PID.TID 0001.0001) // =======================================================
(PID.TID 0001.0001) // Begin MONITOR dynamic field statistics
(PID.TID 0001.0001) // =======================================================
(PID.TID 0001.0001) %MON time_tsnumber                =                 72094
(PID.TID 0001.0001) %MON time_secondsf                =   6.2289216000000E+09
(PID.TID 0001.0001) %MON dynstat_eta_max              =   8.9299356469833E-01
(PID.TID 0001.0001) %MON dynstat_eta_min              =  -1.6065083809642E+00
(PID.TID 0001.0001) %MON dynstat_eta_mean             =   1.4455047293066E-14
(PID.TID 0001.0001) %MON dynstat_eta_sd               =   6.0056129186407E-01
(PID.TID 0001.0001) %MON dynstat_eta_del2             =   1.1461411909272E-02
(PID.TID 0001.0001) %MON dynstat_uvel_max             =   1.9554130275327E-01
(PID.TID 0001.0001) %MON dynstat_uvel_min             =  -2.4463576062253E-01
(PID.TID 0001.0001) %MON dynstat_uvel_mean            =  -4.3995871177566E-04
(PID.TID 0001.0001) %MON dynstat_uvel_sd              =   1.1847022192016E-02
(PID.TID 0001.0001) %MON dynstat_uvel_del2            =   1.5736650479851E-03
(PID.TID 0001.0001) %MON dynstat_vvel_max             =   1.7828439585491E-01
(PID.TID 0001.0001) %MON dynstat_vvel_min             =  -2.2080291994246E-01
(PID.TID 0001.0001) %MON dynstat_vvel_mean            =  -3.4803260170166E-04
(PID.TID 0001.0001) %MON dynstat_vvel_sd              =   1.2634072860186E-02
(PID.TID 0001.0001) %MON dynstat_vvel_del2            =   1.6059737603137E-03
(PID.TID 0001.0001) %MON dynstat_wvel_max             =   1.0493901406184E-04
(PID.TID 0001.0001) %MON dynstat_wvel_min             =  -1.9450200021013E-04
(PID.TID 0001.0001) %MON dynstat_wvel_mean            =   1.1359924720188E-10
(PID.TID 0001.0001) %MON dynstat_wvel_sd              =   3.5096120866742E-06
(PID.TID 0001.0001) %MON dynstat_wvel_del2            =   8.5012566416370E-07
(PID.TID 0001.0001) %MON dynstat_theta_max            =   3.1459601114286E+01
(PID.TID 0001.0001) %MON dynstat_theta_min            =  -4.0424057749145E+00
(PID.TID 0001.0001) %MON dynstat_theta_mean           =   3.9130498909312E+00
(PID.TID 0001.0001) %MON dynstat_theta_sd             =   4.5902618297641E+00
(PID.TID 0001.0001) %MON dynstat_theta_del2           =   8.9702586101966E-02
(PID.TID 0001.0001) %MON dynstat_salt_max             =   4.1437742105026E+01
(PID.TID 0001.0001) %MON dynstat_salt_min             =   1.8420351653106E+01
(PID.TID 0001.0001) %MON dynstat_salt_mean            =   3.4772156450270E+01
(PID.TID 0001.0001) %MON dynstat_salt_sd              =   5.3109951822907E-01
(PID.TID 0001.0001) %MON dynstat_salt_del2            =   1.8966111330063E-02
(PID.TID 0001.0001) %MON dynstat_sst_max              =   3.1459601114286E+01
(PID.TID 0001.0001) %MON dynstat_sst_min              =  -1.9874218408686E+00
(PID.TID 0001.0001) %MON dynstat_sst_mean             =   1.8367930720065E+01
(PID.TID 0001.0001) %MON dynstat_sst_sd               =   1.0132225288074E+01
(PID.TID 0001.0001) %MON dynstat_sst_del2             =   2.0815524989709E-01
(PID.TID 0001.0001) %MON dynstat_sss_max              =   4.1437742105026E+01
(PID.TID 0001.0001) %MON dynstat_sss_min              =   1.8420351653106E+01
(PID.TID 0001.0001) %MON dynstat_sss_mean             =   3.4620738718389E+01
(PID.TID 0001.0001) %MON dynstat_sss_sd               =   1.4526808593362E+00
(PID.TID 0001.0001) %MON dynstat_sss_del2             =   8.0364253773481E-02
(PID.TID 0001.0001) %MON extforcing_qnet_max          =   2.3874462609976E+02
(PID.TID 0001.0001) %MON extforcing_qnet_min          =  -1.7493292917778E+02
(PID.TID 0001.0001) %MON extforcing_qnet_mean         =  -6.5727542815606E-01
(PID.TID 0001.0001) %MON extforcing_qnet_sd           =   5.4578694097795E+01
(PID.TID 0001.0001) %MON extforcing_qnet_del2         =   4.5310026249788E+00
(PID.TID 0001.0001) %MON extforcing_qsw_max           =   0.0000000000000E+00
(PID.TID 0001.0001) %MON extforcing_qsw_min           =   0.0000000000000E+00
(PID.TID 0001.0001) %MON extforcing_qsw_mean          =   0.0000000000000E+00
(PID.TID 0001.0001) %MON extforcing_qsw_sd            =   0.0000000000000E+00
(PID.TID 0001.0001) %MON extforcing_qsw_del2          =   0.0000000000000E+00
(PID.TID 0001.0001) %MON extforcing_empmr_max         =   7.6494447208479E-08
(PID.TID 0001.0001) %MON extforcing_empmr_min         =  -1.5362614137596E-07
(PID.TID 0001.0001) %MON extforcing_empmr_mean        =  -2.0474999028391E-24
(PID.TID 0001.0001) %MON extforcing_empmr_sd          =   2.4051723601802E-08
(PID.TID 0001.0001) %MON extforcing_empmr_del2        =   1.2835223797615E-09
(PID.TID 0001.0001) %MON extforcing_fu_max            =   2.6895097536896E-01
(PID.TID 0001.0001) %MON extforcing_fu_min            =  -3.2978148278715E-01
(PID.TID 0001.0001) %MON extforcing_fu_mean           =  -8.6067551555958E-03
(PID.TID 0001.0001) %MON extforcing_fu_sd             =   7.2483394498808E-02
(PID.TID 0001.0001) %MON extforcing_fu_del2           =   2.7771943241961E-03
(PID.TID 0001.0001) %MON extforcing_fv_max            =   2.0279244542958E-01
(PID.TID 0001.0001) %MON extforcing_fv_min            =  -3.2457909738316E-01
(PID.TID 0001.0001) %MON extforcing_fv_mean           =  -1.2879080703803E-02
(PID.TID 0001.0001) %MON extforcing_fv_sd             =   7.4101480620202E-02
(PID.TID 0001.0001) %MON extforcing_fv_del2           =   2.9357218230127E-03
(PID.TID 0001.0001) %MON advcfl_uvel_max              =   7.6215909608853E-02
(PID.TID 0001.0001) %MON advcfl_vvel_max              =   7.4595151488779E-02
(PID.TID 0001.0001) %MON advcfl_wvel_max              =   6.3414991766624E-02
(PID.TID 0001.0001) %MON advcfl_W_hf_max              =   7.8193425684658E-02
(PID.TID 0001.0001) %MON pe_b_mean                    =   4.8048423968057E-04
(PID.TID 0001.0001) %MON ke_max                       =   3.3397528428013E-02
(PID.TID 0001.0001) %MON ke_mean                      =   1.3867615441686E-04
(PID.TID 0001.0001) %MON ke_vol                       =   1.3398024453628E+18
(PID.TID 0001.0001) %MON vort_r_min                   =  -1.3144747575477E-06
(PID.TID 0001.0001) %MON vort_r_max                   =   1.3674893189592E-06
(PID.TID 0001.0001) %MON vort_a_mean                  =  -2.0493733748264E-05
(PID.TID 0001.0001) %MON vort_a_sd                    =   7.5053957249885E-05
(PID.TID 0001.0001) %MON vort_p_mean                  =  -2.4715771035142E-05
(PID.TID 0001.0001) %MON vort_p_sd                    =   1.2777066920388E-04
(PID.TID 0001.0001) %MON surfExpan_theta_mean         =   6.1088907069491E-08
(PID.TID 0001.0001) %MON surfExpan_salt_mean          =   1.6549473286343E-08
(PID.TID 0001.0001) // =======================================================
(PID.TID 0001.0001) // End MONITOR dynamic field statistics
(PID.TID 0001.0001) // =======================================================
 DRIVER_GET_EXPORT_STATE_3D:MASK. This code is stubbed!
 DRIVER_SET_IMPORT_STATE_3D:SWHEAT. This code is stubbed!
 cg2d: Sum(rhs),rhsMax =  -9.89075488178059E-12  1.34990858564396E+00
(PID.TID 0001.0001)                    cg2d_init_res =    1.13890719069217E-01
(PID.TID 0001.0001)                       cg2d_iters =    61
(PID.TID 0001.0001)                         cg2d_res =    5.18292373286077E-07
(PID.TID 0001.0001) // =======================================================
(PID.TID 0001.0001) // Begin MONITOR dynamic field statistics
(PID.TID 0001.0001) // =======================================================
(PID.TID 0001.0001) %MON time_tsnumber                =                 72095
(PID.TID 0001.0001) %MON time_secondsf                =   6.2290080000000E+09
(PID.TID 0001.0001) %MON dynstat_eta_max              =   8.9364696075929E-01
(PID.TID 0001.0001) %MON dynstat_eta_min              =  -1.6068199408253E+00
(PID.TID 0001.0001) %MON dynstat_eta_mean             =   1.4564971607082E-14
(PID.TID 0001.0001) %MON dynstat_eta_sd               =   6.0053003689053E-01
(PID.TID 0001.0001) %MON dynstat_eta_del2             =   1.1462810824560E-02
(PID.TID 0001.0001) %MON dynstat_uvel_max             =   1.9559027351853E-01
(PID.TID 0001.0001) %MON dynstat_uvel_min             =  -2.4433573845894E-01
(PID.TID 0001.0001) %MON dynstat_uvel_mean            =  -4.3983456975595E-04
(PID.TID 0001.0001) %MON dynstat_uvel_sd              =   1.1844862682482E-02
(PID.TID 0001.0001) %MON dynstat_uvel_del2            =   1.5734134051729E-03
(PID.TID 0001.0001) %MON dynstat_vvel_max             =   1.7962297701542E-01
(PID.TID 0001.0001) %MON dynstat_vvel_min             =  -2.2066203014164E-01
(PID.TID 0001.0001) %MON dynstat_vvel_mean            =  -3.4781871359097E-04
(PID.TID 0001.0001) %MON dynstat_vvel_sd              =   1.2631599589095E-02
(PID.TID 0001.0001) %MON dynstat_vvel_del2            =   1.6060458926113E-03
(PID.TID 0001.0001) %MON dynstat_wvel_max             =   1.0505139807385E-04
(PID.TID 0001.0001) %MON dynstat_wvel_min             =  -1.9441248583829E-04
(PID.TID 0001.0001) %MON dynstat_wvel_mean            =   9.4760587911622E-11
(PID.TID 0001.0001) %MON dynstat_wvel_sd              =   3.5098442725476E-06
(PID.TID 0001.0001) %MON dynstat_wvel_del2            =   8.5033141221997E-07
(PID.TID 0001.0001) %MON dynstat_theta_max            =   3.1452301836297E+01
(PID.TID 0001.0001) %MON dynstat_theta_min            =  -4.0295011721915E+00
(PID.TID 0001.0001) %MON dynstat_theta_mean           =   3.9130313450647E+00
(PID.TID 0001.0001) %MON dynstat_theta_sd             =   4.5903579587344E+00
(PID.TID 0001.0001) %MON dynstat_theta_del2           =   8.9681732369522E-02
(PID.TID 0001.0001) %MON dynstat_salt_max             =   4.1436717769337E+01
(PID.TID 0001.0001) %MON dynstat_salt_min             =   1.8420598249988E+01
(PID.TID 0001.0001) %MON dynstat_salt_mean            =   3.4772157749223E+01
(PID.TID 0001.0001) %MON dynstat_salt_sd              =   5.3109492117946E-01
(PID.TID 0001.0001) %MON dynstat_salt_del2            =   1.8963897602226E-02
(PID.TID 0001.0001) %MON dynstat_sst_max              =   3.1452301836297E+01
(PID.TID 0001.0001) %MON dynstat_sst_min              =  -1.9871803086925E+00
(PID.TID 0001.0001) %MON dynstat_sst_mean             =   1.8363336258353E+01
(PID.TID 0001.0001) %MON dynstat_sst_sd               =   1.0139845371841E+01
(PID.TID 0001.0001) %MON dynstat_sst_del2             =   2.0780635073899E-01
(PID.TID 0001.0001) %MON dynstat_sss_max              =   4.1436717769337E+01
(PID.TID 0001.0001) %MON dynstat_sss_min              =   1.8420598249988E+01
(PID.TID 0001.0001) %MON dynstat_sss_mean             =   3.4620711689230E+01
(PID.TID 0001.0001) %MON dynstat_sss_sd               =   1.4526433946051E+00
(PID.TID 0001.0001) %MON dynstat_sss_del2             =   8.0342507572603E-02
(PID.TID 0001.0001) %MON extforcing_qnet_max          =   2.3385191069986E+02
(PID.TID 0001.0001) %MON extforcing_qnet_min          =  -1.7438820157456E+02
(PID.TID 0001.0001) %MON extforcing_qnet_mean         =  -2.7158852960355E-01
(PID.TID 0001.0001) %MON extforcing_qnet_sd           =   5.4888843934207E+01
(PID.TID 0001.0001) %MON extforcing_qnet_del2         =   4.5333443369964E+00
(PID.TID 0001.0001) %MON extforcing_qsw_max           =   0.0000000000000E+00
(PID.TID 0001.0001) %MON extforcing_qsw_min           =   0.0000000000000E+00
(PID.TID 0001.0001) %MON extforcing_qsw_mean          =   0.0000000000000E+00
(PID.TID 0001.0001) %MON extforcing_qsw_sd            =   0.0000000000000E+00
(PID.TID 0001.0001) %MON extforcing_qsw_del2          =   0.0000000000000E+00
(PID.TID 0001.0001) %MON extforcing_empmr_max         =   7.6494447208479E-08
(PID.TID 0001.0001) %MON extforcing_empmr_min         =  -1.5362614137596E-07
(PID.TID 0001.0001) %MON extforcing_empmr_mean        =  -1.2284999417034E-24
(PID.TID 0001.0001) %MON extforcing_empmr_sd          =   2.4051723601802E-08
(PID.TID 0001.0001) %MON extforcing_empmr_del2        =   1.2835223797615E-09
(PID.TID 0001.0001) %MON extforcing_fu_max            =   2.6957979914211E-01
(PID.TID 0001.0001) %MON extforcing_fu_min            =  -3.3101556704511E-01
(PID.TID 0001.0001) %MON extforcing_fu_mean           =  -8.6066146189868E-03
(PID.TID 0001.0001) %MON extforcing_fu_sd             =   7.2743671520989E-02
(PID.TID 0001.0001) %MON extforcing_fu_del2           =   2.7911811068245E-03
(PID.TID 0001.0001) %MON extforcing_fv_max            =   2.0361359455802E-01
(PID.TID 0001.0001) %MON extforcing_fv_min            =  -3.2528173145315E-01
(PID.TID 0001.0001) %MON extforcing_fv_mean           =  -1.2891744192518E-02
(PID.TID 0001.0001) %MON extforcing_fv_sd             =   7.3987427048056E-02
(PID.TID 0001.0001) %MON extforcing_fv_del2           =   2.9375453250759E-03
(PID.TID 0001.0001) %MON advcfl_uvel_max              =   7.6216409994656E-02
(PID.TID 0001.0001) %MON advcfl_vvel_max              =   7.5210513945289E-02
(PID.TID 0001.0001) %MON advcfl_wvel_max              =   6.3385806703502E-02
(PID.TID 0001.0001) %MON advcfl_W_hf_max              =   7.8157412911777E-02
(PID.TID 0001.0001) %MON pe_b_mean                    =   4.8043422935980E-04
(PID.TID 0001.0001) %MON ke_max                       =   3.3336484214245E-02
(PID.TID 0001.0001) %MON ke_mean                      =   1.3862353757633E-04
(PID.TID 0001.0001) %MON ke_vol                       =   1.3398024453628E+18
(PID.TID 0001.0001) %MON vort_r_min                   =  -1.3137988573413E-06
(PID.TID 0001.0001) %MON vort_r_max                   =   1.3731108165055E-06
(PID.TID 0001.0001) %MON vort_a_mean                  =  -2.0493733748264E-05
(PID.TID 0001.0001) %MON vort_a_sd                    =   7.5053957403062E-05
(PID.TID 0001.0001) %MON vort_p_mean                  =  -2.4715771097653E-05
(PID.TID 0001.0001) %MON vort_p_sd                    =   1.2777066588542E-04
(PID.TID 0001.0001) %MON surfExpan_theta_mean         =   6.1578029002421E-08
(PID.TID 0001.0001) %MON surfExpan_salt_mean          =   1.6656126889449E-08
(PID.TID 0001.0001) // =======================================================
(PID.TID 0001.0001) // End MONITOR dynamic field statistics
(PID.TID 0001.0001) // =======================================================
 DRIVER_GET_EXPORT_STATE_3D:MASK. This code is stubbed!
 DRIVER_SET_IMPORT_STATE_3D:SWHEAT. This code is stubbed!
 cg2d: Sum(rhs),rhsMax =  -9.77706804405898E-12  1.34934474207493E+00
(PID.TID 0001.0001)                    cg2d_init_res =    1.14009928930234E-01
(PID.TID 0001.0001)                       cg2d_iters =    61
(PID.TID 0001.0001)                         cg2d_res =    5.15991152872856E-07
(PID.TID 0001.0001) // =======================================================
(PID.TID 0001.0001) // Begin MONITOR dynamic field statistics
(PID.TID 0001.0001) // =======================================================
(PID.TID 0001.0001) %MON time_tsnumber                =                 72096
(PID.TID 0001.0001) %MON time_secondsf                =   6.2290944000000E+09
(PID.TID 0001.0001) %MON dynstat_eta_max              =   8.9430034087709E-01
(PID.TID 0001.0001) %MON dynstat_eta_min              =  -1.6071324016658E+00
(PID.TID 0001.0001) %MON dynstat_eta_mean             =   1.4372604057554E-14
(PID.TID 0001.0001) %MON dynstat_eta_sd               =   6.0050431073816E-01
(PID.TID 0001.0001) %MON dynstat_eta_del2             =   1.1463947257339E-02
(PID.TID 0001.0001) %MON dynstat_uvel_max             =   1.9563252435553E-01
(PID.TID 0001.0001) %MON dynstat_uvel_min             =  -2.4403108703395E-01
(PID.TID 0001.0001) %MON dynstat_uvel_mean            =  -4.3970275508515E-04
(PID.TID 0001.0001) %MON dynstat_uvel_sd              =   1.1842663692395E-02
(PID.TID 0001.0001) %MON dynstat_uvel_del2            =   1.5731716992368E-03
(PID.TID 0001.0001) %MON dynstat_vvel_max             =   1.8090213573934E-01
(PID.TID 0001.0001) %MON dynstat_vvel_min             =  -2.2051775152488E-01
(PID.TID 0001.0001) %MON dynstat_vvel_mean            =  -3.4769627480215E-04
(PID.TID 0001.0001) %MON dynstat_vvel_sd              =   1.2629583369519E-02
(PID.TID 0001.0001) %MON dynstat_vvel_del2            =   1.6061884809136E-03
(PID.TID 0001.0001) %MON dynstat_wvel_max             =   1.0520269834320E-04
(PID.TID 0001.0001) %MON dynstat_wvel_min             =  -1.9431279161906E-04
(PID.TID 0001.0001) %MON dynstat_wvel_mean            =   7.3097804755262E-11
(PID.TID 0001.0001) %MON dynstat_wvel_sd              =   3.5102719234534E-06
(PID.TID 0001.0001) %MON dynstat_wvel_del2            =   8.5054116415914E-07
(PID.TID 0001.0001) %MON dynstat_theta_max            =   3.1448594203144E+01
(PID.TID 0001.0001) %MON dynstat_theta_min            =  -4.0159825221391E+00
(PID.TID 0001.0001) %MON dynstat_theta_mean           =   3.9130115443953E+00
(PID.TID 0001.0001) %MON dynstat_theta_sd             =   4.5904482332272E+00
(PID.TID 0001.0001) %MON dynstat_theta_del2           =   8.9656423768675E-02
(PID.TID 0001.0001) %MON dynstat_salt_max             =   4.1435593518745E+01
(PID.TID 0001.0001) %MON dynstat_salt_min             =   1.8420857462967E+01
(PID.TID 0001.0001) %MON dynstat_salt_mean            =   3.4772159060190E+01
(PID.TID 0001.0001) %MON dynstat_salt_sd              =   5.3109032029070E-01
(PID.TID 0001.0001) %MON dynstat_salt_del2            =   1.8960921235892E-02
(PID.TID 0001.0001) %MON dynstat_sst_max              =   3.1448594203144E+01
(PID.TID 0001.0001) %MON dynstat_sst_min              =  -1.9866538543058E+00
(PID.TID 0001.0001) %MON dynstat_sst_mean             =   1.8358588949835E+01
(PID.TID 0001.0001) %MON dynstat_sst_sd               =   1.0147444393524E+01
(PID.TID 0001.0001) %MON dynstat_sst_del2             =   2.0742595459106E-01
(PID.TID 0001.0001) %MON dynstat_sss_max              =   4.1435593518745E+01
(PID.TID 0001.0001) %MON dynstat_sss_min              =   1.8420857462967E+01
(PID.TID 0001.0001) %MON dynstat_sss_mean             =   3.4620679031176E+01
(PID.TID 0001.0001) %MON dynstat_sss_sd               =   1.4526068164133E+00
(PID.TID 0001.0001) %MON dynstat_sss_del2             =   8.0318182505661E-02
(PID.TID 0001.0001) %MON extforcing_qnet_max          =   2.2895919529996E+02
(PID.TID 0001.0001) %MON extforcing_qnet_min          =  -1.7384347397133E+02
(PID.TID 0001.0001) %MON extforcing_qnet_mean         =   1.1409836894895E-01
(PID.TID 0001.0001) %MON extforcing_qnet_sd           =   5.5264610654359E+01
(PID.TID 0001.0001) %MON extforcing_qnet_del2         =   4.5378080653225E+00
(PID.TID 0001.0001) %MON extforcing_qsw_max           =   0.0000000000000E+00
(PID.TID 0001.0001) %MON extforcing_qsw_min           =   0.0000000000000E+00
(PID.TID 0001.0001) %MON extforcing_qsw_mean          =   0.0000000000000E+00
(PID.TID 0001.0001) %MON extforcing_qsw_sd            =   0.0000000000000E+00
(PID.TID 0001.0001) %MON extforcing_qsw_del2          =   0.0000000000000E+00
(PID.TID 0001.0001) %MON extforcing_empmr_max         =   7.6494447208479E-08
(PID.TID 0001.0001) %MON extforcing_empmr_min         =  -1.5362614137596E-07
(PID.TID 0001.0001) %MON extforcing_empmr_mean        =  -2.0474999028391E-24
(PID.TID 0001.0001) %MON extforcing_empmr_sd          =   2.4051723601802E-08
(PID.TID 0001.0001) %MON extforcing_empmr_del2        =   1.2835223797615E-09
(PID.TID 0001.0001) %MON extforcing_fu_max            =   2.7020862291527E-01
(PID.TID 0001.0001) %MON extforcing_fu_min            =  -3.3224965130307E-01
(PID.TID 0001.0001) %MON extforcing_fu_mean           =  -8.6064736624294E-03
(PID.TID 0001.0001) %MON extforcing_fu_sd             =   7.3020902349075E-02
(PID.TID 0001.0001) %MON extforcing_fu_del2           =   2.8094019238123E-03
(PID.TID 0001.0001) %MON extforcing_fv_max            =   2.0443474368647E-01
(PID.TID 0001.0001) %MON extforcing_fv_min            =  -3.2598436552315E-01
(PID.TID 0001.0001) %MON extforcing_fv_mean           =  -1.2904407538520E-02
(PID.TID 0001.0001) %MON extforcing_fv_sd             =   7.3900823234080E-02
(PID.TID 0001.0001) %MON extforcing_fv_del2           =   2.9449391755276E-03
(PID.TID 0001.0001) %MON advcfl_uvel_max              =   7.6220890322808E-02
(PID.TID 0001.0001) %MON advcfl_vvel_max              =   7.5821630867067E-02
(PID.TID 0001.0001) %MON advcfl_wvel_max              =   6.3353302625989E-02
(PID.TID 0001.0001) %MON advcfl_W_hf_max              =   7.8117307295469E-02
(PID.TID 0001.0001) %MON pe_b_mean                    =   4.8039306752380E-04
(PID.TID 0001.0001) %MON ke_max                       =   3.3274164533205E-02
(PID.TID 0001.0001) %MON ke_mean                      =   1.3857588363771E-04
(PID.TID 0001.0001) %MON ke_vol                       =   1.3398024453628E+18
(PID.TID 0001.0001) %MON vort_r_min                   =  -1.3130555335134E-06
(PID.TID 0001.0001) %MON vort_r_max                   =   1.3784237096687E-06
(PID.TID 0001.0001) %MON vort_a_mean                  =  -2.0493733748264E-05
(PID.TID 0001.0001) %MON vort_a_sd                    =   7.5053957562356E-05
(PID.TID 0001.0001) %MON vort_p_mean                  =  -2.4715771158924E-05
(PID.TID 0001.0001) %MON vort_p_sd                    =   1.2777066292570E-04
(PID.TID 0001.0001) %MON surfExpan_theta_mean         =   6.2016379265559E-08
(PID.TID 0001.0001) %MON surfExpan_salt_mean          =   1.6754328221757E-08
(PID.TID 0001.0001) // =======================================================
(PID.TID 0001.0001) // End MONITOR dynamic field statistics
(PID.TID 0001.0001) // =======================================================
 DRIVER_GET_EXPORT_STATE_3D:MASK. This code is stubbed!
