(PID.TID 0000.0001) 
(PID.TID 0000.0001) // ======================================================
(PID.TID 0000.0001) //                      MITgcm UV
(PID.TID 0000.0001) //                      =========
(PID.TID 0000.0001) // ======================================================
(PID.TID 0000.0001) // execution environment starting up...
(PID.TID 0000.0001) 
(PID.TID 0000.0001) // MITgcmUV version:  checkpoint66l
(PID.TID 0000.0001) // Build user:        estrobac
(PID.TID 0000.0001) // Build host:        borgs159
(PID.TID 0000.0001) // Build date:        Thu Oct 26 10:10:34 EDT 2017
(PID.TID 0000.0001) 
(PID.TID 0000.0001) // =======================================================
(PID.TID 0000.0001) // Execution Environment parameter file "eedata"
(PID.TID 0000.0001) // =======================================================
(PID.TID 0000.0001) ># Example "eedata" file
(PID.TID 0000.0001) ># Lines beginning "#" are comments
(PID.TID 0000.0001) ># nTx - No. threads per process in X
(PID.TID 0000.0001) ># nTy - No. threads per process in Y
(PID.TID 0000.0001) > &EEPARMS
(PID.TID 0000.0001) > useCubedSphereExchange=.TRUE.,
(PID.TID 0000.0001) > nTx=1,
(PID.TID 0000.0001) > nTy=1,
(PID.TID 0000.0001) > &
(PID.TID 0000.0001) 
(PID.TID 0000.0001) // =======================================================
(PID.TID 0000.0001) // Computational Grid Specification ( see files "SIZE.h" )
(PID.TID 0000.0001) //                                  ( and "eedata"       )
(PID.TID 0000.0001) // =======================================================
(PID.TID 0000.0001)      nPx =  360 ; /* No. processes in X */
(PID.TID 0000.0001)      nPy =    1 ; /* No. processes in Y */
(PID.TID 0000.0001)      nSx =    1 ; /* No. tiles in X per process */
(PID.TID 0000.0001)      nSy =    1 ; /* No. tiles in Y per process */
(PID.TID 0000.0001)      sNx =   15 ; /* Tile size in X */
(PID.TID 0000.0001)      sNy =   15 ; /* Tile size in Y */
(PID.TID 0000.0001)      OLx =    4 ; /* Tile overlap distance in X */
(PID.TID 0000.0001)      OLy =    4 ; /* Tile overlap distance in Y */
(PID.TID 0000.0001)      nTx =    1 ; /* No. threads in X per process */
(PID.TID 0000.0001)      nTy =    1 ; /* No. threads in Y per process */
(PID.TID 0000.0001)       Nr =   50 ; /* No. levels in the vertical   */
(PID.TID 0000.0001)       Nx = 5400 ; /* Total domain size in X ( = nPx*nSx*sNx ) */
(PID.TID 0000.0001)       Ny =   15 ; /* Total domain size in Y ( = nPy*nSy*sNy ) */
(PID.TID 0000.0001)   nTiles =    1 ; /* Total no. tiles per process ( = nSx*nSy ) */
(PID.TID 0000.0001)   nProcs =  360 ; /* Total no. processes ( = nPx*nPy ) */
(PID.TID 0000.0001) nThreads =    1 ; /* Total no. threads per process ( = nTx*nTy ) */
(PID.TID 0000.0001) usingMPI =    T ; /* Flag used to control whether MPI is in use */
(PID.TID 0000.0001)                   /*  note: To execute a program with MPI calls */
(PID.TID 0000.0001)                   /*  it must be launched appropriately e.g     */
(PID.TID 0000.0001)                   /*  "mpirun -np 64 ......"                    */
(PID.TID 0000.0001) useCoupler=    F ;/* Flag used to control communications with   */
(PID.TID 0000.0001)                   /*  other model components, through a coupler */
(PID.TID 0000.0001) debugMode =    F ; /* print debug msg. (sequence of S/R calls)  */
(PID.TID 0000.0001) printMapIncludesZeros=    F ; /* print zeros in Std.Output maps */
(PID.TID 0000.0001) maxLengthPrt1D=   65 /* maxLength of 1D array printed to StdOut */
(PID.TID 0000.0001) 
(PID.TID 0000.0001) ======= Starting MPI parallel Run =========
(PID.TID 0000.0001)  My Processor Name (len:  8 ) = borgu110
(PID.TID 0000.0001)  Located at (  0,  0) on processor grid (0:359,0:  0)
(PID.TID 0000.0001)  Origin at  (     1,     1) on global grid (1:  5400,1:    15)
(PID.TID 0000.0001)  North neighbor = processor 0000
(PID.TID 0000.0001)  South neighbor = processor 0000
(PID.TID 0000.0001)   East neighbor = processor 0001
(PID.TID 0000.0001)   West neighbor = processor 0359
(PID.TID 0000.0001) // ======================================================
(PID.TID 0000.0001) // Mapping of tiles to threads
(PID.TID 0000.0001) // ======================================================
(PID.TID 0000.0001) // -o- Thread   1, tiles (   1:   1,   1:   1)
(PID.TID 0000.0001) 
(PID.TID 0000.0001) W2_READPARMS: opening data.exch2
(PID.TID 0000.0001)  OPEN_COPY_DATA_FILE: opening file data.exch2
(PID.TID 0000.0001) // =======================================================
(PID.TID 0000.0001) // Parameter file "data.exch2"
(PID.TID 0000.0001) // =======================================================
(PID.TID 0000.0001) ># EXCH2 Package: Wrapper-2 User Choice
(PID.TID 0000.0001) >#--------------------
(PID.TID 0000.0001) >#  preDefTopol   :: pre-defined Topology selector:
(PID.TID 0000.0001) >#                :: = 0 : topology defined from processing "data.exch2";
(PID.TID 0000.0001) >#                :: = 1 : simple, single facet topology;
(PID.TID 0000.0001) >#                :: = 2 : customized topology (w2_set_myown_facets)
(PID.TID 0000.0001) >#                :: = 3 : 6-facet Cube (3 face-dims: nRed, nGreen, nBlue).
(PID.TID 0000.0001) >#  dimsFacets    :: facet pair of dimensions (n1x,n1y, n2x,n2y ...)
(PID.TID 0000.0001) >#  facetEdgeLink :: Face-Edge connectivity map:
(PID.TID 0000.0001) >#    facetEdgeLink(i,j)=XX.1 : face(j)-edge(i) (i=1,2,3,4 <==> N,S,E,W)
(PID.TID 0000.0001) >#    is connected to Northern edge of face "XX" ; similarly,
(PID.TID 0000.0001) >#    = XX.2 : to Southern.E, XX.3 = Eastern.E, XX.4 = Western.E of face "XX"
(PID.TID 0000.0001) >#  blankList     :: List of "blank" tiles
(PID.TID 0000.0001) >#  W2_mapIO      :: global map IO selector (-1 = old type ; 0 = 1 long line in X
(PID.TID 0000.0001) >#                :: 1 = compact, mostly in Y dir)
(PID.TID 0000.0001) >#  W2_printMsg   :: option for information messages printing
(PID.TID 0000.0001) >#                :: <0 : write to log file ; =0 : minimum print ;
(PID.TID 0000.0001) >#                :: =1 : no duplicated print ; =2 : all processes do print
(PID.TID 0000.0001) >#--------------------
(PID.TID 0000.0001) > &W2_EXCH2_PARM01
(PID.TID 0000.0001) ># W2_printMsg= 0,
(PID.TID 0000.0001) >  W2_mapIO   = 1,
(PID.TID 0000.0001) >#
(PID.TID 0000.0001) >  preDefTopol=0,
(PID.TID 0000.0001) >#-- 5 facets llc_120 topology (drop facet 6 and its connection):
(PID.TID 0000.0001) >  dimsFacets(1:10) = 90, 270, 90, 270, 90, 90, 270, 90, 270, 90,
(PID.TID 0000.0001) >  facetEdgeLink(1:4,1)= 3.4, 0. , 2.4, 5.1,
(PID.TID 0000.0001) >  facetEdgeLink(1:4,2)= 3.2, 0. , 4.2, 1.3,
(PID.TID 0000.0001) >  facetEdgeLink(1:4,3)= 5.4, 2.1, 4.4, 1.1,
(PID.TID 0000.0001) >  facetEdgeLink(1:4,4)= 5.2, 2.3, 0. , 3.3,
(PID.TID 0000.0001) >  facetEdgeLink(1:4,5)= 1.4, 4.1, 0. , 3.1,
(PID.TID 0000.0001) >#-- full 6 facets llc_120 topology (equivalent to default preDefTopol=3):
(PID.TID 0000.0001) ># dimsFacets(1:12) = 120, 360, 120, 360, 120, 120, 360, 120, 360, 120, 120, 120,
(PID.TID 0000.0001) ># facetEdgeLink(1:4,1)= 3.4, 6.1, 2.4, 5.1,
(PID.TID 0000.0001) ># facetEdgeLink(1:4,2)= 3.2, 6.3, 4.2, 1.3,
(PID.TID 0000.0001) ># facetEdgeLink(1:4,3)= 5.4, 2.1, 4.4, 1.1,
(PID.TID 0000.0001) ># facetEdgeLink(1:4,4)= 5.2, 2.3, 6.2, 3.3,
(PID.TID 0000.0001) ># facetEdgeLink(1:4,5)= 1.4, 4.1, 6.4, 3.1,
(PID.TID 0000.0001) ># facetEdgeLink(1:4,6)= 1.2, 4.3, 2.2, 5.3,
(PID.TID 0000.0001) >#
(PID.TID 0000.0001) >#90x30   nprocs = 36
(PID.TID 0000.0001) ># blankList(1:3)=1,10,11,
(PID.TID 0000.0001) >#30x90
(PID.TID 0000.0001) >#
(PID.TID 0000.0001) >#45x30   nprocs = 72
(PID.TID 0000.0001) ># blankList(1:6)=1,2,19,20,21,22
(PID.TID 0000.0001) >#30x45   nprocs = 68
(PID.TID 0000.0001) ># blankList(1:10)=2,3,19,20,21,35,51,60,69,78
(PID.TID 0000.0001) >#45x45   nprocs = 48
(PID.TID 0000.0001) ># blankList(1:4)=2,13,14,23
(PID.TID 0000.0001) >#30x30   nprocs = 96
(PID.TID 0000.0001) ># blankList(1:21)=1,2,3,5,6,28,29,30,31,32,33,49,50,52,53,72,81,90,99,108,117
(PID.TID 0000.0001) >#30x30   nprocs = 112
(PID.TID 0000.0001) ># blankList(1:5)=2,3,28,29,30
(PID.TID 0000.0001) >#15x30   nprocs = 192
(PID.TID 0000.0001) ># blankList(1:42)=1,2,3,4,5,6,9,10,11,12,55,56,57,58,59,60,61,62,63,64,65,66,
(PID.TID 0000.0001) >#            97,98,99,100,103,104,105,106,143,144,
(PID.TID 0000.0001) >#            161,162,179,180,197,198,215,216,233,234
(PID.TID 0000.0001) >#15x15   nprocs = 360
(PID.TID 0000.0001) > blankList(1:108)=1,2,3,4,5,6,7,8,9,10,11,12,14,15,16,17,18,21,22,23,24,
(PID.TID 0000.0001) >  65,71,75,76,90,95,96,101,102,109,110,111,112,113,114,115,116,117,118,119,
(PID.TID 0000.0001) >  120,121,122,123,124,125,126,127,128,129,130,131,132,
(PID.TID 0000.0001) >  188,189,190,193,194,195,196,199,
(PID.TID 0000.0001) >  200,201,202,203,205,206,207,208,209,211,212,213,214,215,216,242,247,253,
(PID.TID 0000.0001) >  267,268,269,270,287,288,305,306,323,324,341,342,359,360,362,376,377,378,
(PID.TID 0000.0001) >  380,381,382,395,396,400,412,413,414,430,
(PID.TID 0000.0001) >#note: it seems that 8 of the followig 9 tiles could be added to 15x15 blank
(PID.TID 0000.0001) >#  list to reach 352=22*16 cores : 431 432 440 441 448 449 450 467 468
(PID.TID 0000.0001) > &
(PID.TID 0000.0001) 
(PID.TID 0000.0001) W2_READPARMS: finished reading data.exch2
(PID.TID 0000.0001) W2_useE2ioLayOut=    T ;/* T: use Exch2 glob IO map; F: use model default */
(PID.TID 0000.0001) W2_mapIO        =   1 ; /* select option for Exch2 global-IO map */
(PID.TID 0000.0001) W2_printMsg     =  -1 ; /* select option for printing information */
(PID.TID 0000.0001) ===== Start setting W2 TOPOLOGY:
(PID.TID 0000.0001)  write to log-file: w2_tile_topology.0000.log
(PID.TID 0000.0001) =====       setting W2 TOPOLOGY: Done
(PID.TID 0000.0001) 
(PID.TID 0000.0001)  INI_PARMS: opening model parameter file "data"
(PID.TID 0000.0001)  OPEN_COPY_DATA_FILE: opening file data
(PID.TID 0000.0001) // =======================================================
(PID.TID 0000.0001) // Parameter file "data"
(PID.TID 0000.0001) // =======================================================
(PID.TID 0000.0001) ># ====================
(PID.TID 0000.0001) ># | Model parameters |
(PID.TID 0000.0001) ># ====================
(PID.TID 0000.0001) >#
(PID.TID 0000.0001) ># Continuous equation parameters
(PID.TID 0000.0001) > &PARM01
(PID.TID 0000.0001) > tRef               = 3*23.,3*22.,21.,2*20.,19.,2*18.,17.,2*16.,15.,14.,13.,
(PID.TID 0000.0001) >                      12.,11.,2*9.,8.,7.,2*6.,2*5.,3*4.,3*3.,4*2.,12*1.,
(PID.TID 0000.0001) > sRef               = 50*34.5,
(PID.TID 0000.0001) > no_slip_sides  = .TRUE.,
(PID.TID 0000.0001) > no_slip_bottom = .TRUE.,
(PID.TID 0000.0001) >#
(PID.TID 0000.0001) > viscAr=0.5E-4,
(PID.TID 0000.0001) >#
(PID.TID 0000.0001) > viscAh=1.E0,
(PID.TID 0000.0001) > viscAhGrid=2.E-2,
(PID.TID 0000.0001) ># viscAh=2.0e4,
(PID.TID 0000.0001) >#
(PID.TID 0000.0001) > diffKhT=1.E1,
(PID.TID 0000.0001) > diffKrT=1.E-5,
(PID.TID 0000.0001) > diffKhS=1.E1,
(PID.TID 0000.0001) > diffKrS=1.E-5,
(PID.TID 0000.0001) >#
(PID.TID 0000.0001) >### diffKrBL79surf=0.1E-4,
(PID.TID 0000.0001) >### diffKrBL79deep=1.0E-4,
(PID.TID 0000.0001) > bottomDragQuadratic = 0.001,
(PID.TID 0000.0001) >#when using ggl90
(PID.TID 0000.0001) > ivdc_kappa=10.,
(PID.TID 0000.0001) > implicitDiffusion=.TRUE.,
(PID.TID 0000.0001) > implicitViscosity=.TRUE.,
(PID.TID 0000.0001) > useRealFreshWaterFlux=.TRUE.,
(PID.TID 0000.0001) ># balanceThetaClimRelax=.TRUE.,
(PID.TID 0000.0001) > balanceSaltClimRelax=.TRUE.,
(PID.TID 0000.0001) ># balanceEmPmR=.TRUE.,
(PID.TID 0000.0001) ># balanceQnet=.TRUE.,
(PID.TID 0000.0001) > allowFreezing=.FALSE.,
(PID.TID 0000.0001) >### hFacInf=0.2,
(PID.TID 0000.0001) >### hFacSup=2.0,
(PID.TID 0000.0001) > hFacMin=.2,
(PID.TID 0000.0001) > hFacMinDr=5.,
(PID.TID 0000.0001) > select_rStar=2,
(PID.TID 0000.0001) > nonlinFreeSurf=4,
(PID.TID 0000.0001) > gravity=9.81,
(PID.TID 0000.0001) > rhonil=1029.,
(PID.TID 0000.0001) > rhoConst=1029.,
(PID.TID 0000.0001) > rhoConstFresh=1000.,
(PID.TID 0000.0001) > convertFW2Salt=-1.,
(PID.TID 0000.0001) > eosType='JMD95Z',
(PID.TID 0000.0001) > implicitFreeSurface=.TRUE.,
(PID.TID 0000.0001) > exactConserv=.TRUE.,
(PID.TID 0000.0001) > useSingleCpuIO=.TRUE.,
(PID.TID 0000.0001) > tempAdvScheme=77,
(PID.TID 0000.0001) > saltAdvScheme=77,
(PID.TID 0000.0001) >#tempVertAdvScheme=3,
(PID.TID 0000.0001) >#saltVertAdvScheme=3,
(PID.TID 0000.0001) >#tempImplVertAdv=.TRUE.,
(PID.TID 0000.0001) >#saltImplVertAdv=.TRUE.,
(PID.TID 0000.0001) > staggerTimeStep=.TRUE.,
(PID.TID 0000.0001) > vectorInvariantMomentum=.TRUE.,
(PID.TID 0000.0001) >#when using the cd scheme:
(PID.TID 0000.0001) ># useCDscheme=.TRUE.,
(PID.TID 0000.0001) > useJamartWetPoints=.TRUE.,
(PID.TID 0000.0001) > readBinaryPrec=32,
(PID.TID 0000.0001) > writeBinaryPrec=32,
(PID.TID 0000.0001) > debugLevel=1,
(PID.TID 0000.0001) > &
(PID.TID 0000.0001) >
(PID.TID 0000.0001) ># Elliptic solver parameters
(PID.TID 0000.0001) > &PARM02
(PID.TID 0000.0001) > cg2dMaxIters=300,
(PID.TID 0000.0001) > cg2dTargetResWunit=1.E-12,
(PID.TID 0000.0001) > &
(PID.TID 0000.0001) >
(PID.TID 0000.0001) ># Time stepping parameters
(PID.TID 0000.0001) > &PARM03
(PID.TID 0000.0001) > nIter0=174564,
(PID.TID 0000.0001) >#2 lev2 for testing:
(PID.TID 0000.0001) ># nTimeSteps       = 192,
(PID.TID 0000.0001) >#20y:
(PID.TID 0000.0001) >  nTimeSteps       = 192,
(PID.TID 0000.0001) >#60 years
(PID.TID 0000.0001) ># nTimeSteps       = 192,
(PID.TID 0000.0001) >#
(PID.TID 0000.0001) > forcing_In_AB=.FALSE.,
(PID.TID 0000.0001) > momDissip_In_AB=.FALSE.,
(PID.TID 0000.0001) >#when using the cd scheme:
(PID.TID 0000.0001) ># epsAB_CD = 0.25,
(PID.TID 0000.0001) ># tauCD=172800.0,
(PID.TID 0000.0001) > deltaT = 450.,
(PID.TID 0000.0001) >#when using ab2:
(PID.TID 0000.0001) > abEps = 0.1,
(PID.TID 0000.0001) >#when using ab3:
(PID.TID 0000.0001) ># doAB_onGtGs=.FALSE.,
(PID.TID 0000.0001) ># alph_AB=0.5,
(PID.TID 0000.0001) ># beta_AB=0.281105,
(PID.TID 0000.0001) >#
(PID.TID 0000.0001) >  pChkptFreq        = 86400.0,
(PID.TID 0000.0001) >  chkptFreq        = 86400.0,
(PID.TID 0000.0001) ># taveFreq    =31536000.0,
(PID.TID 0000.0001) ># dumpFreq    =31536000.0,
(PID.TID 0000.0001) > monitorFreq=10800,
(PID.TID 0000.0001) > dumpInitAndLast = .TRUE.,
(PID.TID 0000.0001) > pickupStrictlyMatch=.FALSE.,
(PID.TID 0000.0001) > &
(PID.TID 0000.0001) >
(PID.TID 0000.0001) ># Gridding parameters
(PID.TID 0000.0001) > &PARM04
(PID.TID 0000.0001) > usingCurvilinearGrid=.TRUE.,
(PID.TID 0000.0001) > delR =
(PID.TID 0000.0001) >     10.00, 10.00, 10.00, 10.00, 10.00, 10.00, 10.00, 10.01,
(PID.TID 0000.0001) >     10.03, 10.11, 10.32, 10.80, 11.76, 13.42, 16.04, 19.82, 24.85,
(PID.TID 0000.0001) >     31.10, 38.42, 46.50, 55.00, 63.50, 71.58, 78.90, 85.15, 90.18,
(PID.TID 0000.0001) >     93.96, 96.58, 98.25, 99.25,100.01,101.33,104.56,111.33,122.83,
(PID.TID 0000.0001) >     139.09,158.94,180.83,203.55,226.50,249.50,272.50,295.50,318.50,
(PID.TID 0000.0001) >     341.50,364.50,387.50,410.50,433.50,456.50,
(PID.TID 0000.0001) > &
(PID.TID 0000.0001) >
(PID.TID 0000.0001) ># Input datasets
(PID.TID 0000.0001) > &PARM05
(PID.TID 0000.0001) >#adTapeDir='tapes',
(PID.TID 0000.0001) > bathyFile      ='bathy.bin',
(PID.TID 0000.0001) > hydrogThetaFile='T_OWPv1_M_eccollc_90x50.bin',
(PID.TID 0000.0001) > hydrogSaltFile ='S_OWPv1_M_eccollc_90x50.bin',
(PID.TID 0000.0001) > viscA4Dfile    ='viscA4Dfld.bin',
(PID.TID 0000.0001) > viscA4Zfile    ='viscA4Zfld.bin',
(PID.TID 0000.0001) > geothermalFile='geothermalFlux.bin',
(PID.TID 0000.0001) >#
(PID.TID 0000.0001) > &
(PID.TID 0000.0001) 
(PID.TID 0000.0001)  INI_PARMS ; starts to read PARM01
(PID.TID 0000.0001)  INI_PARMS ; read PARM01 : OK
(PID.TID 0000.0001)  INI_PARMS ; starts to read PARM02
(PID.TID 0000.0001)  INI_PARMS ; read PARM02 : OK
(PID.TID 0000.0001)  INI_PARMS ; starts to read PARM03
(PID.TID 0000.0001)  INI_PARMS ; read PARM03 : OK
(PID.TID 0000.0001)  INI_PARMS ; starts to read PARM04
(PID.TID 0000.0001)  INI_PARMS ; read PARM04 : OK
(PID.TID 0000.0001)  INI_PARMS ; starts to read PARM05
(PID.TID 0000.0001)  INI_PARMS ; read PARM05 : OK
(PID.TID 0000.0001)  INI_PARMS: finished reading file "data"
(PID.TID 0000.0001)  PACKAGES_BOOT: opening data.pkg
(PID.TID 0000.0001)  OPEN_COPY_DATA_FILE: opening file data.pkg
(PID.TID 0000.0001) // =======================================================
(PID.TID 0000.0001) // Parameter file "data.pkg"
(PID.TID 0000.0001) // =======================================================
(PID.TID 0000.0001) ># Packages
(PID.TID 0000.0001) > &PACKAGES
(PID.TID 0000.0001) > useGMRedi          = .TRUE.,
(PID.TID 0000.0001) > useGGL90           = .TRUE.,
(PID.TID 0000.0001) > useSALT_PLUME      = .TRUE.,
(PID.TID 0000.0001) > useDiagnostics     = .TRUE.,
(PID.TID 0000.0001) > useCTRL            = .TRUE.,
(PID.TID 0000.0001) > &
(PID.TID 0000.0001) 
(PID.TID 0000.0001)  PACKAGES_BOOT: finished reading data.pkg
(PID.TID 0000.0001)  PACKAGES_BOOT: On/Off package Summary
 --------  pkgs with a standard "usePKG" On/Off switch in "data.pkg":  --------
 pkg/ggl90                compiled   and   used ( useGGL90                 = T )
 pkg/gmredi               compiled   and   used ( useGMRedi                = T )
 pkg/ctrl                 compiled   and   used ( useCTRL                  = T )
 pkg/salt_plume           compiled   and   used ( useSALT_PLUME            = T )
 pkg/diagnostics          compiled   and   used ( useDiagnostics           = T )
 -------- pkgs without standard "usePKG" On/Off switch in "data.pkg":  --------
 pkg/generic_advdiff      compiled   and   used ( useGAD                   = T )
 pkg/mom_common           compiled   and   used ( momStepping              = T )
 pkg/mom_vecinv           compiled   and   used ( +vectorInvariantMomentum = T )
 pkg/monitor              compiled   and   used ( monitorFreq > 0.         = T )
 pkg/debug                compiled but not used ( debugMode                = F )
 pkg/exch2                compiled   and   used
 pkg/rw                   compiled   and   used
 pkg/mdsio                compiled   and   used
(PID.TID 0000.0001)  PACKAGES_BOOT: End of package Summary
(PID.TID 0000.0001) 
(PID.TID 0000.0001)  GGL90_READPARMS: opening data.ggl90
(PID.TID 0000.0001)  OPEN_COPY_DATA_FILE: opening file data.ggl90
(PID.TID 0000.0001) // =======================================================
(PID.TID 0000.0001) // Parameter file "data.ggl90"
(PID.TID 0000.0001) // =======================================================
(PID.TID 0000.0001) ># =====================================================================
(PID.TID 0000.0001) ># | Parameters for Gaspar et al. (1990)'s TKE vertical mixing scheme  |
(PID.TID 0000.0001) ># =====================================================================
(PID.TID 0000.0001) > &GGL90_PARM01
(PID.TID 0000.0001) ># GGL90taveFreq = 345600000.,
(PID.TID 0000.0001) ># GGL90dumpFreq = 86400.,
(PID.TID 0000.0001) ># GGL90writeState=.FALSE.,
(PID.TID 0000.0001) ># GGL90diffTKEh=3.e3,
(PID.TID 0000.0001) > GGL90alpha=30.,
(PID.TID 0000.0001) ># GGL90TKEFile = 'TKE_init.bin',
(PID.TID 0000.0001) > GGL90TKEmin  = 1.e-7,
(PID.TID 0000.0001) > GGL90TKEbottom = 1.e-6,
(PID.TID 0000.0001) > mxlMaxFlag =2,
(PID.TID 0000.0001) > mxlSurfFlag=.TRUE.,
(PID.TID 0000.0001) > &
(PID.TID 0000.0001) 
(PID.TID 0000.0001)  GGL90_READPARMS ; starts to read GGL90_PARM01
(PID.TID 0000.0001)  GGL90_READPARMS: read GGL90_PARM01 : OK
(PID.TID 0000.0001)  GGL90_READPARMS: finished reading data.ggl90
(PID.TID 0000.0001) // =======================================================
(PID.TID 0000.0001) // GGL90 configuration
(PID.TID 0000.0001) // =======================================================
(PID.TID 0000.0001) GGL90dumpFreq =   /* GGL90 state write out interval ( s ). */
(PID.TID 0000.0001)                 0.000000000000000E+00
(PID.TID 0000.0001)     ;
(PID.TID 0000.0001) GGL90taveFreq =   /* GGL90 averaging interval ( s ). */
(PID.TID 0000.0001)                 0.000000000000000E+00
(PID.TID 0000.0001)     ;
(PID.TID 0000.0001) GGL90mixingMAPS =   /* GGL90 IO flag. */
(PID.TID 0000.0001)                   F
(PID.TID 0000.0001)     ;
(PID.TID 0000.0001) GGL90writeState =   /* GGL90 IO flag. */
(PID.TID 0000.0001)                   F
(PID.TID 0000.0001)     ;
(PID.TID 0000.0001) GGL90ck =   /* GGL90 viscosity parameter. */
(PID.TID 0000.0001)                 1.000000000000000E-01
(PID.TID 0000.0001)     ;
(PID.TID 0000.0001) GGL90ceps =   /* GGL90 dissipation parameter. */
(PID.TID 0000.0001)                 7.000000000000000E-01
(PID.TID 0000.0001)     ;
(PID.TID 0000.0001) GGL90alpha =   /* GGL90 TKE diffusivity parameter. */
(PID.TID 0000.0001)                 3.000000000000000E+01
(PID.TID 0000.0001)     ;
(PID.TID 0000.0001) GGL90m2 =   /* GGL90 wind stress to vertical stress ratio. */
(PID.TID 0000.0001)                 3.750000000000000E+00
(PID.TID 0000.0001)     ;
(PID.TID 0000.0001) GGL90TKEmin =   /* GGL90 minimum kinetic energy ( m^2/s^2 ). */
(PID.TID 0000.0001)                 1.000000000000000E-07
(PID.TID 0000.0001)     ;
(PID.TID 0000.0001) GGL90TKEsurfMin =   /* GGL90 minimum surface kinetic energy ( m^2/s^2 ). */
(PID.TID 0000.0001)                 1.000000000000000E-04
(PID.TID 0000.0001)     ;
(PID.TID 0000.0001) GGL90TKEbottom =   /* GGL90 bottom kinetic energy ( m^2/s^2 ). */
(PID.TID 0000.0001)                 1.000000000000000E-06
(PID.TID 0000.0001)     ;
(PID.TID 0000.0001) GGL90viscMax =   /* GGL90 upper limit for viscosity ( m^2/s ). */
(PID.TID 0000.0001)                 1.000000000000000E+02
(PID.TID 0000.0001)     ;
(PID.TID 0000.0001) GGL90diffMax =   /* GGL90 upper limit for diffusivity ( m^2/s ). */
(PID.TID 0000.0001)                 1.000000000000000E+02
(PID.TID 0000.0001)     ;
(PID.TID 0000.0001) GGL90diffTKEh =   /* GGL90 horizontal diffusivity for TKE ( m^2/s ). */
(PID.TID 0000.0001)                 0.000000000000000E+00
(PID.TID 0000.0001)     ;
(PID.TID 0000.0001) GGL90mixingLengthMin =   /* GGL90 minimum mixing length ( m ). */
(PID.TID 0000.0001)                 1.000000000000000E-08
(PID.TID 0000.0001)     ;
(PID.TID 0000.0001) mxlMaxFlag =   /* Flag for limiting mixing-length method */
(PID.TID 0000.0001)                       2
(PID.TID 0000.0001)     ;
(PID.TID 0000.0001) mxlSurfFlag =   /* GGL90 flag for near surface mixing. */
(PID.TID 0000.0001)                   T
(PID.TID 0000.0001)     ;
(PID.TID 0000.0001) calcMeanVertShear = /* calc Mean of Vert.Shear (vs shear of Mean flow) */
(PID.TID 0000.0001)                   F
(PID.TID 0000.0001)     ;
(PID.TID 0000.0001) GGL90: GGL90TKEFile =
(PID.TID 0000.0001) GGL90writeState =   /* GGL90 Boundary condition flag. */
(PID.TID 0000.0001)                   T
(PID.TID 0000.0001)     ;
(PID.TID 0000.0001) // =======================================================
(PID.TID 0000.0001) // End of GGL90 config. summary
(PID.TID 0000.0001) // =======================================================
(PID.TID 0000.0001) 
(PID.TID 0000.0001)  GM_READPARMS: opening data.gmredi
(PID.TID 0000.0001)  OPEN_COPY_DATA_FILE: opening file data.gmredi
(PID.TID 0000.0001) // =======================================================
(PID.TID 0000.0001) // Parameter file "data.gmredi"
(PID.TID 0000.0001) // =======================================================
(PID.TID 0000.0001) ># GM+Redi package parameters:
(PID.TID 0000.0001) >#     GM_Small_Number  :: epsilon used in computing the slope
(PID.TID 0000.0001) >#     GM_slopeSqCutoff :: slope^2 cut-off value
(PID.TID 0000.0001) >
(PID.TID 0000.0001) >#-from MOM :
(PID.TID 0000.0001) ># GM_background_K: 	G & Mc.W  diffusion coefficient
(PID.TID 0000.0001) ># GM_maxSlope    :	max slope of isopycnals
(PID.TID 0000.0001) ># GM_Scrit       :	transition for scaling diffusion coefficient
(PID.TID 0000.0001) ># GM_Sd          :	half width scaling for diffusion coefficient
(PID.TID 0000.0001) ># GM_taper_scheme:	slope clipping or one of the tapering schemes
(PID.TID 0000.0001) ># GM_Kmin_horiz  :	horizontal diffusion minimum value
(PID.TID 0000.0001) >
(PID.TID 0000.0001) >#-Option parameters (needs to "define" options in GMREDI_OPTIONS.h")
(PID.TID 0000.0001) ># GM_isopycK     :	isopycnal diffusion coefficient (default=GM_background_K)
(PID.TID 0000.0001) ># GM_AdvForm     :	turn on GM Advective form       (default=Skew flux form)
(PID.TID 0000.0001) >
(PID.TID 0000.0001) > &GM_PARM01
(PID.TID 0000.0001) >  GM_Small_Number  = 1.D-20,
(PID.TID 0000.0001) >  GM_slopeSqCutoff = 1.D+08,
(PID.TID 0000.0001) >  GM_AdvForm         = .TRUE.,
(PID.TID 0000.0001) >  GM_isopycK         = 1.D+3,
(PID.TID 0000.0001) >  GM_background_K    = 1.D+3,
(PID.TID 0000.0001) >  GM_maxSlope        = 4.D-3,
(PID.TID 0000.0001) >  GM_taper_scheme    = 'stableGmAdjTap',
(PID.TID 0000.0001) >  GM_Kmin_horiz      = 100.,
(PID.TID 0000.0001) >  GM_Scrit           = 4.D-3,
(PID.TID 0000.0001) >  GM_Sd              = 1.D-3,
(PID.TID 0000.0001) >#
(PID.TID 0000.0001) >###  GM_Visbeck_alpha   = 1.5D-2,
(PID.TID 0000.0001) >###  GM_Visbeck_alpha   = 0.D0,
(PID.TID 0000.0001) >###  GM_Visbeck_length  = 2.D+5,
(PID.TID 0000.0001) >###  GM_Visbeck_depth   = 1.D+3,
(PID.TID 0000.0001) >###  GM_Visbeck_maxval_K= 2.5D+3,
(PID.TID 0000.0001) > &
(PID.TID 0000.0001) >
(PID.TID 0000.0001) >
(PID.TID 0000.0001) 
(PID.TID 0000.0001)  GM_READPARMS: finished reading data.gmredi
(PID.TID 0000.0001) SALT_PLUME_READPARMS: opening data.salt_plume
(PID.TID 0000.0001)  OPEN_COPY_DATA_FILE: opening file data.salt_plume
(PID.TID 0000.0001) // =======================================================
(PID.TID 0000.0001) // Parameter file "data.salt_plume"
(PID.TID 0000.0001) // =======================================================
(PID.TID 0000.0001) > &SALT_PLUME_PARM01
(PID.TID 0000.0001) > SPsalFRAC= 0.5D0,
(PID.TID 0000.0001) > &
(PID.TID 0000.0001) 
(PID.TID 0000.0001) SALT_PLUME_READPARMS: finished reading data.salt_plume
(PID.TID 0000.0001) OPTIM_READPARMS: opening data.optim
(PID.TID 0000.0001)  OPEN_COPY_DATA_FILE: opening file data.optim
(PID.TID 0000.0001) // =======================================================
(PID.TID 0000.0001) // Parameter file "data.optim"
(PID.TID 0000.0001) // =======================================================
(PID.TID 0000.0001) >#
(PID.TID 0000.0001) ># ********************************
(PID.TID 0000.0001) ># Off-line optimization parameters
(PID.TID 0000.0001) ># ********************************
(PID.TID 0000.0001) > &OPTIM
(PID.TID 0000.0001) > optimcycle=12,
(PID.TID 0000.0001) > &
(PID.TID 0000.0001) 
(PID.TID 0000.0001) OPTIM_READPARMS: finished reading data.optim
(PID.TID 0000.0001) CTRL_READPARMS: opening data.ctrl
(PID.TID 0000.0001)  OPEN_COPY_DATA_FILE: opening file data.ctrl
(PID.TID 0000.0001) // =======================================================
(PID.TID 0000.0001) // Parameter file "data.ctrl"
(PID.TID 0000.0001) // =======================================================
(PID.TID 0000.0001) ># *********************
(PID.TID 0000.0001) ># ECCO control variables
(PID.TID 0000.0001) ># *********************
(PID.TID 0000.0001) > &ctrl_nml
(PID.TID 0000.0001) > doSinglePrecTapelev=.TRUE.,
(PID.TID 0000.0001) >#to start from given xx*00.data files
(PID.TID 0000.0001) >  doinitxx = .FALSE.,
(PID.TID 0000.0001) >  doMainUnpack = .FALSE.,
(PID.TID 0000.0001) >#to start from given ecco_ctrl... files
(PID.TID 0000.0001) ># doinitxx = .FALSE.,
(PID.TID 0000.0001) > &
(PID.TID 0000.0001) >#
(PID.TID 0000.0001) ># *********************
(PID.TID 0000.0001) ># names for ctrl_pack/unpack
(PID.TID 0000.0001) ># *********************
(PID.TID 0000.0001) > &ctrl_packnames
(PID.TID 0000.0001) > &
(PID.TID 0000.0001) >#
(PID.TID 0000.0001) ># *********************
(PID.TID 0000.0001) ># names for CTRL_GENARR2D,3D CTRL_GENTIM2D
(PID.TID 0000.0001) ># *********************
(PID.TID 0000.0001) > &CTRL_NML_GENARR
(PID.TID 0000.0001) >#
(PID.TID 0000.0001) > xx_genarr3d_weight(1) = 'wt_ones.data',
(PID.TID 0000.0001) > xx_genarr3d_file(1)='xx_kapgm',
(PID.TID 0000.0001) > mult_genarr3d(1) = 0.,
(PID.TID 0000.0001) >#
(PID.TID 0000.0001) > xx_genarr3d_weight(2) = 'wt_ones.data',
(PID.TID 0000.0001) > xx_genarr3d_file(2)='xx_kapredi',
(PID.TID 0000.0001) > mult_genarr3d(2) = 0.,
(PID.TID 0000.0001) >#
(PID.TID 0000.0001) > xx_genarr3d_weight(3) = 'wt_ones.data',
(PID.TID 0000.0001) > xx_genarr3d_file(3)='xx_diffkr',
(PID.TID 0000.0001) > mult_genarr3d(3) = 0.,
(PID.TID 0000.0001) >#
(PID.TID 0000.0001) > &
(PID.TID 0000.0001) 
(PID.TID 0000.0001) CTRL_READPARMS: finished reading data.ctrl
(PID.TID 0000.0001)  DIAGNOSTICS_READPARMS: opening data.diagnostics
(PID.TID 0000.0001)  OPEN_COPY_DATA_FILE: opening file data.diagnostics
(PID.TID 0000.0001) // =======================================================
(PID.TID 0000.0001) // Parameter file "data.diagnostics"
(PID.TID 0000.0001) // =======================================================
(PID.TID 0000.0001) ># Diagnostic Package Choices
(PID.TID 0000.0001) >#--------------------
(PID.TID 0000.0001) >#  dumpAtLast (logical): always write output at the end of simulation (default=F)
(PID.TID 0000.0001) >#  diag_mnc   (logical): write to NetCDF files (default=useMNC)
(PID.TID 0000.0001) >#--for each output-stream:
(PID.TID 0000.0001) >#  fileName(n) : prefix of the output file name (max 80c long) for outp.stream n
(PID.TID 0000.0001) >#  frequency(n):< 0 : write snap-shot output every |frequency| seconds
(PID.TID 0000.0001) >#               > 0 : write time-average output every frequency seconds
(PID.TID 0000.0001) >#  timePhase(n)     : write at time = timePhase + multiple of |frequency|
(PID.TID 0000.0001) >#    averagingFreq  : frequency (in s) for periodic averaging interval
(PID.TID 0000.0001) >#    averagingPhase : phase     (in s) for periodic averaging interval
(PID.TID 0000.0001) >#    repeatCycle    : number of averaging intervals in 1 cycle
(PID.TID 0000.0001) >#  levels(:,n) : list of levels to write to file (Notes: declared as REAL)
(PID.TID 0000.0001) >#                when this entry is missing, select all common levels of this list
(PID.TID 0000.0001) >#  fields(:,n) : list of selected diagnostics fields (8.c) in outp.stream n
(PID.TID 0000.0001) >#                (see "available_diagnostics.log" file for the full list of diags)
(PID.TID 0000.0001) >#  missing_value(n) : missing value for real-type fields in output file "n"
(PID.TID 0000.0001) >#  fileFlags(n)     : specific code (8c string) for output file "n"
(PID.TID 0000.0001) >#--------------------
(PID.TID 0000.0001) ># oceTAUX  zonal surface wind stress, >0 increases uVel (N/m^2)
(PID.TID 0000.0001) ># oceTAUY  meridional surf. wind stress, >0 increases vVel (N/m^2)
(PID.TID 0000.0001) ># oceFWflx net surface Fresh-Water flux into ocean, >0 decreases salinity (kg/m^2/s)
(PID.TID 0000.0001) ># oceSflux net surface Salt flux into the ocean, >0 increases salinity (g/m^2/s)
(PID.TID 0000.0001) ># oceQnet  net surface heat flux into the ocean, >0 increases theta (W/m^2)
(PID.TID 0000.0001) ># oceQsw   net Short-Wave radiation (+=down), >0 increases theta (W/m^2)
(PID.TID 0000.0001) ># SSS      Sea Surface Salinity (g/kg)
(PID.TID 0000.0001) ># SST      Sea Surface Temperature (degC)
(PID.TID 0000.0001) ># UVEL1    Zonal Surface Velocity (m/s)
(PID.TID 0000.0001) ># VVEL1    Meridional Surface Velocity (m/s)
(PID.TID 0000.0001) >
(PID.TID 0000.0001) > &DIAGNOSTICS_LIST
(PID.TID 0000.0001) >   frequency(1)  = 10800.,
(PID.TID 0000.0001) >   fields(1,1)  = 'oceTAUX ','oceTAUY ','oceFWflx','oceSflux','oceQnet ','oceQsw  ',
(PID.TID 0000.0001) >   filename(2)  = 'state_2d_set1',
(PID.TID 0000.0001) > frequency(2)  = 10800.,
(PID.TID 0000.0001) >    fields(1,2)  = 'SALT    ','THETA   ','UVELMASS','VVELMASS',
(PID.TID 0000.0001) >    levels(1,2)  = 1.,
(PID.TID 0000.0001) >    filename(2)  = 'state_3d_set1',
(PID.TID 0000.0001) > &
(PID.TID 0000.0001) >
(PID.TID 0000.0001) > &DIAG_STATIS_PARMS
(PID.TID 0000.0001) > stat_fields(1:6,1)  = 'ETAN    ', 'THETA   ','SALT    ','oceQnet ','oceFWflx','oceSflux',
(PID.TID 0000.0001) > stat_fName(1) = 'dynStDiag',
(PID.TID 0000.0001) > stat_freq(1)=  10800.0,
(PID.TID 0000.0001) > &
(PID.TID 0000.0001) 
(PID.TID 0000.0001) S/R DIAGNOSTICS_READPARMS, read namelist "diagnostics_list": start
(PID.TID 0000.0001) S/R DIAGNOSTICS_READPARMS, read namelist "diagnostics_list": OK
(PID.TID 0000.0001) S/R DIAGNOSTICS_READPARMS, read namelist "DIAG_STATIS_PARMS": start
(PID.TID 0000.0001) S/R DIAGNOSTICS_READPARMS, read namelist "DIAG_STATIS_PARMS": OK
(PID.TID 0000.0001)  DIAGNOSTICS_READPARMS: global parameter summary:
(PID.TID 0000.0001)  dumpAtLast = /* always write time-ave diags at the end */
(PID.TID 0000.0001)                   F
(PID.TID 0000.0001)     ;
(PID.TID 0000.0001)  diag_mnc =   /* write NetCDF output files */
(PID.TID 0000.0001)                   F
(PID.TID 0000.0001)     ;
(PID.TID 0000.0001)  useMissingValue = /* put MissingValue where mask = 0 */
(PID.TID 0000.0001)                   F
(PID.TID 0000.0001)     ;
(PID.TID 0000.0001)  diagCG_maxIters = /* max number of iters in diag_cg2d */
(PID.TID 0000.0001)                     300
(PID.TID 0000.0001)     ;
(PID.TID 0000.0001)  diagCG_resTarget = /* residual target for diag_cg2d */
(PID.TID 0000.0001)                 1.000000000000000E-07
(PID.TID 0000.0001)     ;
(PID.TID 0000.0001)  diagCG_pcOffDFac = /* preconditioner off-diagonal factor */
(PID.TID 0000.0001)                 9.611687812379854E-01
(PID.TID 0000.0001)     ;
(PID.TID 0000.0001) -----------------------------------------------------
(PID.TID 0000.0001)  DIAGNOSTICS_READPARMS: active diagnostics summary:
(PID.TID 0000.0001) -----------------------------------------------------
(PID.TID 0000.0001) Creating Output Stream: state_3d_set1
(PID.TID 0000.0001) Output Frequency:      10800.000000 ; Phase:           0.000000
(PID.TID 0000.0001)  Averaging Freq.:      10800.000000 , Phase:           0.000000 , Cycle:   1
(PID.TID 0000.0001)  missing value: -9.990000000000E+02
(PID.TID 0000.0001)  Levels:       1.
(PID.TID 0000.0001)  Fields:    SALT     THETA    UVELMASS VVELMASS
(PID.TID 0000.0001) -----------------------------------------------------
(PID.TID 0000.0001)  DIAGNOSTICS_READPARMS: statistics diags. summary:
(PID.TID 0000.0001) Creating Stats. Output Stream: dynStDiag
(PID.TID 0000.0001) Output Frequency:      10800.000000 ; Phase:           0.000000
(PID.TID 0000.0001)  Regions:   0
(PID.TID 0000.0001)  Fields:    ETAN     THETA    SALT     oceQnet  oceFWflx oceSflux
(PID.TID 0000.0001) -----------------------------------------------------
(PID.TID 0000.0001) 
(PID.TID 0000.0001) SET_PARMS: done
(PID.TID 0000.0001) Enter INI_VERTICAL_GRID: setInterFDr=    T ; setCenterDr=    F
(PID.TID 0000.0001) tile:  13 ; Read from file tile001.mitgrid
(PID.TID 0000.0001)   => xC yC dxF dyF rA xG yG dxV dyU rAz dxC dyC rAw rAs dxG dyG
(PID.TID 0000.0001) %MON XC_max                       =   1.7997758946678E+02
(PID.TID 0000.0001) %MON XC_min                       =  -1.7998895680928E+02
(PID.TID 0000.0001) %MON XC_mean                      =  -1.0354689745251E+01
(PID.TID 0000.0001) %MON XC_sd                        =   1.0601378873778E+02
(PID.TID 0000.0001) %MON XG_max                       =   1.8000000000000E+02
(PID.TID 0000.0001) %MON XG_min                       =  -1.7999919444240E+02
(PID.TID 0000.0001) %MON XG_mean                      =  -9.7316629877777E+00
(PID.TID 0000.0001) %MON XG_sd                        =   1.0605795026741E+02
(PID.TID 0000.0001) %MON DXC_max                      =   1.1117680031365E+05
(PID.TID 0000.0001) %MON DXC_min                      =   1.3362789164732E+04
(PID.TID 0000.0001) %MON DXC_mean                     =   7.1282067642819E+04
(PID.TID 0000.0001) %MON DXC_sd                       =   2.6365676113021E+04
(PID.TID 0000.0001) %MON DXF_max                      =   1.1117680031365E+05
(PID.TID 0000.0001) %MON DXF_min                      =   1.3491575949394E+04
(PID.TID 0000.0001) %MON DXF_mean                     =   7.1262567365097E+04
(PID.TID 0000.0001) %MON DXF_sd                       =   2.6385918670202E+04
(PID.TID 0000.0001) %MON DXG_max                      =   1.1117747335204E+05
(PID.TID 0000.0001) %MON DXG_min                      =   1.0930409249570E+04
(PID.TID 0000.0001) %MON DXG_mean                     =   7.1224912463018E+04
(PID.TID 0000.0001) %MON DXG_sd                       =   2.6396347680762E+04
(PID.TID 0000.0001) %MON DXV_max                      =   1.1117747335204E+05
(PID.TID 0000.0001) %MON DXV_min                      =   9.4742518926426E+03
(PID.TID 0000.0001) %MON DXV_mean                     =   7.1244400980648E+04
(PID.TID 0000.0001) %MON DXV_sd                       =   2.6376171348787E+04
(PID.TID 0000.0001) %MON YC_max                       =   8.9739397429324E+01
(PID.TID 0000.0001) %MON YC_min                       =  -8.8102666383598E+01
(PID.TID 0000.0001) %MON YC_mean                      =  -3.8493079484782E+00
(PID.TID 0000.0001) %MON YC_sd                        =   5.1076689278256E+01
(PID.TID 0000.0001) %MON YG_max                       =   9.0000000000000E+01
(PID.TID 0000.0001) %MON YG_min                       =  -8.8024090322283E+01
(PID.TID 0000.0001) %MON YG_mean                      =  -3.8179083153408E+00
(PID.TID 0000.0001) %MON YG_sd                        =   5.1084555464418E+01
(PID.TID 0000.0001) %MON DYC_max                      =   1.1117680031365E+05
(PID.TID 0000.0001) %MON DYC_min                      =   1.2851209862268E+04
(PID.TID 0000.0001) %MON DYC_mean                     =   7.0996219118354E+04
(PID.TID 0000.0001) %MON DYC_sd                       =   2.7172906336655E+04
(PID.TID 0000.0001) %MON DYF_max                      =   1.1117680031365E+05
(PID.TID 0000.0001) %MON DYF_min                      =   1.2946481280457E+04
(PID.TID 0000.0001) %MON DYF_mean                     =   7.1029727417398E+04
(PID.TID 0000.0001) %MON DYF_sd                       =   2.7169103980511E+04
(PID.TID 0000.0001) %MON DYG_max                      =   1.1117747335204E+05
(PID.TID 0000.0001) %MON DYG_min                      =   1.0930409249570E+04
(PID.TID 0000.0001) %MON DYG_mean                     =   7.1056024568496E+04
(PID.TID 0000.0001) %MON DYG_sd                       =   2.7138779068799E+04
(PID.TID 0000.0001) %MON DYU_max                      =   1.1117747335204E+05
(PID.TID 0000.0001) %MON DYU_min                      =   9.4742518926426E+03
(PID.TID 0000.0001) %MON DYU_mean                     =   7.1022557361675E+04
(PID.TID 0000.0001) %MON DYU_sd                       =   2.7142564797123E+04
(PID.TID 0000.0001) %MON RA_max                       =   1.1896090857160E+10
(PID.TID 0000.0001) %MON RA_min                       =   1.8802726709832E+08
(PID.TID 0000.0001) %MON RA_mean                      =   5.6509598865793E+09
(PID.TID 0000.0001) %MON RA_sd                        =   3.6237073945657E+09
(PID.TID 0000.0001) %MON RAW_max                      =   1.1896090856781E+10
(PID.TID 0000.0001) %MON RAW_min                      =   1.7369571508711E+08
(PID.TID 0000.0001) %MON RAW_mean                     =   5.6529106837210E+09
(PID.TID 0000.0001) %MON RAW_sd                       =   3.6222060900726E+09
(PID.TID 0000.0001) %MON RAS_max                      =   1.1896090856781E+10
(PID.TID 0000.0001) %MON RAS_min                      =   1.7369571508711E+08
(PID.TID 0000.0001) %MON RAS_mean                     =   5.6462585155598E+09
(PID.TID 0000.0001) %MON RAS_sd                       =   3.6239168120244E+09
(PID.TID 0000.0001) %MON RAZ_max                      =   1.1891903479271E+10
(PID.TID 0000.0001) %MON RAZ_min                      =   1.0413402423292E+08
(PID.TID 0000.0001) %MON RAZ_mean                     =   5.6482099179688E+09
(PID.TID 0000.0001) %MON RAZ_sd                       =   3.6224179770596E+09
(PID.TID 0000.0001) %MON AngleCS_max                  =   1.0000000000000E+00
(PID.TID 0000.0001) %MON AngleCS_min                  =  -9.9996641938864E-01
(PID.TID 0000.0001) %MON AngleCS_mean                 =   3.7891728692339E-01
(PID.TID 0000.0001) %MON AngleCS_sd                   =   5.4799109936656E-01
(PID.TID 0000.0001) %MON AngleSN_max                  =   9.9996641938864E-01
(PID.TID 0000.0001) %MON AngleSN_min                  =  -1.0000000000000E+00
(PID.TID 0000.0001) %MON AngleSN_mean                 =  -5.1564638641270E-01
(PID.TID 0000.0001) %MON AngleSN_sd                   =   5.3873578762245E-01
(PID.TID 0000.0001) GAD_INIT_FIXED: GAD_OlMinSize=  2  0  2
(PID.TID 0000.0001) 
(PID.TID 0000.0001) // ===================================
(PID.TID 0000.0001) // GAD parameters :
(PID.TID 0000.0001) // ===================================
(PID.TID 0000.0001) tempAdvScheme =   /* Temp. Horiz.Advection scheme selector */
(PID.TID 0000.0001)                      77
(PID.TID 0000.0001)     ;
(PID.TID 0000.0001) tempVertAdvScheme =   /* Temp. Vert. Advection scheme selector */
(PID.TID 0000.0001)                      77
(PID.TID 0000.0001)     ;
(PID.TID 0000.0001) tempMultiDimAdvec =   /* use Muti-Dim Advec method for Temp */
(PID.TID 0000.0001)                   T
(PID.TID 0000.0001)     ;
(PID.TID 0000.0001) tempSOM_Advection = /* use 2nd Order Moment Advection for Temp */
(PID.TID 0000.0001)                   F
(PID.TID 0000.0001)     ;
(PID.TID 0000.0001) AdamsBashforthGt = /* apply Adams-Bashforth extrapolation on Gt */
(PID.TID 0000.0001)                   F
(PID.TID 0000.0001)     ;
(PID.TID 0000.0001) AdamsBashforth_T = /* apply Adams-Bashforth extrapolation on Temp */
(PID.TID 0000.0001)                   F
(PID.TID 0000.0001)     ;
(PID.TID 0000.0001) saltAdvScheme =   /* Salt. Horiz.advection scheme selector */
(PID.TID 0000.0001)                      77
(PID.TID 0000.0001)     ;
(PID.TID 0000.0001) saltVertAdvScheme =   /* Salt. Vert. Advection scheme selector */
(PID.TID 0000.0001)                      77
(PID.TID 0000.0001)     ;
(PID.TID 0000.0001) saltMultiDimAdvec =   /* use Muti-Dim Advec method for Salt */
(PID.TID 0000.0001)                   T
(PID.TID 0000.0001)     ;
(PID.TID 0000.0001) saltSOM_Advection = /* use 2nd Order Moment Advection for Salt */
(PID.TID 0000.0001)                   F
(PID.TID 0000.0001)     ;
(PID.TID 0000.0001) AdamsBashforthGs = /* apply Adams-Bashforth extrapolation on Gs */
(PID.TID 0000.0001)                   F
(PID.TID 0000.0001)     ;
(PID.TID 0000.0001) AdamsBashforth_S = /* apply Adams-Bashforth extrapolation on Salt */
(PID.TID 0000.0001)                   F
(PID.TID 0000.0001)     ;
(PID.TID 0000.0001) // ===================================
(PID.TID 0000.0001) ctrl-wet 1:    nvarlength =         2157
(PID.TID 0000.0001) ctrl-wet 2: surface wet C =           28
(PID.TID 0000.0001) ctrl-wet 3: surface wet W =           28
(PID.TID 0000.0001) ctrl-wet 4: surface wet S =           19
(PID.TID 0000.0001) ctrl-wet 4a:surface wet V =            0
(PID.TID 0000.0001) ctrl-wet 5: 3D wet points =          719
(PID.TID 0000.0001) ctrl-wet 6: no recs for i =     1           0
(PID.TID 0000.0001) ctrl-wet 6: no recs for i =     2           0
(PID.TID 0000.0001) ctrl-wet 6: no recs for i =     3           0
(PID.TID 0000.0001) ctrl-wet 6: no recs for i =     4           0
(PID.TID 0000.0001) ctrl-wet 6: no recs for i =     5           0
(PID.TID 0000.0001) ctrl-wet 6: no recs for i =     6           0
(PID.TID 0000.0001) ctrl-wet 6: no recs for i =     7           0
(PID.TID 0000.0001) ctrl-wet 6: no recs for i =     8           0
(PID.TID 0000.0001) ctrl-wet 6: no recs for i =     9           0
(PID.TID 0000.0001) ctrl-wet 6: no recs for i =    10           0
(PID.TID 0000.0001) ctrl-wet 6: no recs for i =    11           0
(PID.TID 0000.0001) ctrl-wet 6: no recs for i =    12           0
(PID.TID 0000.0001) ctrl-wet 6: no recs for i =    13           0
(PID.TID 0000.0001) ctrl-wet 6: no recs for i =    14           0
(PID.TID 0000.0001) ctrl-wet 6: no recs for i =    15           0
(PID.TID 0000.0001) ctrl-wet 6: no recs for i =    16           0
(PID.TID 0000.0001) ctrl-wet 6: no recs for i =    17           0
(PID.TID 0000.0001) ctrl-wet 6: no recs for i =    18           0
(PID.TID 0000.0001) ctrl-wet 6: no recs for i =    19           0
(PID.TID 0000.0001) ctrl-wet 6: no recs for i =    20           0
(PID.TID 0000.0001) ctrl-wet 6: no recs for i =    21           0
(PID.TID 0000.0001) ctrl-wet 6: no recs for i =    22           0
(PID.TID 0000.0001) ctrl-wet 6: no recs for i =    23           0
(PID.TID 0000.0001) ctrl-wet 6: no recs for i =    24           0
(PID.TID 0000.0001) ctrl-wet 6: no recs for i =    25           0
(PID.TID 0000.0001) ctrl-wet 6: no recs for i =    26           0
(PID.TID 0000.0001) ctrl-wet 6: no recs for i =    27           0
(PID.TID 0000.0001) ctrl-wet 6: no recs for i =    28           0
(PID.TID 0000.0001) ctrl-wet 6: no recs for i =    29           0
(PID.TID 0000.0001) ctrl-wet 6: no recs for i =    30           0
(PID.TID 0000.0001) ctrl-wet 6: no recs for i =    31           0
(PID.TID 0000.0001) ctrl-wet 6: no recs for i =    32           0
(PID.TID 0000.0001) ctrl-wet 6: no recs for i =    33           0
(PID.TID 0000.0001) ctrl-wet 6: no recs for i =    34           0
(PID.TID 0000.0001) ctrl-wet 6: no recs for i =    35           0
(PID.TID 0000.0001) ctrl-wet 6: no recs for i =    36           0
(PID.TID 0000.0001) ctrl-wet 6: no recs for i =    37           0
(PID.TID 0000.0001) ctrl-wet 6: no recs for i =    38           0
(PID.TID 0000.0001) ctrl-wet 6: no recs for i =    39           0
(PID.TID 0000.0001) ctrl-wet 6: no recs for i =    40           0
(PID.TID 0000.0001) ctrl-wet 6: no recs for i =    41           0
(PID.TID 0000.0001) ctrl-wet 6: no recs for i =    42           0
(PID.TID 0000.0001) ctrl-wet 6: no recs for i =    43           0
(PID.TID 0000.0001) ctrl-wet 6: no recs for i =    44           0
(PID.TID 0000.0001) ctrl-wet 6: no recs for i =    45           0
(PID.TID 0000.0001) ctrl-wet 6: no recs for i =    46           0
(PID.TID 0000.0001) ctrl-wet 6: no recs for i =    47           0
(PID.TID 0000.0001) ctrl-wet 6: no recs for i =    48           0
(PID.TID 0000.0001) ctrl-wet 6: no recs for i =    49           0
(PID.TID 0000.0001) ctrl-wet 6: no recs for i =    50           0
(PID.TID 0000.0001) ctrl-wet 6: no recs for i =    51           0
(PID.TID 0000.0001) ctrl-wet 6: no recs for i =    52           0
(PID.TID 0000.0001) ctrl-wet 6: no recs for i =    53           0
(PID.TID 0000.0001) ctrl-wet 6: no recs for i =    54           0
(PID.TID 0000.0001) ctrl-wet 6: no recs for i =    55           0
(PID.TID 0000.0001) ctrl-wet 6: no recs for i =    56           0
(PID.TID 0000.0001) ctrl-wet 6: no recs for i =    57           0
(PID.TID 0000.0001) ctrl-wet 6: no recs for i =    58           0
(PID.TID 0000.0001) ctrl-wet 6: no recs for i =    59           0
(PID.TID 0000.0001) ctrl-wet 6: no recs for i =    60           0
(PID.TID 0000.0001) ctrl-wet 6: no recs for i =    61           0
(PID.TID 0000.0001) ctrl-wet 6: no recs for i =    62           0
(PID.TID 0000.0001) ctrl-wet 6: no recs for i =    63           0
(PID.TID 0000.0001) ctrl-wet 6: no recs for i =    64           0
(PID.TID 0000.0001) ctrl-wet 6: no recs for i =    65           0
(PID.TID 0000.0001) ctrl-wet 6: no recs for i =    66           0
(PID.TID 0000.0001) ctrl-wet 6: no recs for i =    67           0
(PID.TID 0000.0001) ctrl-wet 6: no recs for i =    68           0
(PID.TID 0000.0001) ctrl-wet 6: no recs for i =    69           0
(PID.TID 0000.0001) ctrl-wet 6: no recs for i =    70           0
(PID.TID 0000.0001) ctrl-wet 6: no recs for i =    71           0
(PID.TID 0000.0001) ctrl-wet 6: no recs for i =    72           0
(PID.TID 0000.0001) ctrl-wet 6: no recs for i =    73           0
(PID.TID 0000.0001) ctrl-wet 6: no recs for i =    74           0
(PID.TID 0000.0001) ctrl-wet 6: no recs for i =    75           0
(PID.TID 0000.0001) ctrl-wet 6: no recs for i =    76           0
(PID.TID 0000.0001) ctrl-wet 6: no recs for i =    77           0
(PID.TID 0000.0001) ctrl-wet 6: no recs for i =    78           0
(PID.TID 0000.0001) ctrl-wet 6: no recs for i =    79           0
(PID.TID 0000.0001) ctrl-wet 6: no recs for i =    80           0
(PID.TID 0000.0001) ctrl-wet 6: no recs for i =    81           0
(PID.TID 0000.0001) ctrl-wet 6: no recs for i =    82           0
(PID.TID 0000.0001) ctrl-wet 6: no recs for i =    83           0
(PID.TID 0000.0001) ctrl-wet 6: no recs for i =    84           0
(PID.TID 0000.0001) ctrl-wet 6: no recs for i =    85           0
(PID.TID 0000.0001) ctrl-wet 6: no recs for i =    86           0
(PID.TID 0000.0001) ctrl-wet 6: no recs for i =    87           0
(PID.TID 0000.0001) ctrl-wet 6: no recs for i =    88           0
(PID.TID 0000.0001) ctrl-wet 6: no recs for i =    89           0
(PID.TID 0000.0001) ctrl-wet 6: no recs for i =    90           0
(PID.TID 0000.0001) ctrl-wet 6: no recs for i =    91           0
(PID.TID 0000.0001) ctrl-wet 6: no recs for i =    92           0
(PID.TID 0000.0001) ctrl-wet 6: no recs for i =    93           0
(PID.TID 0000.0001) ctrl-wet 6: no recs for i =    94           0
(PID.TID 0000.0001) ctrl-wet 6: no recs for i =    95           0
(PID.TID 0000.0001) ctrl-wet 6: no recs for i =    96           0
(PID.TID 0000.0001) ctrl-wet 6: no recs for i =    97           0
(PID.TID 0000.0001) ctrl-wet 6: no recs for i =    98           0
(PID.TID 0000.0001) ctrl-wet 6: no recs for i =    99           0
(PID.TID 0000.0001) ctrl-wet 6: no recs for i =   100           0
(PID.TID 0000.0001) ctrl-wet 6: no recs for i =   101           0
(PID.TID 0000.0001) ctrl-wet 6: no recs for i =   102           0
(PID.TID 0000.0001) ctrl-wet 6: no recs for i =   103           0
(PID.TID 0000.0001) ctrl-wet 6: no recs for i =   104           0
(PID.TID 0000.0001) ctrl-wet 6: no recs for i =   105           0
(PID.TID 0000.0001) ctrl-wet 6: no recs for i =   106           0
(PID.TID 0000.0001) ctrl-wet 6: no recs for i =   107           0
(PID.TID 0000.0001) ctrl-wet 6: no recs for i =   108           0
(PID.TID 0000.0001) ctrl-wet 6: no recs for i =   109           0
(PID.TID 0000.0001) ctrl-wet 6: no recs for i =   110           0
(PID.TID 0000.0001) ctrl-wet 6: no recs for i =   111           0
(PID.TID 0000.0001) ctrl-wet 6: no recs for i =   112           0
(PID.TID 0000.0001) ctrl-wet 6: no recs for i =   113           0
(PID.TID 0000.0001) ctrl-wet 6: no recs for i =   114           0
(PID.TID 0000.0001) ctrl-wet 6: no recs for i =   115           0
(PID.TID 0000.0001) ctrl-wet 6: no recs for i =   116           0
(PID.TID 0000.0001) ctrl-wet 6: no recs for i =   117           0
(PID.TID 0000.0001) ctrl-wet 6: no recs for i =   118           0
(PID.TID 0000.0001) ctrl-wet 6: no recs for i =   119           0
(PID.TID 0000.0001) ctrl-wet 6: no recs for i =   120           0
(PID.TID 0000.0001) ctrl-wet 6: no recs for i =   121           0
(PID.TID 0000.0001) ctrl-wet 6: no recs for i =   122           0
(PID.TID 0000.0001) ctrl-wet 6: no recs for i =   123           0
(PID.TID 0000.0001) ctrl-wet 6: no recs for i =   124           0
(PID.TID 0000.0001) ctrl-wet 6: no recs for i =   125           0
(PID.TID 0000.0001) ctrl-wet 6: no recs for i =   126           0
(PID.TID 0000.0001) ctrl-wet 6: no recs for i =   127           0
(PID.TID 0000.0001) ctrl-wet 6: no recs for i =   128           0
(PID.TID 0000.0001) ctrl-wet 6: no recs for i =   129           0
(PID.TID 0000.0001) ctrl-wet 6: no recs for i =   130           0
(PID.TID 0000.0001) ctrl-wet 6: no recs for i =   131           0
(PID.TID 0000.0001) ctrl-wet 6: no recs for i =   132           0
(PID.TID 0000.0001) ctrl-wet 6: no recs for i =   133           0
(PID.TID 0000.0001) ctrl-wet 6: no recs for i =   134           0
(PID.TID 0000.0001) ctrl-wet 6: no recs for i =   135           0
(PID.TID 0000.0001) ctrl-wet 6: no recs for i =   136           0
(PID.TID 0000.0001) ctrl-wet 6: no recs for i =   137           0
(PID.TID 0000.0001) ctrl-wet 6: no recs for i =   138           0
(PID.TID 0000.0001) ctrl-wet 6: no recs for i =   139           0
(PID.TID 0000.0001) ctrl-wet 6: no recs for i =   140           0
(PID.TID 0000.0001) ctrl-wet 6: no recs for i =   141           0
(PID.TID 0000.0001) ctrl-wet 6: no recs for i =   142           0
(PID.TID 0000.0001) ctrl-wet 6: no recs for i =   143           0
(PID.TID 0000.0001) ctrl-wet 6: no recs for i =   144           0
(PID.TID 0000.0001) ctrl-wet 6: no recs for i =   145           0
(PID.TID 0000.0001) ctrl-wet 6: no recs for i =   146           0
(PID.TID 0000.0001) ctrl-wet 6: no recs for i =   147           0
(PID.TID 0000.0001) ctrl-wet 6: no recs for i =   148           0
(PID.TID 0000.0001) ctrl-wet 6: no recs for i =   149           0
(PID.TID 0000.0001) ctrl-wet 6: no recs for i =   150           0
(PID.TID 0000.0001) ctrl-wet 6: no recs for i =   151           0
(PID.TID 0000.0001) ctrl-wet 6: no recs for i =   152           0
(PID.TID 0000.0001) ctrl-wet 6: no recs for i =   153           0
(PID.TID 0000.0001) ctrl-wet 6: no recs for i =   154           0
(PID.TID 0000.0001) ctrl-wet 6: no recs for i =   155           0
(PID.TID 0000.0001) ctrl-wet 6: no recs for i =   156           0
(PID.TID 0000.0001) ctrl-wet 6: no recs for i =   157           0
(PID.TID 0000.0001) ctrl-wet 6: no recs for i =   158           0
(PID.TID 0000.0001) ctrl-wet 6: no recs for i =   159           0
(PID.TID 0000.0001) ctrl-wet 6: no recs for i =   160           0
(PID.TID 0000.0001) ctrl-wet 6: no recs for i =   161           0
(PID.TID 0000.0001) ctrl-wet 6: no recs for i =   162           0
(PID.TID 0000.0001) ctrl-wet 6: no recs for i =   163           0
(PID.TID 0000.0001) ctrl-wet 6: no recs for i =   164           0
(PID.TID 0000.0001) ctrl-wet 6: no recs for i =   165           0
(PID.TID 0000.0001) ctrl-wet 6: no recs for i =   166           0
(PID.TID 0000.0001) ctrl-wet 6: no recs for i =   167           0
(PID.TID 0000.0001) ctrl-wet 6: no recs for i =   168           0
(PID.TID 0000.0001) ctrl-wet 6: no recs for i =   169           0
(PID.TID 0000.0001) ctrl-wet 6: no recs for i =   170           0
(PID.TID 0000.0001) ctrl-wet 6: no recs for i =   171           0
(PID.TID 0000.0001) ctrl-wet 6: no recs for i =   172           0
(PID.TID 0000.0001) ctrl-wet 6: no recs for i =   173           0
(PID.TID 0000.0001) ctrl-wet 6: no recs for i =   174           0
(PID.TID 0000.0001) ctrl-wet 6: no recs for i =   175           0
(PID.TID 0000.0001) ctrl-wet 6: no recs for i =   176           0
(PID.TID 0000.0001) ctrl-wet 6: no recs for i =   177           0
(PID.TID 0000.0001) ctrl-wet 6: no recs for i =   178           0
(PID.TID 0000.0001) ctrl-wet 6: no recs for i =   179           0
(PID.TID 0000.0001) ctrl-wet 6: no recs for i =   180           0
(PID.TID 0000.0001) ctrl-wet 6: no recs for i =   181           0
(PID.TID 0000.0001) ctrl-wet 6: no recs for i =   182           0
(PID.TID 0000.0001) ctrl-wet 6: no recs for i =   183           0
(PID.TID 0000.0001) ctrl-wet 6: no recs for i =   184           0
(PID.TID 0000.0001) ctrl-wet 6: no recs for i =   185           0
(PID.TID 0000.0001) ctrl-wet 6: no recs for i =   186           0
(PID.TID 0000.0001) ctrl-wet 6: no recs for i =   187           0
(PID.TID 0000.0001) ctrl-wet 6: no recs for i =   188           0
(PID.TID 0000.0001) ctrl-wet 6: no recs for i =   189           0
(PID.TID 0000.0001) ctrl-wet 6: no recs for i =   190           0
(PID.TID 0000.0001) ctrl-wet 6: no recs for i =   191           0
(PID.TID 0000.0001) ctrl-wet 6: no recs for i =   192           0
(PID.TID 0000.0001) ctrl-wet 6: no recs for i =   193           0
(PID.TID 0000.0001) ctrl-wet 6: no recs for i =   194           0
(PID.TID 0000.0001) ctrl-wet 6: no recs for i =   195           0
(PID.TID 0000.0001) ctrl-wet 6: no recs for i =   196           0
(PID.TID 0000.0001) ctrl-wet 6: no recs for i =   197           0
(PID.TID 0000.0001) ctrl-wet 6: no recs for i =   198           0
(PID.TID 0000.0001) ctrl-wet 6: no recs for i =   199           0
(PID.TID 0000.0001) ctrl-wet 6: no recs for i =   200           0
(PID.TID 0000.0001) ctrl-wet 6: no recs for i =   201           1
(PID.TID 0000.0001) ctrl-wet 6: no recs for i =   202           1
(PID.TID 0000.0001) ctrl-wet 6: no recs for i =   203           1
(PID.TID 0000.0001) ctrl-wet 6: no recs for i =   204           0
(PID.TID 0000.0001) ctrl-wet 6: no recs for i =   205           0
(PID.TID 0000.0001) ctrl-wet 6: no recs for i =   206           0
(PID.TID 0000.0001) ctrl-wet 6: no recs for i =   207           0
(PID.TID 0000.0001) ctrl-wet 6: no recs for i =   208           0
(PID.TID 0000.0001) ctrl-wet 6: no recs for i =   209           0
(PID.TID 0000.0001) ctrl-wet 6: no recs for i =   210           0
(PID.TID 0000.0001) ctrl-wet 6: no recs for i =   211           0
(PID.TID 0000.0001) ctrl-wet 6: no recs for i =   212           0
(PID.TID 0000.0001) ctrl-wet 6: no recs for i =   213           0
(PID.TID 0000.0001) ctrl-wet 6: no recs for i =   214           0
(PID.TID 0000.0001) ctrl-wet 6: no recs for i =   215           0
(PID.TID 0000.0001) ctrl-wet 6: no recs for i =   216           0
(PID.TID 0000.0001) ctrl-wet 6: no recs for i =   217           0
(PID.TID 0000.0001) ctrl-wet 6: no recs for i =   218           0
(PID.TID 0000.0001) ctrl-wet 6: no recs for i =   219           0
(PID.TID 0000.0001) ctrl-wet 6: no recs for i =   220           0
(PID.TID 0000.0001) ctrl-wet 6: no recs for i =   221           0
(PID.TID 0000.0001) ctrl-wet 6: no recs for i =   222           0
(PID.TID 0000.0001) ctrl-wet 6: no recs for i =   223           0
(PID.TID 0000.0001) ctrl-wet 6: no recs for i =   224           0
(PID.TID 0000.0001) ctrl-wet 6: no recs for i =   225           0
(PID.TID 0000.0001) ctrl-wet 6: no recs for i =   226           0
(PID.TID 0000.0001) ctrl-wet 6: no recs for i =   227           0
(PID.TID 0000.0001) ctrl-wet 6: no recs for i =   228           0
(PID.TID 0000.0001) ctrl-wet 6: no recs for i =   229           0
(PID.TID 0000.0001) ctrl-wet 6: no recs for i =   230           0
(PID.TID 0000.0001) ctrl-wet 6: no recs for i =   231           0
(PID.TID 0000.0001) ctrl-wet 6: no recs for i =   232           0
(PID.TID 0000.0001) ctrl-wet 6: no recs for i =   233           0
(PID.TID 0000.0001) ctrl-wet 6: no recs for i =   234           0
(PID.TID 0000.0001) ctrl-wet 6: no recs for i =   235           0
(PID.TID 0000.0001) ctrl-wet 6: no recs for i =   236           0
(PID.TID 0000.0001) ctrl-wet 6: no recs for i =   237           0
(PID.TID 0000.0001) ctrl-wet 6: no recs for i =   238           0
(PID.TID 0000.0001) ctrl-wet 6: no recs for i =   239           0
(PID.TID 0000.0001) ctrl-wet 6: no recs for i =   240           0
(PID.TID 0000.0001) ctrl-wet 6: no recs for i =   241           0
(PID.TID 0000.0001) ctrl-wet 6: no recs for i =   242           0
(PID.TID 0000.0001) ctrl-wet 6: no recs for i =   243           0
(PID.TID 0000.0001) ctrl-wet 6: no recs for i =   244           0
(PID.TID 0000.0001) ctrl-wet 6: no recs for i =   245           0
(PID.TID 0000.0001) ctrl-wet 6: no recs for i =   246           0
(PID.TID 0000.0001) ctrl-wet 6: no recs for i =   247           0
(PID.TID 0000.0001) ctrl-wet 6: no recs for i =   248           0
(PID.TID 0000.0001) ctrl-wet 6: no recs for i =   249           0
(PID.TID 0000.0001) ctrl-wet 6: no recs for i =   250           0
(PID.TID 0000.0001) ctrl-wet 6: no recs for i =   251           0
(PID.TID 0000.0001) ctrl-wet 6: no recs for i =   252           0
(PID.TID 0000.0001) ctrl-wet 6: no recs for i =   253           0
(PID.TID 0000.0001) ctrl-wet 6: no recs for i =   254           0
(PID.TID 0000.0001) ctrl-wet 6: no recs for i =   255           0
(PID.TID 0000.0001) ctrl-wet 6: no recs for i =   256           0
(PID.TID 0000.0001) ctrl-wet 6: no recs for i =   257           0
(PID.TID 0000.0001) ctrl-wet 6: no recs for i =   258           0
(PID.TID 0000.0001) ctrl-wet 6: no recs for i =   259           0
(PID.TID 0000.0001) ctrl-wet 6: no recs for i =   260           0
(PID.TID 0000.0001) ctrl-wet 6: no recs for i =   261           0
(PID.TID 0000.0001) ctrl-wet 6: no recs for i =   262           0
(PID.TID 0000.0001) ctrl-wet 6: no recs for i =   263           0
(PID.TID 0000.0001) ctrl-wet 6: no recs for i =   264           0
(PID.TID 0000.0001) ctrl-wet 6: no recs for i =   265           0
(PID.TID 0000.0001) ctrl-wet 6: no recs for i =   266           0
(PID.TID 0000.0001) ctrl-wet 6: no recs for i =   267           0
(PID.TID 0000.0001) ctrl-wet 6: no recs for i =   268           0
(PID.TID 0000.0001) ctrl-wet 6: no recs for i =   269           0
(PID.TID 0000.0001) ctrl-wet 6: no recs for i =   270           0
(PID.TID 0000.0001) ctrl-wet 6: no recs for i =   271           0
(PID.TID 0000.0001) ctrl-wet 6: no recs for i =   272           0
(PID.TID 0000.0001) ctrl-wet 6: no recs for i =   273           0
(PID.TID 0000.0001) ctrl-wet 6: no recs for i =   274           0
(PID.TID 0000.0001) ctrl-wet 6: no recs for i =   275           0
(PID.TID 0000.0001) ctrl-wet 6: no recs for i =   276           0
(PID.TID 0000.0001) ctrl-wet 6: no recs for i =   277           0
(PID.TID 0000.0001) ctrl-wet 6: no recs for i =   278           0
(PID.TID 0000.0001) ctrl-wet 6: no recs for i =   279           0
(PID.TID 0000.0001) ctrl-wet 6: no recs for i =   280           0
(PID.TID 0000.0001) ctrl-wet 6: no recs for i =   281           0
(PID.TID 0000.0001) ctrl-wet 6: no recs for i =   282           0
(PID.TID 0000.0001) ctrl-wet 6: no recs for i =   283           0
(PID.TID 0000.0001) ctrl-wet 6: no recs for i =   284           0
(PID.TID 0000.0001) ctrl-wet 6: no recs for i =   285           0
(PID.TID 0000.0001) ctrl-wet 6: no recs for i =   286           0
(PID.TID 0000.0001) ctrl-wet 6: no recs for i =   287           0
(PID.TID 0000.0001) ctrl-wet 6: no recs for i =   288           0
(PID.TID 0000.0001) ctrl-wet 6: no recs for i =   289           0
(PID.TID 0000.0001) ctrl-wet 6: no recs for i =   290           0
(PID.TID 0000.0001) ctrl-wet 6: no recs for i =   291           0
(PID.TID 0000.0001) ctrl-wet 6: no recs for i =   292           0
(PID.TID 0000.0001) ctrl-wet 6: no recs for i =   293           0
(PID.TID 0000.0001) ctrl-wet 6: no recs for i =   294           0
(PID.TID 0000.0001) ctrl-wet 6: no recs for i =   295           0
(PID.TID 0000.0001) ctrl-wet 6: no recs for i =   296           0
(PID.TID 0000.0001) ctrl-wet 6: no recs for i =   297           0
(PID.TID 0000.0001) ctrl-wet 6: no recs for i =   298           0
(PID.TID 0000.0001) ctrl-wet 6: no recs for i =   299           0
(PID.TID 0000.0001) ctrl-wet 6: no recs for i =   300           0
(PID.TID 0000.0001) ctrl-wet 6: no recs for i =   301           0
(PID.TID 0000.0001) ctrl-wet 6: no recs for i =   302           0
(PID.TID 0000.0001) ctrl-wet 6: no recs for i =   303           0
(PID.TID 0000.0001) ctrl-wet 6: no recs for i =   304           0
(PID.TID 0000.0001) ctrl-wet 6: no recs for i =   305           0
(PID.TID 0000.0001) ctrl-wet 6: no recs for i =   306           0
(PID.TID 0000.0001) ctrl-wet 6: no recs for i =   307           0
(PID.TID 0000.0001) ctrl-wet 6: no recs for i =   308           0
(PID.TID 0000.0001) ctrl-wet 6: no recs for i =   309           0
(PID.TID 0000.0001) ctrl-wet 6: no recs for i =   310           0
(PID.TID 0000.0001) ctrl-wet 6: no recs for i =   311           0
(PID.TID 0000.0001) ctrl-wet 6: no recs for i =   312           0
(PID.TID 0000.0001) ctrl-wet 6: no recs for i =   313           0
(PID.TID 0000.0001) ctrl-wet 6: no recs for i =   314           0
(PID.TID 0000.0001) ctrl-wet 6: no recs for i =   315           0
(PID.TID 0000.0001) ctrl-wet 6: no recs for i =   316           0
(PID.TID 0000.0001) ctrl-wet 6: no recs for i =   317           0
(PID.TID 0000.0001) ctrl-wet 6: no recs for i =   318           0
(PID.TID 0000.0001) ctrl-wet 6: no recs for i =   319           0
(PID.TID 0000.0001) ctrl-wet 6: no recs for i =   320           0
(PID.TID 0000.0001) ctrl-wet 6: no recs for i =   321           0
(PID.TID 0000.0001) ctrl-wet 6: no recs for i =   322           0
(PID.TID 0000.0001) ctrl-wet 6: no recs for i =   323           0
(PID.TID 0000.0001) ctrl-wet 6: no recs for i =   324           0
(PID.TID 0000.0001) ctrl-wet 6: no recs for i =   325           0
(PID.TID 0000.0001) ctrl-wet 6: no recs for i =   326           0
(PID.TID 0000.0001) ctrl-wet 6: no recs for i =   327           0
(PID.TID 0000.0001) ctrl-wet 6: no recs for i =   328           0
(PID.TID 0000.0001) ctrl-wet 6: no recs for i =   329           0
(PID.TID 0000.0001) ctrl-wet 6: no recs for i =   330           0
(PID.TID 0000.0001) ctrl-wet 6: no recs for i =   331           0
(PID.TID 0000.0001) ctrl-wet 6: no recs for i =   332           0
(PID.TID 0000.0001) ctrl-wet 6: no recs for i =   333           0
(PID.TID 0000.0001) ctrl-wet 6: no recs for i =   334           0
(PID.TID 0000.0001) ctrl-wet 6: no recs for i =   335           0
(PID.TID 0000.0001) ctrl-wet 6: no recs for i =   336           0
(PID.TID 0000.0001) ctrl-wet 6: no recs for i =   337           0
(PID.TID 0000.0001) ctrl-wet 6: no recs for i =   338           0
(PID.TID 0000.0001) ctrl-wet 6: no recs for i =   339           0
(PID.TID 0000.0001) ctrl-wet 6: no recs for i =   340           0
(PID.TID 0000.0001) ctrl-wet 6: no recs for i =   341           0
(PID.TID 0000.0001) ctrl-wet 6: no recs for i =   342           0
(PID.TID 0000.0001) ctrl-wet 6: no recs for i =   343           0
(PID.TID 0000.0001) ctrl-wet 6: no recs for i =   344           0
(PID.TID 0000.0001) ctrl-wet 6: no recs for i =   345           0
(PID.TID 0000.0001) ctrl-wet 6: no recs for i =   346           0
(PID.TID 0000.0001) ctrl-wet 6: no recs for i =   347           0
(PID.TID 0000.0001) ctrl-wet 6: no recs for i =   348           0
(PID.TID 0000.0001) ctrl-wet 6: no recs for i =   349           0
(PID.TID 0000.0001) ctrl-wet 6: no recs for i =   350           0
(PID.TID 0000.0001) ctrl-wet 6: no recs for i =   351           0
(PID.TID 0000.0001) ctrl-wet 6: no recs for i =   352           0
(PID.TID 0000.0001) ctrl-wet 6: no recs for i =   353           0
(PID.TID 0000.0001) ctrl-wet 6: no recs for i =   354           0
(PID.TID 0000.0001) ctrl-wet 6: no recs for i =   355           0
(PID.TID 0000.0001) ctrl-wet 6: no recs for i =   356           0
(PID.TID 0000.0001) ctrl-wet 6: no recs for i =   357           0
(PID.TID 0000.0001) ctrl-wet 6: no recs for i =   358           0
(PID.TID 0000.0001) ctrl-wet 6: no recs for i =   359           0
(PID.TID 0000.0001) ctrl-wet 6: no recs for i =   360           0
(PID.TID 0000.0001) ctrl-wet 6: no recs for i =   361           0
(PID.TID 0000.0001) ctrl-wet 6: no recs for i =   362           0
(PID.TID 0000.0001) ctrl-wet 6: no recs for i =   363           0
(PID.TID 0000.0001) ctrl-wet 6: no recs for i =   364           0
(PID.TID 0000.0001) ctrl-wet 6: no recs for i =   365           0
(PID.TID 0000.0001) ctrl-wet 6: no recs for i =   366           0
(PID.TID 0000.0001) ctrl-wet 6: no recs for i =   367           0
(PID.TID 0000.0001) ctrl-wet 6: no recs for i =   368           0
(PID.TID 0000.0001) ctrl-wet 6: no recs for i =   369           0
(PID.TID 0000.0001) ctrl-wet 6: no recs for i =   370           0
(PID.TID 0000.0001) ctrl-wet 6: no recs for i =   371           0
(PID.TID 0000.0001) ctrl-wet 6: no recs for i =   372           0
(PID.TID 0000.0001) ctrl-wet 6: no recs for i =   373           0
(PID.TID 0000.0001) ctrl-wet 6: no recs for i =   374           0
(PID.TID 0000.0001) ctrl-wet 6: no recs for i =   375           0
(PID.TID 0000.0001) ctrl-wet 6: no recs for i =   376           0
(PID.TID 0000.0001) ctrl-wet 6: no recs for i =   377           0
(PID.TID 0000.0001) ctrl-wet 6: no recs for i =   378           0
(PID.TID 0000.0001) ctrl-wet 6: no recs for i =   379           0
(PID.TID 0000.0001) ctrl-wet 6: no recs for i =   380           0
(PID.TID 0000.0001) ctrl-wet 6: no recs for i =   381           0
(PID.TID 0000.0001) ctrl-wet 6: no recs for i =   382           0
(PID.TID 0000.0001) ctrl-wet 6: no recs for i =   383           0
(PID.TID 0000.0001) ctrl-wet 6: no recs for i =   384           0
(PID.TID 0000.0001) ctrl-wet 6: no recs for i =   385           0
(PID.TID 0000.0001) ctrl-wet 6: no recs for i =   386           0
(PID.TID 0000.0001) ctrl-wet 6: no recs for i =   387           0
(PID.TID 0000.0001) ctrl-wet 6: no recs for i =   388           0
(PID.TID 0000.0001) ctrl-wet 6: no recs for i =   389           0
(PID.TID 0000.0001) ctrl-wet 6: no recs for i =   390           0
(PID.TID 0000.0001) ctrl-wet 6: no recs for i =   391           0
(PID.TID 0000.0001) ctrl-wet 6: no recs for i =   392           0
(PID.TID 0000.0001) ctrl-wet 6: no recs for i =   393           0
(PID.TID 0000.0001) ctrl-wet 6: no recs for i =   394           0
(PID.TID 0000.0001) ctrl-wet 6: no recs for i =   395           0
(PID.TID 0000.0001) ctrl-wet 6: no recs for i =   396           0
(PID.TID 0000.0001) ctrl-wet 6: no recs for i =   397           0
(PID.TID 0000.0001) ctrl-wet 6: no recs for i =   398           0
(PID.TID 0000.0001) ctrl-wet 6: no recs for i =   399           0
(PID.TID 0000.0001) ctrl-wet 6: no recs for i =   400           0
(PID.TID 0000.0001) ctrl-wet 7: flux          1438
(PID.TID 0000.0001) ctrl-wet 8: atmos         1438
(PID.TID 0000.0001) ctrl-wet -------------------------------------------------
(PID.TID 0000.0001) ctrl-wet 13: global nvarlength for Nr =   50     7220976
(PID.TID 0000.0001) ctrl-wet -------------------------------------------------
(PID.TID 0000.0001) ctrl-wet 14: global nWet C/S/W/V k=    1       60646       59295       59493           0
(PID.TID 0000.0001) ctrl-wet 14: global nWet C/S/W/V k=    2       60646       59295       59493           0
(PID.TID 0000.0001) ctrl-wet 14: global nWet C/S/W/V k=    3       59874       58517       58725           0
(PID.TID 0000.0001) ctrl-wet 14: global nWet C/S/W/V k=    4       59387       58040       58258           0
(PID.TID 0000.0001) ctrl-wet 14: global nWet C/S/W/V k=    5       58882       57536       57754           0
(PID.TID 0000.0001) ctrl-wet 14: global nWet C/S/W/V k=    6       58399       57057       57276           0
(PID.TID 0000.0001) ctrl-wet 14: global nWet C/S/W/V k=    7       58052       56735       56936           0
(PID.TID 0000.0001) ctrl-wet 14: global nWet C/S/W/V k=    8       57781       56461       56669           0
(PID.TID 0000.0001) ctrl-wet 14: global nWet C/S/W/V k=    9       57530       56212       56416           0
(PID.TID 0000.0001) ctrl-wet 14: global nWet C/S/W/V k=   10       57283       55964       56154           0
(PID.TID 0000.0001) ctrl-wet 14: global nWet C/S/W/V k=   11       57022       55702       55883           0
(PID.TID 0000.0001) ctrl-wet 14: global nWet C/S/W/V k=   12       56818       55497       55681           0
(PID.TID 0000.0001) ctrl-wet 14: global nWet C/S/W/V k=   13       56634       55322       55509           0
(PID.TID 0000.0001) ctrl-wet 14: global nWet C/S/W/V k=   14       56430       55125       55312           0
(PID.TID 0000.0001) ctrl-wet 14: global nWet C/S/W/V k=   15       56238       54935       55117           0
(PID.TID 0000.0001) ctrl-wet 14: global nWet C/S/W/V k=   16       55975       54689       54858           0
(PID.TID 0000.0001) ctrl-wet 14: global nWet C/S/W/V k=   17       55703       54421       54600           0
(PID.TID 0000.0001) ctrl-wet 14: global nWet C/S/W/V k=   18       55358       54075       54251           0
(PID.TID 0000.0001) ctrl-wet 14: global nWet C/S/W/V k=   19       54964       53666       53853           0
(PID.TID 0000.0001) ctrl-wet 14: global nWet C/S/W/V k=   20       54471       53205       53372           0
(PID.TID 0000.0001) ctrl-wet 14: global nWet C/S/W/V k=   21       53952       52716       52877           0
(PID.TID 0000.0001) ctrl-wet 14: global nWet C/S/W/V k=   22       53489       52249       52409           0
(PID.TID 0000.0001) ctrl-wet 14: global nWet C/S/W/V k=   23       52892       51633       51797           0
(PID.TID 0000.0001) ctrl-wet 14: global nWet C/S/W/V k=   24       52223       50961       51129           0
(PID.TID 0000.0001) ctrl-wet 14: global nWet C/S/W/V k=   25       51696       50480       50635           0
(PID.TID 0000.0001) ctrl-wet 14: global nWet C/S/W/V k=   26       51259       50075       50241           0
(PID.TID 0000.0001) ctrl-wet 14: global nWet C/S/W/V k=   27       50929       49774       49935           0
(PID.TID 0000.0001) ctrl-wet 14: global nWet C/S/W/V k=   28       50664       49532       49678           0
(PID.TID 0000.0001) ctrl-wet 14: global nWet C/S/W/V k=   29       50438       49306       49450           0
(PID.TID 0000.0001) ctrl-wet 14: global nWet C/S/W/V k=   30       50187       49035       49179           0
(PID.TID 0000.0001) ctrl-wet 14: global nWet C/S/W/V k=   31       49964       48805       48937           0
(PID.TID 0000.0001) ctrl-wet 14: global nWet C/S/W/V k=   32       49700       48530       48662           0
(PID.TID 0000.0001) ctrl-wet 14: global nWet C/S/W/V k=   33       49431       48260       48383           0
(PID.TID 0000.0001) ctrl-wet 14: global nWet C/S/W/V k=   34       49176       47993       48108           0
(PID.TID 0000.0001) ctrl-wet 14: global nWet C/S/W/V k=   35       48854       47652       47764           0
(PID.TID 0000.0001) ctrl-wet 14: global nWet C/S/W/V k=   36       48501       47264       47375           0
(PID.TID 0000.0001) ctrl-wet 14: global nWet C/S/W/V k=   37       48098       46846       46951           0
(PID.TID 0000.0001) ctrl-wet 14: global nWet C/S/W/V k=   38       47523       46253       46362           0
(PID.TID 0000.0001) ctrl-wet 14: global nWet C/S/W/V k=   39       46849       45558       45657           0
(PID.TID 0000.0001) ctrl-wet 14: global nWet C/S/W/V k=   40       45984       44670       44751           0
(PID.TID 0000.0001) ctrl-wet 14: global nWet C/S/W/V k=   41       44793       43419       43459           0
(PID.TID 0000.0001) ctrl-wet 14: global nWet C/S/W/V k=   42       42984       41497       41533           0
(PID.TID 0000.0001) ctrl-wet 14: global nWet C/S/W/V k=   43       40302       38691       38718           0
(PID.TID 0000.0001) ctrl-wet 14: global nWet C/S/W/V k=   44       36689       35007       35032           0
(PID.TID 0000.0001) ctrl-wet 14: global nWet C/S/W/V k=   45       31681       30069       29999           0
(PID.TID 0000.0001) ctrl-wet 14: global nWet C/S/W/V k=   46       25595       24028       24031           0
(PID.TID 0000.0001) ctrl-wet 14: global nWet C/S/W/V k=   47       18224       16890       16872           0
(PID.TID 0000.0001) ctrl-wet 14: global nWet C/S/W/V k=   48       11407       10397       10351           0
(PID.TID 0000.0001) ctrl-wet 14: global nWet C/S/W/V k=   49        4597        3913        3912           0
(PID.TID 0000.0001) ctrl-wet 14: global nWet C/S/W/V k=   50         818         624         622           0
(PID.TID 0000.0001) ctrl-wet -------------------------------------------------
(PID.TID 0000.0001) ctrl-wet -------------------------------------------------
(PID.TID 0000.0001) ctrl-wet -------------------------------------------------
(PID.TID 0000.0001) ctrl_init: no. of control variables:            3
(PID.TID 0000.0001) ctrl_init: control vector length:         7220976
(PID.TID 0000.0001) 
(PID.TID 0000.0001) // =======================================================
(PID.TID 0000.0001) // control vector configuration  >>> START <<<
(PID.TID 0000.0001) // =======================================================
(PID.TID 0000.0001) 
(PID.TID 0000.0001)  Total number of ocean points per tile:
(PID.TID 0000.0001)  --------------------------------------
(PID.TID 0000.0001)  snx*sny*nr =    11250
(PID.TID 0000.0001) 
(PID.TID 0000.0001)  Number of ocean points per tile:
(PID.TID 0000.0001)  --------------------------------
(PID.TID 0000.0001)  bi,bj,#(c/s/w): 0001 0001 000719 000491 000711
(PID.TID 0000.0001) 
(PID.TID 0000.0001)  Settings of generic controls:
(PID.TID 0000.0001)  -----------------------------
(PID.TID 0000.0001) 
(PID.TID 0000.0001)  ctrlUseGen  =     T /* use generic controls */
(PID.TID 0000.0001)  -> 3d control, genarr3d no.  1 is in use
(PID.TID 0000.0001)       file       = xx_kapgm
(PID.TID 0000.0001)       weight     = wt_ones.data
(PID.TID 0000.0001)  -> 3d control, genarr3d no.  2 is in use
(PID.TID 0000.0001)       file       = xx_kapredi
(PID.TID 0000.0001)       weight     = wt_ones.data
(PID.TID 0000.0001)  -> 3d control, genarr3d no.  3 is in use
(PID.TID 0000.0001)       file       = xx_diffkr
(PID.TID 0000.0001)       weight     = wt_ones.data
(PID.TID 0000.0001) 
(PID.TID 0000.0001) // =======================================================
(PID.TID 0000.0001) // control vector configuration  >>> END <<<
(PID.TID 0000.0001) // =======================================================
(PID.TID 0000.0001) 
(PID.TID 0000.0001) ------------------------------------------------------------
(PID.TID 0000.0001) DIAGNOSTICS_SET_LEVELS: done
(PID.TID 0000.0001)  Total Nb of available Diagnostics: ndiagt=   205
(PID.TID 0000.0001)  write list of available Diagnostics to file: available_diagnostics.log
(PID.TID 0000.0001) SETDIAG: Allocate 50 x  1 Levels for Diagnostic #    27 SALT
(PID.TID 0000.0001) SETDIAG: Allocate 50 x  1 Levels for Diagnostic #    26 THETA
(PID.TID 0000.0001) SETDIAG: Allocate 50 x  1 Levels for Diagnostic #    45 UVELMASS
(PID.TID 0000.0001) SETDIAG: Allocate 50 x  1 Levels for Diagnostic #    46 VVELMASS
(PID.TID 0000.0001)   space allocated for all diagnostics:     200 levels
(PID.TID 0000.0001)   set mate pointer for diag #    45  UVELMASS , Parms: UUr     MR , mate:    46
(PID.TID 0000.0001)   set mate pointer for diag #    46  VVELMASS , Parms: VVr     MR , mate:    45
(PID.TID 0000.0001) DIAGNOSTICS_SET_POINTERS: done
(PID.TID 0000.0001) ------------------------------------------------------------
(PID.TID 0000.0001) DIAGSTATS_SET_REGIONS: define   0 regions:
(PID.TID 0000.0001) ------------------------------------------------------------
(PID.TID 0000.0001) SETDIAG: Allocate  1 Levels for Stats-Diag #    23 ETAN
(PID.TID 0000.0001) SETDIAG: Allocate 50 Levels for Stats-Diag #    26 THETA
(PID.TID 0000.0001) SETDIAG: Allocate 50 Levels for Stats-Diag #    27 SALT
(PID.TID 0000.0001) SETDIAG: Allocate  1 Levels for Stats-Diag #    86 oceQnet
(PID.TID 0000.0001) SETDIAG: Allocate  1 Levels for Stats-Diag #    84 oceFWflx
(PID.TID 0000.0001) SETDIAG: Allocate  1 Levels for Stats-Diag #    85 oceSflux
(PID.TID 0000.0001)   space allocated for all stats-diags:     104 levels
(PID.TID 0000.0001) DIAGSTATS_SET_POINTERS: done
(PID.TID 0000.0001) ------------------------------------------------------------
(PID.TID 0000.0001) DIAGSTATS_INI_IO: open file: dynStDiag.0000174564.txt , unit=    37
(PID.TID 0000.0001) INI_GLOBAL_DOMAIN: Found   0 CS-corner Pts in the domain
(PID.TID 0000.0001) %MON fCori_max                    =   1.4584096177006E-04
(PID.TID 0000.0001) %MON fCori_min                    =  -1.4576251334415E-04
(PID.TID 0000.0001) %MON fCori_mean                   =  -8.7654439315739E-06
(PID.TID 0000.0001) %MON fCori_sd                     =   1.0383886522938E-04
(PID.TID 0000.0001) %MON fCoriG_max                   =   1.4584247033981E-04
(PID.TID 0000.0001) %MON fCoriG_min                   =  -1.4575575421020E-04
(PID.TID 0000.0001) %MON fCoriG_mean                  =  -8.7205865294813E-06
(PID.TID 0000.0001) %MON fCoriG_sd                    =   1.0386686226587E-04
(PID.TID 0000.0001) %MON fCoriCos_max                 =   1.4584158744890E-04
(PID.TID 0000.0001) %MON fCoriCos_min                 =   6.6334365221135E-07
(PID.TID 0000.0001) %MON fCoriCos_mean                =   9.3676196717296E-05
(PID.TID 0000.0001) %MON fCoriCos_sd                  =   4.0440739161864E-05
(PID.TID 0000.0001) INI_CG2D: CG2D normalisation factor =  7.1522409280111305E-05
(PID.TID 0000.0001) INI_CG2D: cg2dTolerance = 5.690225312240759E-05 (Area=3.5801386115E+14)
(PID.TID 0000.0001) 
(PID.TID 0000.0001) // =======================================================
(PID.TID 0000.0001) // Model configuration
(PID.TID 0000.0001) // =======================================================
(PID.TID 0000.0001) //
(PID.TID 0000.0001) // "Physical" paramters ( PARM01 in namelist )
(PID.TID 0000.0001) //
(PID.TID 0000.0001) buoyancyRelation = /* Type of relation to get Buoyancy */
(PID.TID 0000.0001)               'OCEANIC'
(PID.TID 0000.0001)     ;
(PID.TID 0000.0001) fluidIsAir   =  /* fluid major constituent is Air */
(PID.TID 0000.0001)                   F
(PID.TID 0000.0001)     ;
(PID.TID 0000.0001) fluidIsWater =  /* fluid major constituent is Water */
(PID.TID 0000.0001)                   T
(PID.TID 0000.0001)     ;
(PID.TID 0000.0001) usingPCoords =  /* use p (or p*) vertical coordinate */
(PID.TID 0000.0001)                   F
(PID.TID 0000.0001)     ;
(PID.TID 0000.0001) usingZCoords =  /* use z (or z*) vertical coordinate */
(PID.TID 0000.0001)                   T
(PID.TID 0000.0001)     ;
(PID.TID 0000.0001) tRef =   /* Reference temperature profile ( oC or K ) */
(PID.TID 0000.0001)     3 @  2.300000000000000E+01,             /* K =  1:  3 */
(PID.TID 0000.0001)     3 @  2.200000000000000E+01,             /* K =  4:  6 */
(PID.TID 0000.0001)                 2.100000000000000E+01,      /* K =  7 */
(PID.TID 0000.0001)     2 @  2.000000000000000E+01,             /* K =  8:  9 */
(PID.TID 0000.0001)                 1.900000000000000E+01,      /* K = 10 */
(PID.TID 0000.0001)     2 @  1.800000000000000E+01,             /* K = 11: 12 */
(PID.TID 0000.0001)                 1.700000000000000E+01,      /* K = 13 */
(PID.TID 0000.0001)     2 @  1.600000000000000E+01,             /* K = 14: 15 */
(PID.TID 0000.0001)                 1.500000000000000E+01,      /* K = 16 */
(PID.TID 0000.0001)                 1.400000000000000E+01,      /* K = 17 */
(PID.TID 0000.0001)                 1.300000000000000E+01,      /* K = 18 */
(PID.TID 0000.0001)                 1.200000000000000E+01,      /* K = 19 */
(PID.TID 0000.0001)                 1.100000000000000E+01,      /* K = 20 */
(PID.TID 0000.0001)     2 @  9.000000000000000E+00,             /* K = 21: 22 */
(PID.TID 0000.0001)                 8.000000000000000E+00,      /* K = 23 */
(PID.TID 0000.0001)                 7.000000000000000E+00,      /* K = 24 */
(PID.TID 0000.0001)     2 @  6.000000000000000E+00,             /* K = 25: 26 */
(PID.TID 0000.0001)     2 @  5.000000000000000E+00,             /* K = 27: 28 */
(PID.TID 0000.0001)     3 @  4.000000000000000E+00,             /* K = 29: 31 */
(PID.TID 0000.0001)     3 @  3.000000000000000E+00,             /* K = 32: 34 */
(PID.TID 0000.0001)     4 @  2.000000000000000E+00,             /* K = 35: 38 */
(PID.TID 0000.0001)    12 @  1.000000000000000E+00              /* K = 39: 50 */
(PID.TID 0000.0001)     ;
(PID.TID 0000.0001) sRef =   /* Reference salinity profile ( psu ) */
(PID.TID 0000.0001)    50 @  3.450000000000000E+01              /* K =  1: 50 */
(PID.TID 0000.0001)     ;
(PID.TID 0000.0001) useStrainTensionVisc= /* Use StrainTension Form of Viscous Operator */
(PID.TID 0000.0001)                   F
(PID.TID 0000.0001)     ;
(PID.TID 0000.0001) useVariableVisc = /* Use variable horizontal viscosity */
(PID.TID 0000.0001)                   T
(PID.TID 0000.0001)     ;
(PID.TID 0000.0001) useHarmonicVisc = /* Use harmonic horizontal viscosity */
(PID.TID 0000.0001)                   T
(PID.TID 0000.0001)     ;
(PID.TID 0000.0001) useBiharmonicVisc= /* Use biharmonic horiz.  viscosity */
(PID.TID 0000.0001)                   T
(PID.TID 0000.0001)     ;
(PID.TID 0000.0001) useSmag3D = /* Use isotropic 3-D Smagorinsky viscosity */
(PID.TID 0000.0001)                   F
(PID.TID 0000.0001)     ;
(PID.TID 0000.0001) viscAh  =   /* Lateral harmonic viscosity ( m^2/s ) */
(PID.TID 0000.0001)                 1.000000000000000E+00
(PID.TID 0000.0001)     ;
(PID.TID 0000.0001) viscAhMax = /* Maximum lateral harmonic viscosity ( m^2/s ) */
(PID.TID 0000.0001)                 1.000000000000000E+21
(PID.TID 0000.0001)     ;
(PID.TID 0000.0001) viscAhGrid = /* Grid dependent lateral harmonic viscosity ( non-dim. ) */
(PID.TID 0000.0001)                 2.000000000000000E-02
(PID.TID 0000.0001)     ;
(PID.TID 0000.0001) useFullLeith = /* Use Full Form of Leith Viscosity on/off flag*/
(PID.TID 0000.0001)                   F
(PID.TID 0000.0001)     ;
(PID.TID 0000.0001) useAreaViscLength = /* Use area for visc length instead of geom. mean*/
(PID.TID 0000.0001)                   F
(PID.TID 0000.0001)     ;
(PID.TID 0000.0001) viscC2leith = /* Leith harmonic visc. factor (on grad(vort),non-dim.) */
(PID.TID 0000.0001)                 0.000000000000000E+00
(PID.TID 0000.0001)     ;
(PID.TID 0000.0001) viscC2leithD = /* Leith harmonic viscosity factor (on grad(div),non-dim.)*/
(PID.TID 0000.0001)                 0.000000000000000E+00
(PID.TID 0000.0001)     ;
(PID.TID 0000.0001) viscC2smag = /* Smagorinsky harmonic viscosity factor (non-dim.) */
(PID.TID 0000.0001)                 0.000000000000000E+00
(PID.TID 0000.0001)     ;
(PID.TID 0000.0001) viscA4  =   /* Lateral biharmonic viscosity ( m^4/s ) */
(PID.TID 0000.0001)                 0.000000000000000E+00
(PID.TID 0000.0001)     ;
(PID.TID 0000.0001) viscA4Max = /* Maximum biharmonic viscosity ( m^2/s ) */
(PID.TID 0000.0001)                 1.000000000000000E+21
(PID.TID 0000.0001)     ;
(PID.TID 0000.0001) viscA4Grid = /* Grid dependent biharmonic viscosity ( non-dim. ) */
(PID.TID 0000.0001)                 0.000000000000000E+00
(PID.TID 0000.0001)     ;
(PID.TID 0000.0001) viscC4leith = /* Leith biharm viscosity factor (on grad(vort), non-dim.)*/
(PID.TID 0000.0001)                 0.000000000000000E+00
(PID.TID 0000.0001)     ;
(PID.TID 0000.0001) viscC4leithD = /* Leith biharm viscosity factor (on grad(div), non-dim.) */
(PID.TID 0000.0001)                 0.000000000000000E+00
(PID.TID 0000.0001)     ;
(PID.TID 0000.0001) viscC4Smag = /* Smagorinsky biharm viscosity factor (non-dim) */
(PID.TID 0000.0001)                 0.000000000000000E+00
(PID.TID 0000.0001)     ;
(PID.TID 0000.0001) no_slip_sides =  /* Viscous BCs: No-slip sides */
(PID.TID 0000.0001)                   T
(PID.TID 0000.0001)     ;
(PID.TID 0000.0001) sideDragFactor = /* side-drag scaling factor (non-dim) */
(PID.TID 0000.0001)                 2.000000000000000E+00
(PID.TID 0000.0001)     ;
(PID.TID 0000.0001) viscArNr = /* vertical profile of vertical viscosity ( m^2/s )*/
(PID.TID 0000.0001)    50 @  5.000000000000000E-05              /* K =  1: 50 */
(PID.TID 0000.0001)     ;
(PID.TID 0000.0001) no_slip_bottom =  /* Viscous BCs: No-slip bottom */
(PID.TID 0000.0001)                   T
(PID.TID 0000.0001)     ;
(PID.TID 0000.0001) bottomVisc_pCell = /* Partial-cell in bottom Visc. BC */
(PID.TID 0000.0001)                   F
(PID.TID 0000.0001)     ;
(PID.TID 0000.0001) bottomDragLinear = /* linear bottom-drag coefficient ( m/s ) */
(PID.TID 0000.0001)                 0.000000000000000E+00
(PID.TID 0000.0001)     ;
(PID.TID 0000.0001) bottomDragQuadratic = /* quadratic bottom-drag coefficient (-) */
(PID.TID 0000.0001)                 1.000000000000000E-03
(PID.TID 0000.0001)     ;
(PID.TID 0000.0001) selectBotDragQuadr = /* select quadratic bottom drag options */
(PID.TID 0000.0001)                       0
(PID.TID 0000.0001)     ;
(PID.TID 0000.0001) diffKhT =   /* Laplacian diffusion of heat laterally ( m^2/s ) */
(PID.TID 0000.0001)                 1.000000000000000E+01
(PID.TID 0000.0001)     ;
(PID.TID 0000.0001) diffK4T =   /* Biharmonic diffusion of heat laterally ( m^4/s ) */
(PID.TID 0000.0001)                 0.000000000000000E+00
(PID.TID 0000.0001)     ;
(PID.TID 0000.0001) diffKhS =   /* Laplacian diffusion of salt laterally ( m^2/s ) */
(PID.TID 0000.0001)                 1.000000000000000E+01
(PID.TID 0000.0001)     ;
(PID.TID 0000.0001) diffK4S =   /* Biharmonic diffusion of salt laterally ( m^4/s ) */
(PID.TID 0000.0001)                 0.000000000000000E+00
(PID.TID 0000.0001)     ;
(PID.TID 0000.0001) diffKrNrT = /* vertical profile of vertical diffusion of Temp ( m^2/s )*/
(PID.TID 0000.0001)    50 @  1.000000000000000E-05              /* K =  1: 50 */
(PID.TID 0000.0001)     ;
(PID.TID 0000.0001) diffKrNrS = /* vertical profile of vertical diffusion of Salt ( m^2/s )*/
(PID.TID 0000.0001)    50 @  1.000000000000000E-05              /* K =  1: 50 */
(PID.TID 0000.0001)     ;
(PID.TID 0000.0001) diffKrBL79surf = /* Surface diffusion for Bryan and Lewis 79 ( m^2/s ) */
(PID.TID 0000.0001)                 0.000000000000000E+00
(PID.TID 0000.0001)     ;
(PID.TID 0000.0001) diffKrBL79deep = /* Deep diffusion for Bryan and Lewis 1979 ( m^2/s ) */
(PID.TID 0000.0001)                 0.000000000000000E+00
(PID.TID 0000.0001)     ;
(PID.TID 0000.0001) diffKrBL79scl = /* Depth scale for Bryan and Lewis 1979 ( m ) */
(PID.TID 0000.0001)                 2.000000000000000E+02
(PID.TID 0000.0001)     ;
(PID.TID 0000.0001) diffKrBL79Ho = /* Turning depth for Bryan and Lewis 1979 ( m ) */
(PID.TID 0000.0001)                -2.000000000000000E+03
(PID.TID 0000.0001)     ;
(PID.TID 0000.0001) ivdc_kappa = /* Implicit Vertical Diffusivity for Convection ( m^2/s) */
(PID.TID 0000.0001)                 1.000000000000000E+01
(PID.TID 0000.0001)     ;
(PID.TID 0000.0001) hMixCriteria=  /* Criteria for mixed-layer diagnostic */
(PID.TID 0000.0001)                -8.000000000000000E-01
(PID.TID 0000.0001)     ;
(PID.TID 0000.0001) dRhoSmall =  /* Parameter for mixed-layer diagnostic */
(PID.TID 0000.0001)                 1.000000000000000E-06
(PID.TID 0000.0001)     ;
(PID.TID 0000.0001) hMixSmooth=  /* Smoothing parameter for mixed-layer diagnostic */
(PID.TID 0000.0001)                 0.000000000000000E+00
(PID.TID 0000.0001)     ;
(PID.TID 0000.0001) eosType =  /* Type of Equation of State */
(PID.TID 0000.0001)               'JMD95Z'
(PID.TID 0000.0001)     ;
(PID.TID 0000.0001) selectP_inEOS_Zc = /* select pressure to use in EOS (0,1,2,3) */
(PID.TID 0000.0001)                       0
(PID.TID 0000.0001)     0= -g*rhoConst*z ; 1= pRef (from tRef,sRef); 2= Hyd P ; 3= Hyd+NH P
(PID.TID 0000.0001)     ;
(PID.TID 0000.0001) HeatCapacity_Cp =  /* Specific heat capacity ( J/kg/K ) */
(PID.TID 0000.0001)                 3.994000000000000E+03
(PID.TID 0000.0001)     ;
(PID.TID 0000.0001) celsius2K = /* 0 degree Celsius converted to Kelvin ( K ) */
(PID.TID 0000.0001)                 2.731500000000000E+02
(PID.TID 0000.0001)     ;
(PID.TID 0000.0001) rhoConst  = /* Reference density (Boussinesq)  ( kg/m^3 ) */
(PID.TID 0000.0001)                 1.029000000000000E+03
(PID.TID 0000.0001)     ;
(PID.TID 0000.0001) rhoFacC = /* normalized Reference density @ cell-Center (-) */
(PID.TID 0000.0001)    50 @  1.000000000000000E+00              /* K =  1: 50 */
(PID.TID 0000.0001)     ;
(PID.TID 0000.0001) rhoFacF = /* normalized Reference density @ W-Interface (-) */
(PID.TID 0000.0001)    51 @  1.000000000000000E+00              /* K =  1: 51 */
(PID.TID 0000.0001)     ;
(PID.TID 0000.0001) rhoConstFresh = /* Fresh-water reference density ( kg/m^3 ) */
(PID.TID 0000.0001)                 1.000000000000000E+03
(PID.TID 0000.0001)     ;
(PID.TID 0000.0001) gravity =   /* Gravitational acceleration ( m/s^2 ) */
(PID.TID 0000.0001)                 9.810000000000000E+00
(PID.TID 0000.0001)     ;
(PID.TID 0000.0001) gBaro =   /* Barotropic gravity ( m/s^2 ) */
(PID.TID 0000.0001)                 9.810000000000000E+00
(PID.TID 0000.0001)     ;
(PID.TID 0000.0001) gravFacC = /* gravity factor (vs surf.) @ cell-Center (-) */
(PID.TID 0000.0001)    50 @  1.000000000000000E+00              /* K =  1: 50 */
(PID.TID 0000.0001)     ;
(PID.TID 0000.0001) gravFacF = /* gravity factor (vs surf.) @ W-Interface (-) */
(PID.TID 0000.0001)    51 @  1.000000000000000E+00              /* K =  1: 51 */
(PID.TID 0000.0001)     ;
(PID.TID 0000.0001) rotationPeriod =   /* Rotation Period ( s ) */
(PID.TID 0000.0001)                 8.616400000000000E+04
(PID.TID 0000.0001)     ;
(PID.TID 0000.0001) omega =   /* Angular velocity ( rad/s ) */
(PID.TID 0000.0001)                 7.292123516990375E-05
(PID.TID 0000.0001)     ;
(PID.TID 0000.0001) f0 =   /* Reference coriolis parameter ( 1/s ) */
(PID.TID 0000.0001)                 1.000000000000000E-04
(PID.TID 0000.0001)     ;
(PID.TID 0000.0001) beta =   /* Beta ( 1/(m.s) ) */
(PID.TID 0000.0001)                 9.999999999999999E-12
(PID.TID 0000.0001)     ;
(PID.TID 0000.0001) fPrime =   /* Second coriolis parameter ( 1/s ) */
(PID.TID 0000.0001)                 0.000000000000000E+00
(PID.TID 0000.0001)     ;
(PID.TID 0000.0001) rigidLid =   /* Rigid lid on/off flag */
(PID.TID 0000.0001)                   F
(PID.TID 0000.0001)     ;
(PID.TID 0000.0001) implicitFreeSurface =   /* Implicit free surface on/off flag */
(PID.TID 0000.0001)                   T
(PID.TID 0000.0001)     ;
(PID.TID 0000.0001) freeSurfFac =   /* Implicit free surface factor */
(PID.TID 0000.0001)                 1.000000000000000E+00
(PID.TID 0000.0001)     ;
(PID.TID 0000.0001) implicSurfPress =  /* Surface Pressure implicit factor (0-1)*/
(PID.TID 0000.0001)                 1.000000000000000E+00
(PID.TID 0000.0001)     ;
(PID.TID 0000.0001) implicDiv2DFlow =  /* Barot. Flow Div. implicit factor (0-1)*/
(PID.TID 0000.0001)                 1.000000000000000E+00
(PID.TID 0000.0001)     ;
(PID.TID 0000.0001) uniformLin_PhiSurf = /* use uniform Bo_surf on/off flag*/
(PID.TID 0000.0001)                   T
(PID.TID 0000.0001)     ;
(PID.TID 0000.0001) uniformFreeSurfLev = /* free-surface level-index is uniform */
(PID.TID 0000.0001)                   T
(PID.TID 0000.0001)     ;
(PID.TID 0000.0001) hFacMin =   /* minimum partial cell factor (hFac) */
(PID.TID 0000.0001)                 2.000000000000000E-01
(PID.TID 0000.0001)     ;
(PID.TID 0000.0001) hFacMinDr = /* minimum partial cell thickness ( m) */
(PID.TID 0000.0001)                 5.000000000000000E+00
(PID.TID 0000.0001)     ;
(PID.TID 0000.0001) exactConserv =  /* Exact Volume Conservation on/off flag*/
(PID.TID 0000.0001)                   T
(PID.TID 0000.0001)     ;
(PID.TID 0000.0001) linFSConserveTr = /* Tracer correction for Lin Free Surface on/off flag*/
(PID.TID 0000.0001)                   F
(PID.TID 0000.0001)     ;
(PID.TID 0000.0001) nonlinFreeSurf = /* Non-linear Free Surf. options (-1,0,1,2,3)*/
(PID.TID 0000.0001)                       4
(PID.TID 0000.0001)      -1,0= Off ; 1,2,3= On, 2=+rescale gU,gV, 3=+update cg2d solv.
(PID.TID 0000.0001)     ;
(PID.TID 0000.0001) hFacInf =   /* lower threshold for hFac (nonlinFreeSurf only)*/
(PID.TID 0000.0001)                 2.000000000000000E-01
(PID.TID 0000.0001)     ;
(PID.TID 0000.0001) hFacSup =   /* upper threshold for hFac (nonlinFreeSurf only)*/
(PID.TID 0000.0001)                 2.000000000000000E+00
(PID.TID 0000.0001)     ;
(PID.TID 0000.0001) select_rStar = /* r* Vertical coord. options (=0 r coord.; >0 uses r*)*/
(PID.TID 0000.0001)                       2
(PID.TID 0000.0001)     ;
(PID.TID 0000.0001) useRealFreshWaterFlux = /* Real Fresh Water Flux on/off flag*/
(PID.TID 0000.0001)                   T
(PID.TID 0000.0001)     ;
(PID.TID 0000.0001) temp_EvPrRn = /* Temp. of Evap/Prec/R (UNSET=use local T)(oC)*/
(PID.TID 0000.0001)                 1.234567000000000E+05
(PID.TID 0000.0001)     ;
(PID.TID 0000.0001) salt_EvPrRn = /* Salin. of Evap/Prec/R (UNSET=use local S)(psu)*/
(PID.TID 0000.0001)                 0.000000000000000E+00
(PID.TID 0000.0001)     ;
(PID.TID 0000.0001) selectAddFluid = /* option for mass source/sink of fluid (=0: off) */
(PID.TID 0000.0001)                       0
(PID.TID 0000.0001)     ;
(PID.TID 0000.0001) temp_addMass = /* Temp. of addMass array (UNSET=use local T)(oC)*/
(PID.TID 0000.0001)                 1.234567000000000E+05
(PID.TID 0000.0001)     ;
(PID.TID 0000.0001) salt_addMass = /* Salin. of addMass array (UNSET=use local S)(psu)*/
(PID.TID 0000.0001)                 0.000000000000000E+00
(PID.TID 0000.0001)     ;
(PID.TID 0000.0001) use3Dsolver = /* use 3-D pressure solver on/off flag */
(PID.TID 0000.0001)                   F
(PID.TID 0000.0001)     ;
(PID.TID 0000.0001) nonHydrostatic =  /* Non-Hydrostatic on/off flag */
(PID.TID 0000.0001)                   F
(PID.TID 0000.0001)     ;
(PID.TID 0000.0001) nh_Am2 = /* Non-Hydrostatic terms scaling factor */
(PID.TID 0000.0001)                 1.000000000000000E+00
(PID.TID 0000.0001)     ;
(PID.TID 0000.0001) implicitNHPress = /* Non-Hyd Pressure implicit factor (0-1)*/
(PID.TID 0000.0001)                 1.000000000000000E+00
(PID.TID 0000.0001)     ;
(PID.TID 0000.0001) selectNHfreeSurf = /* Non-Hyd (free-)Surface option */
(PID.TID 0000.0001)                       0
(PID.TID 0000.0001)     ;
(PID.TID 0000.0001) quasiHydrostatic = /* Quasi-Hydrostatic on/off flag */
(PID.TID 0000.0001)                   F
(PID.TID 0000.0001)     ;
(PID.TID 0000.0001) calc_wVelocity = /* vertical velocity calculation on/off flag */
(PID.TID 0000.0001)                   T
(PID.TID 0000.0001)     ;
(PID.TID 0000.0001) momStepping =  /* Momentum equation on/off flag */
(PID.TID 0000.0001)                   T
(PID.TID 0000.0001)     ;
(PID.TID 0000.0001) vectorInvariantMomentum= /* Vector-Invariant Momentum on/off */
(PID.TID 0000.0001)                   T
(PID.TID 0000.0001)     ;
(PID.TID 0000.0001) momAdvection =  /* Momentum advection on/off flag */
(PID.TID 0000.0001)                   T
(PID.TID 0000.0001)     ;
(PID.TID 0000.0001) momViscosity =  /* Momentum viscosity on/off flag */
(PID.TID 0000.0001)                   T
(PID.TID 0000.0001)     ;
(PID.TID 0000.0001) momImplVertAdv= /* Momentum implicit vert. advection on/off*/
(PID.TID 0000.0001)                   F
(PID.TID 0000.0001)     ;
(PID.TID 0000.0001) implicitViscosity = /* Implicit viscosity on/off flag */
(PID.TID 0000.0001)                   T
(PID.TID 0000.0001)     ;
(PID.TID 0000.0001) selectImplicitDrag= /* Implicit bot Drag options (0,1,2)*/
(PID.TID 0000.0001)                       0
(PID.TID 0000.0001)     0= Expl. ; 1= Impl. on provis. Vel ; 2= Fully Impl (with surf.P)
(PID.TID 0000.0001)     ;
(PID.TID 0000.0001) metricTerms =  /* metric-Terms on/off flag */
(PID.TID 0000.0001)                   F
(PID.TID 0000.0001)     ;
(PID.TID 0000.0001) useNHMTerms = /* Non-Hydrostatic Metric-Terms on/off */
(PID.TID 0000.0001)                   F
(PID.TID 0000.0001)     ;
(PID.TID 0000.0001) selectCoriMap = /* Coriolis Map options (0,1,2,3)*/
(PID.TID 0000.0001)                       2
(PID.TID 0000.0001)     0= f-Plane ; 1= Beta-Plane ; 2= Spherical ; 3= read from file
(PID.TID 0000.0001)     ;
(PID.TID 0000.0001) use3dCoriolis = /* 3-D Coriolis on/off flag */
(PID.TID 0000.0001)                   F
(PID.TID 0000.0001)     ;
(PID.TID 0000.0001) useCoriolis =  /* Coriolis on/off flag */
(PID.TID 0000.0001)                   T
(PID.TID 0000.0001)     ;
(PID.TID 0000.0001) useCDscheme =  /* CD scheme on/off flag */
(PID.TID 0000.0001)                   F
(PID.TID 0000.0001)     ;
(PID.TID 0000.0001) useEnergyConservingCoriolis= /* Flx-Form Coriolis scheme flag */
(PID.TID 0000.0001)                   F
(PID.TID 0000.0001)     ;
(PID.TID 0000.0001) useJamartWetPoints= /* Coriolis WetPoints method flag */
(PID.TID 0000.0001)                   T
(PID.TID 0000.0001)     ;
(PID.TID 0000.0001) useJamartMomAdv= /* V.I Non-linear terms Jamart flag */
(PID.TID 0000.0001)                   F
(PID.TID 0000.0001)     ;
(PID.TID 0000.0001) useAbsVorticity= /* V.I Works with f+zeta in Coriolis */
(PID.TID 0000.0001)                   F
(PID.TID 0000.0001)     ;
(PID.TID 0000.0001) selectVortScheme= /* V.I Scheme selector for Vorticity-Term */
(PID.TID 0000.0001)                       1
(PID.TID 0000.0001)    = 0 : enstrophy (Shallow-Water Eq.) conserving scheme by Sadourny, JAS 75
(PID.TID 0000.0001)    = 1 : same as 0 with modified hFac
(PID.TID 0000.0001)    = 2 : energy conserving scheme (used by Sadourny in JAS 75 paper)
(PID.TID 0000.0001)    = 3 : energy (general) and enstrophy (2D, nonDiv.) conserving scheme
(PID.TID 0000.0001)          from Sadourny (Burridge & Haseler, ECMWF Rep.4, 1977)
(PID.TID 0000.0001)     ;
(PID.TID 0000.0001) upwindVorticity= /* V.I Upwind bias vorticity flag */
(PID.TID 0000.0001)                   F
(PID.TID 0000.0001)     ;
(PID.TID 0000.0001) highOrderVorticity= /* V.I High order vort. advect. flag */
(PID.TID 0000.0001)                   F
(PID.TID 0000.0001)     ;
(PID.TID 0000.0001) upwindShear= /* V.I Upwind vertical Shear advection flag */
(PID.TID 0000.0001)                   F
(PID.TID 0000.0001)     ;
(PID.TID 0000.0001) selectKEscheme= /* V.I Kinetic Energy scheme selector */
(PID.TID 0000.0001)                       0
(PID.TID 0000.0001)     ;
(PID.TID 0000.0001) momForcing =  /* Momentum forcing on/off flag */
(PID.TID 0000.0001)                   T
(PID.TID 0000.0001)     ;
(PID.TID 0000.0001) momTidalForcing = /* Momentum Tidal forcing on/off flag */
(PID.TID 0000.0001)                   T
(PID.TID 0000.0001)     ;
(PID.TID 0000.0001) momPressureForcing =  /* Momentum pressure term on/off flag */
(PID.TID 0000.0001)                   T
(PID.TID 0000.0001)     ;
(PID.TID 0000.0001) implicitIntGravWave= /* Implicit Internal Gravity Wave flag */
(PID.TID 0000.0001)                   F
(PID.TID 0000.0001)     ;
(PID.TID 0000.0001) staggerTimeStep =    /* Stagger time stepping on/off flag */
(PID.TID 0000.0001)                   T
(PID.TID 0000.0001)     ;
(PID.TID 0000.0001) doResetHFactors = /* reset thickness factors @ each time-step */
(PID.TID 0000.0001)                   F
(PID.TID 0000.0001)     ;
(PID.TID 0000.0001) multiDimAdvection =  /* enable/disable Multi-Dim Advection */
(PID.TID 0000.0001)                   T
(PID.TID 0000.0001)     ;
(PID.TID 0000.0001) useMultiDimAdvec =   /* Multi-Dim Advection is/is-not used */
(PID.TID 0000.0001)                   T
(PID.TID 0000.0001)     ;
(PID.TID 0000.0001) implicitDiffusion = /* Implicit Diffusion on/off flag */
(PID.TID 0000.0001)                   T
(PID.TID 0000.0001)     ;
(PID.TID 0000.0001) tempStepping =  /* Temperature equation on/off flag */
(PID.TID 0000.0001)                   T
(PID.TID 0000.0001)     ;
(PID.TID 0000.0001) tempAdvection = /* Temperature advection on/off flag */
(PID.TID 0000.0001)                   T
(PID.TID 0000.0001)     ;
(PID.TID 0000.0001) tempImplVertAdv = /* Temp. implicit vert. advection on/off */
(PID.TID 0000.0001)                   F
(PID.TID 0000.0001)     ;
(PID.TID 0000.0001) tempForcing  =  /* Temperature forcing on/off flag */
(PID.TID 0000.0001)                   T
(PID.TID 0000.0001)     ;
(PID.TID 0000.0001) balanceQnet  =  /* balance net heat-flux on/off flag */
(PID.TID 0000.0001)                   F
(PID.TID 0000.0001)     ;
(PID.TID 0000.0001) doThetaClimRelax = /* apply SST relaxation on/off flag */
(PID.TID 0000.0001)                   F
(PID.TID 0000.0001)     ;
(PID.TID 0000.0001) balanceThetaClimRelax= /* balance SST relaxation on/off flag */
(PID.TID 0000.0001)                   F
(PID.TID 0000.0001)     ;
(PID.TID 0000.0001) tempIsActiveTr = /* Temp. is a dynamically Active Tracer */
(PID.TID 0000.0001)                   T
(PID.TID 0000.0001)     ;
(PID.TID 0000.0001) saltStepping =  /* Salinity equation on/off flag */
(PID.TID 0000.0001)                   T
(PID.TID 0000.0001)     ;
(PID.TID 0000.0001) saltAdvection = /* Salinity advection on/off flag */
(PID.TID 0000.0001)                   T
(PID.TID 0000.0001)     ;
(PID.TID 0000.0001) saltImplVertAdv = /* Sali. implicit vert. advection on/off */
(PID.TID 0000.0001)                   F
(PID.TID 0000.0001)     ;
(PID.TID 0000.0001) saltForcing  =  /* Salinity forcing on/off flag */
(PID.TID 0000.0001)                   T
(PID.TID 0000.0001)     ;
(PID.TID 0000.0001) balanceEmPmR =  /* balance net fresh-water flux on/off flag */
(PID.TID 0000.0001)                   F
(PID.TID 0000.0001)     ;
(PID.TID 0000.0001) doSaltClimRelax = /* apply SSS relaxation on/off flag */
(PID.TID 0000.0001)                   F
(PID.TID 0000.0001)     ;
(PID.TID 0000.0001) balanceSaltClimRelax= /* balance SSS relaxation on/off flag */
(PID.TID 0000.0001)                   T
(PID.TID 0000.0001)     ;
(PID.TID 0000.0001) saltIsActiveTr = /* Salt  is a dynamically Active Tracer */
(PID.TID 0000.0001)                   T
(PID.TID 0000.0001)     ;
(PID.TID 0000.0001)  readBinaryPrec = /* Precision used for reading binary files */
(PID.TID 0000.0001)                      32
(PID.TID 0000.0001)     ;
(PID.TID 0000.0001) writeBinaryPrec = /* Precision used for writing binary files */
(PID.TID 0000.0001)                      32
(PID.TID 0000.0001)     ;
(PID.TID 0000.0001)  rwSuffixType =   /* select format of mds file suffix */
(PID.TID 0000.0001)                       0
(PID.TID 0000.0001)    = 0 : myIter (I10.10) ;   = 1 : 100*myTime (100th sec) ;
(PID.TID 0000.0001)    = 2 : myTime (seconds);   = 3 : myTime/360 (10th of hr);
(PID.TID 0000.0001)    = 4 : myTime/3600 (hours)
(PID.TID 0000.0001)     ;
(PID.TID 0000.0001)  globalFiles = /* write "global" (=not per tile) files */
(PID.TID 0000.0001)                   F
(PID.TID 0000.0001)     ;
(PID.TID 0000.0001)  useSingleCpuIO = /* only master MPI process does I/O */
(PID.TID 0000.0001)                   T
(PID.TID 0000.0001)     ;
(PID.TID 0000.0001)  useSingleCpuInput = /* only master process reads input */
(PID.TID 0000.0001)                   T
(PID.TID 0000.0001)     ;
(PID.TID 0000.0001) /* debLev[*]  : level of debug & auxiliary message printing */
(PID.TID 0000.0001) debLevZero =  0 ; /* level of disabled aux. msg printing */
(PID.TID 0000.0001)    debLevA =  1 ; /* level of minimum  aux. msg printing */
(PID.TID 0000.0001)    debLevB =  2 ; /* level of low aux. print (report read-file opening)*/
(PID.TID 0000.0001)    debLevC =  3 ; /* level of moderate debug prt (most pkgs debug msg) */
(PID.TID 0000.0001)    debLevD =  4 ; /* level of enhanced debug prt (add DEBUG_STATS prt) */
(PID.TID 0000.0001)    debLevE =  5 ; /* level of extensive debug printing */
(PID.TID 0000.0001) debugLevel =  /* select debug printing level */
(PID.TID 0000.0001)                       1
(PID.TID 0000.0001)     ;
(PID.TID 0000.0001)  plotLevel =  /* select PLOT_FIELD printing level */
(PID.TID 0000.0001)                       1
(PID.TID 0000.0001)     ;
(PID.TID 0000.0001) //
(PID.TID 0000.0001) // Elliptic solver(s) paramters ( PARM02 in namelist )
(PID.TID 0000.0001) //
(PID.TID 0000.0001) cg2dMaxIters =   /* Upper limit on 2d con. grad iterations  */
(PID.TID 0000.0001)                     300
(PID.TID 0000.0001)     ;
(PID.TID 0000.0001) cg2dChkResFreq =   /* 2d con. grad convergence test frequency */
(PID.TID 0000.0001)                       1
(PID.TID 0000.0001)     ;
(PID.TID 0000.0001) cg2dUseMinResSol= /* use cg2d last-iter(=0) / min-resid.(=1) solution */
(PID.TID 0000.0001)                       0
(PID.TID 0000.0001)     ;
(PID.TID 0000.0001) cg2dTargetResidual =   /* 2d con. grad target residual  */
(PID.TID 0000.0001)                 1.000000000000000E-07
(PID.TID 0000.0001)     ;
(PID.TID 0000.0001) cg2dTargetResWunit =   /* CG2d target residual [W units] */
(PID.TID 0000.0001)                 1.000000000000000E-12
(PID.TID 0000.0001)     ;
(PID.TID 0000.0001) cg2dPreCondFreq =   /* Freq. for updating cg2d preconditioner */
(PID.TID 0000.0001)                       1
(PID.TID 0000.0001)     ;
(PID.TID 0000.0001) useSRCGSolver =  /* use single reduction CG solver(s) */
(PID.TID 0000.0001)                   F
(PID.TID 0000.0001)     ;
(PID.TID 0000.0001) printResidualFreq = /* Freq. for printing CG residual */
(PID.TID 0000.0001)                       0
(PID.TID 0000.0001)     ;
(PID.TID 0000.0001) //
(PID.TID 0000.0001) // Time stepping paramters ( PARM03 in namelist )
(PID.TID 0000.0001) //
(PID.TID 0000.0001) deltaTMom =   /* Momentum equation timestep ( s ) */
(PID.TID 0000.0001)                 4.500000000000000E+02
(PID.TID 0000.0001)     ;
(PID.TID 0000.0001) deltaTFreeSurf = /* FreeSurface equation timestep ( s ) */
(PID.TID 0000.0001)                 4.500000000000000E+02
(PID.TID 0000.0001)     ;
(PID.TID 0000.0001) dTtracerLev =  /* Tracer equation timestep ( s ) */
(PID.TID 0000.0001)    50 @  4.500000000000000E+02              /* K =  1: 50 */
(PID.TID 0000.0001)     ;
(PID.TID 0000.0001) deltaTClock  =   /* Model clock timestep ( s ) */
(PID.TID 0000.0001)                 4.500000000000000E+02
(PID.TID 0000.0001)     ;
(PID.TID 0000.0001) cAdjFreq =   /* Convective adjustment interval ( s ) */
(PID.TID 0000.0001)                 0.000000000000000E+00
(PID.TID 0000.0001)     ;
(PID.TID 0000.0001) momForcingOutAB = /* =1: take Momentum Forcing out of Adams-Bash. stepping */
(PID.TID 0000.0001)                       1
(PID.TID 0000.0001)     ;
(PID.TID 0000.0001) tracForcingOutAB = /* =1: take T,S,pTr Forcing out of Adams-Bash. stepping */
(PID.TID 0000.0001)                       1
(PID.TID 0000.0001)     ;
(PID.TID 0000.0001) momDissip_In_AB = /* put Dissipation Tendency in Adams-Bash. stepping */
(PID.TID 0000.0001)                   F
(PID.TID 0000.0001)     ;
(PID.TID 0000.0001) doAB_onGtGs = /* apply AB on Tendencies (rather than on T,S)*/
(PID.TID 0000.0001)                   T
(PID.TID 0000.0001)     ;
(PID.TID 0000.0001) abEps =   /* Adams-Bashforth-2 stabilizing weight */
(PID.TID 0000.0001)                 1.000000000000000E-01
(PID.TID 0000.0001)     ;
(PID.TID 0000.0001) applyExchUV_early = /* Apply EXCH to U,V earlier in time-step */
(PID.TID 0000.0001)                   F
(PID.TID 0000.0001)     ;
(PID.TID 0000.0001) pickupStrictlyMatch= /* stop if pickup do not strictly match */
(PID.TID 0000.0001)                   F
(PID.TID 0000.0001)     ;
(PID.TID 0000.0001) nIter0   =   /* Run starting timestep number */
(PID.TID 0000.0001)                  174564
(PID.TID 0000.0001)     ;
(PID.TID 0000.0001) nTimeSteps = /* Number of timesteps */
(PID.TID 0000.0001)                     192
(PID.TID 0000.0001)     ;
(PID.TID 0000.0001) nEndIter =   /* Run ending timestep number */
(PID.TID 0000.0001)                  174756
(PID.TID 0000.0001)     ;
(PID.TID 0000.0001) baseTime =   /* Model base time ( s ) */
(PID.TID 0000.0001)                 0.000000000000000E+00
(PID.TID 0000.0001)     ;
(PID.TID 0000.0001) startTime =  /* Run start time ( s ) */
(PID.TID 0000.0001)                 7.855380000000000E+07
(PID.TID 0000.0001)     ;
(PID.TID 0000.0001) endTime  =   /* Integration ending time ( s ) */
(PID.TID 0000.0001)                 7.864020000000000E+07
(PID.TID 0000.0001)     ;
(PID.TID 0000.0001) pChkPtFreq = /* Permanent restart/pickup file interval ( s ) */
(PID.TID 0000.0001)                 8.640000000000000E+04
(PID.TID 0000.0001)     ;
(PID.TID 0000.0001) chkPtFreq  = /* Rolling restart/pickup file interval ( s ) */
(PID.TID 0000.0001)                 8.640000000000000E+04
(PID.TID 0000.0001)     ;
(PID.TID 0000.0001) pickup_write_mdsio =   /* Model IO flag. */
(PID.TID 0000.0001)                   T
(PID.TID 0000.0001)     ;
(PID.TID 0000.0001) pickup_read_mdsio =   /* Model IO flag. */
(PID.TID 0000.0001)                   T
(PID.TID 0000.0001)     ;
(PID.TID 0000.0001) writePickupAtEnd =   /* Model IO flag. */
(PID.TID 0000.0001)                   T
(PID.TID 0000.0001)     ;
(PID.TID 0000.0001) dumpFreq =   /* Model state write out interval ( s ). */
(PID.TID 0000.0001)                 0.000000000000000E+00
(PID.TID 0000.0001)     ;
(PID.TID 0000.0001) dumpInitAndLast= /* write out Initial & Last iter. model state */
(PID.TID 0000.0001)                   T
(PID.TID 0000.0001)     ;
(PID.TID 0000.0001) snapshot_mdsio =   /* Model IO flag. */
(PID.TID 0000.0001)                   T
(PID.TID 0000.0001)     ;
(PID.TID 0000.0001) monitorFreq =   /* Monitor output interval ( s ). */
(PID.TID 0000.0001)                 1.080000000000000E+04
(PID.TID 0000.0001)     ;
(PID.TID 0000.0001) monitorSelect = /* select group of variables to monitor */
(PID.TID 0000.0001)                       3
(PID.TID 0000.0001)     ;
(PID.TID 0000.0001) monitor_stdio =   /* Model IO flag. */
(PID.TID 0000.0001)                   T
(PID.TID 0000.0001)     ;
(PID.TID 0000.0001) externForcingPeriod =   /* forcing period (s) */
(PID.TID 0000.0001)                 0.000000000000000E+00
(PID.TID 0000.0001)     ;
(PID.TID 0000.0001) externForcingCycle =   /* period of the cyle (s). */
(PID.TID 0000.0001)                 0.000000000000000E+00
(PID.TID 0000.0001)     ;
(PID.TID 0000.0001) tauThetaClimRelax =   /* relaxation time scale (s) */
(PID.TID 0000.0001)                 0.000000000000000E+00
(PID.TID 0000.0001)     ;
(PID.TID 0000.0001) tauSaltClimRelax =   /* relaxation time scale (s) */
(PID.TID 0000.0001)                 0.000000000000000E+00
(PID.TID 0000.0001)     ;
(PID.TID 0000.0001) latBandClimRelax =   /* max. Lat. where relaxation */
(PID.TID 0000.0001)                 1.800000000000000E+02
(PID.TID 0000.0001)     ;
(PID.TID 0000.0001) //
(PID.TID 0000.0001) // Gridding paramters ( PARM04 in namelist )
(PID.TID 0000.0001) //
(PID.TID 0000.0001) usingCartesianGrid = /* Cartesian coordinates flag ( True/False ) */
(PID.TID 0000.0001)                   F
(PID.TID 0000.0001)     ;
(PID.TID 0000.0001) usingCylindricalGrid = /* Cylindrical coordinates flag ( True/False ) */
(PID.TID 0000.0001)                   F
(PID.TID 0000.0001)     ;
(PID.TID 0000.0001) usingSphericalPolarGrid = /* Spherical coordinates flag ( True/False ) */
(PID.TID 0000.0001)                   F
(PID.TID 0000.0001)     ;
(PID.TID 0000.0001) usingCurvilinearGrid = /* Curvilinear coordinates flag ( True/False ) */
(PID.TID 0000.0001)                   T
(PID.TID 0000.0001)     ;
(PID.TID 0000.0001) useMin4hFacEdges = /* set hFacW,S as minimum of adjacent hFacC factor */
(PID.TID 0000.0001)                   F
(PID.TID 0000.0001)     ;
(PID.TID 0000.0001) selectSigmaCoord = /* Hybrid-Sigma Vert. Coordinate option */
(PID.TID 0000.0001)                       0
(PID.TID 0000.0001)     ;
(PID.TID 0000.0001) rSigmaBnd = /* r/sigma transition ( units of r ==  m ) */
(PID.TID 0000.0001)                 1.234567000000000E+05
(PID.TID 0000.0001)     ;
(PID.TID 0000.0001) rkSign =   /* index orientation relative to vertical coordinate */
(PID.TID 0000.0001)                -1.000000000000000E+00
(PID.TID 0000.0001)     ;
(PID.TID 0000.0001) gravitySign = /* gravity orientation relative to vertical coordinate */
(PID.TID 0000.0001)                -1.000000000000000E+00
(PID.TID 0000.0001)     ;
(PID.TID 0000.0001) seaLev_Z =  /* reference height of sea-level [m] */
(PID.TID 0000.0001)                 0.000000000000000E+00
(PID.TID 0000.0001)     ;
(PID.TID 0000.0001) top_Pres =  /* reference pressure at the top [Pa] */
(PID.TID 0000.0001)                 0.000000000000000E+00
(PID.TID 0000.0001)     ;
(PID.TID 0000.0001) mass2rUnit = /* convert mass per unit area [kg/m2] to r-units [m] */
(PID.TID 0000.0001)                 9.718172983479105E-04
(PID.TID 0000.0001)     ;
(PID.TID 0000.0001) rUnit2mass = /* convert r-units [m] to mass per unit area [kg/m2] */
(PID.TID 0000.0001)                 1.029000000000000E+03
(PID.TID 0000.0001)     ;
(PID.TID 0000.0001) drC =   /* C spacing ( units of r ) */
(PID.TID 0000.0001)                 5.000000000000000E+00,      /* K =  1 */
(PID.TID 0000.0001)     6 @  1.000000000000000E+01,             /* K =  2:  7 */
(PID.TID 0000.0001)                 1.000500000000000E+01,      /* K =  8 */
(PID.TID 0000.0001)                 1.002000000000000E+01,      /* K =  9 */
(PID.TID 0000.0001)                 1.007000000000000E+01,      /* K = 10 */
(PID.TID 0000.0001)                 1.021500000000000E+01,      /* K = 11 */
(PID.TID 0000.0001)                 1.056000000000000E+01,      /* K = 12 */
(PID.TID 0000.0001)                 1.128000000000000E+01,      /* K = 13 */
(PID.TID 0000.0001)                 1.259000000000000E+01,      /* K = 14 */
(PID.TID 0000.0001)                 1.473000000000000E+01,      /* K = 15 */
(PID.TID 0000.0001)                 1.793000000000000E+01,      /* K = 16 */
(PID.TID 0000.0001)                 2.233500000000000E+01,      /* K = 17 */
(PID.TID 0000.0001)                 2.797500000000000E+01,      /* K = 18 */
(PID.TID 0000.0001)                 3.476000000000001E+01,      /* K = 19 */
(PID.TID 0000.0001)                 4.246000000000000E+01,      /* K = 20 */
(PID.TID 0000.0001)                 5.075000000000000E+01,      /* K = 21 */
(PID.TID 0000.0001)                 5.925000000000000E+01,      /* K = 22 */
(PID.TID 0000.0001)                 6.753999999999999E+01,      /* K = 23 */
(PID.TID 0000.0001)                 7.524000000000001E+01,      /* K = 24 */
(PID.TID 0000.0001)                 8.202500000000001E+01,      /* K = 25 */
(PID.TID 0000.0001)                 8.766500000000001E+01,      /* K = 26 */
(PID.TID 0000.0001)                 9.206999999999999E+01,      /* K = 27 */
(PID.TID 0000.0001)                 9.527000000000000E+01,      /* K = 28 */
(PID.TID 0000.0001)                 9.741499999999999E+01,      /* K = 29 */
(PID.TID 0000.0001)                 9.875000000000000E+01,      /* K = 30 */
(PID.TID 0000.0001)                 9.963000000000000E+01,      /* K = 31 */
(PID.TID 0000.0001)                 1.006700000000000E+02,      /* K = 32 */
(PID.TID 0000.0001)                 1.029450000000000E+02,      /* K = 33 */
(PID.TID 0000.0001)                 1.079450000000000E+02,      /* K = 34 */
(PID.TID 0000.0001)                 1.170800000000000E+02,      /* K = 35 */
(PID.TID 0000.0001)                 1.309600000000000E+02,      /* K = 36 */
(PID.TID 0000.0001)                 1.490150000000000E+02,      /* K = 37 */
(PID.TID 0000.0001)                 1.698850000000000E+02,      /* K = 38 */
(PID.TID 0000.0001)                 1.921900000000000E+02,      /* K = 39 */
(PID.TID 0000.0001)                 2.150250000000000E+02,      /* K = 40 */
(PID.TID 0000.0001)                 2.380000000000000E+02,      /* K = 41 */
(PID.TID 0000.0001)                 2.610000000000000E+02,      /* K = 42 */
(PID.TID 0000.0001)                 2.840000000000000E+02,      /* K = 43 */
(PID.TID 0000.0001)                 3.070000000000000E+02,      /* K = 44 */
(PID.TID 0000.0001)                 3.300000000000000E+02,      /* K = 45 */
(PID.TID 0000.0001)                 3.530000000000000E+02,      /* K = 46 */
(PID.TID 0000.0001)                 3.760000000000000E+02,      /* K = 47 */
(PID.TID 0000.0001)                 3.990000000000000E+02,      /* K = 48 */
(PID.TID 0000.0001)                 4.220000000000000E+02,      /* K = 49 */
(PID.TID 0000.0001)                 4.450000000000000E+02,      /* K = 50 */
(PID.TID 0000.0001)                 2.282500000000000E+02       /* K = 51 */
(PID.TID 0000.0001)     ;
(PID.TID 0000.0001) drF =   /* W spacing ( units of r ) */
(PID.TID 0000.0001)     7 @  1.000000000000000E+01,             /* K =  1:  7 */
(PID.TID 0000.0001)                 1.001000000000000E+01,      /* K =  8 */
(PID.TID 0000.0001)                 1.003000000000000E+01,      /* K =  9 */
(PID.TID 0000.0001)                 1.011000000000000E+01,      /* K = 10 */
(PID.TID 0000.0001)                 1.032000000000000E+01,      /* K = 11 */
(PID.TID 0000.0001)                 1.080000000000000E+01,      /* K = 12 */
(PID.TID 0000.0001)                 1.176000000000000E+01,      /* K = 13 */
(PID.TID 0000.0001)                 1.342000000000000E+01,      /* K = 14 */
(PID.TID 0000.0001)                 1.604000000000000E+01,      /* K = 15 */
(PID.TID 0000.0001)                 1.982000000000000E+01,      /* K = 16 */
(PID.TID 0000.0001)                 2.485000000000000E+01,      /* K = 17 */
(PID.TID 0000.0001)                 3.110000000000000E+01,      /* K = 18 */
(PID.TID 0000.0001)                 3.842000000000000E+01,      /* K = 19 */
(PID.TID 0000.0001)                 4.650000000000000E+01,      /* K = 20 */
(PID.TID 0000.0001)                 5.500000000000000E+01,      /* K = 21 */
(PID.TID 0000.0001)                 6.350000000000000E+01,      /* K = 22 */
(PID.TID 0000.0001)                 7.158000000000000E+01,      /* K = 23 */
(PID.TID 0000.0001)                 7.890000000000001E+01,      /* K = 24 */
(PID.TID 0000.0001)                 8.515000000000001E+01,      /* K = 25 */
(PID.TID 0000.0001)                 9.018000000000001E+01,      /* K = 26 */
(PID.TID 0000.0001)                 9.395999999999999E+01,      /* K = 27 */
(PID.TID 0000.0001)                 9.658000000000000E+01,      /* K = 28 */
(PID.TID 0000.0001)                 9.825000000000000E+01,      /* K = 29 */
(PID.TID 0000.0001)                 9.925000000000000E+01,      /* K = 30 */
(PID.TID 0000.0001)                 1.000100000000000E+02,      /* K = 31 */
(PID.TID 0000.0001)                 1.013300000000000E+02,      /* K = 32 */
(PID.TID 0000.0001)                 1.045600000000000E+02,      /* K = 33 */
(PID.TID 0000.0001)                 1.113300000000000E+02,      /* K = 34 */
(PID.TID 0000.0001)                 1.228300000000000E+02,      /* K = 35 */
(PID.TID 0000.0001)                 1.390900000000000E+02,      /* K = 36 */
(PID.TID 0000.0001)                 1.589400000000000E+02,      /* K = 37 */
(PID.TID 0000.0001)                 1.808300000000000E+02,      /* K = 38 */
(PID.TID 0000.0001)                 2.035500000000000E+02,      /* K = 39 */
(PID.TID 0000.0001)                 2.265000000000000E+02,      /* K = 40 */
(PID.TID 0000.0001)                 2.495000000000000E+02,      /* K = 41 */
(PID.TID 0000.0001)                 2.725000000000000E+02,      /* K = 42 */
(PID.TID 0000.0001)                 2.955000000000000E+02,      /* K = 43 */
(PID.TID 0000.0001)                 3.185000000000000E+02,      /* K = 44 */
(PID.TID 0000.0001)                 3.415000000000000E+02,      /* K = 45 */
(PID.TID 0000.0001)                 3.645000000000000E+02,      /* K = 46 */
(PID.TID 0000.0001)                 3.875000000000000E+02,      /* K = 47 */
(PID.TID 0000.0001)                 4.105000000000000E+02,      /* K = 48 */
(PID.TID 0000.0001)                 4.335000000000000E+02,      /* K = 49 */
(PID.TID 0000.0001)                 4.565000000000000E+02       /* K = 50 */
(PID.TID 0000.0001)     ;
(PID.TID 0000.0001) radius_fromHorizGrid = /* sphere Radius of input horiz. grid */
(PID.TID 0000.0001)                 6.370000000000000E+06
(PID.TID 0000.0001)     ;
(PID.TID 0000.0001) rSphere =  /* Radius ( ignored - cartesian, m - spherical ) */
(PID.TID 0000.0001)                 6.370000000000000E+06
(PID.TID 0000.0001)     ;
(PID.TID 0000.0001) deepAtmosphere = /* Deep/Shallow Atmosphere flag (True/False) */
(PID.TID 0000.0001)                   F
(PID.TID 0000.0001)     ;
(PID.TID 0000.0001) xC =  /* xC(:,1,:,1) : P-point X coord ( deg. or m if cartesian) */
(PID.TID 0000.0001)                -4.081468768806280E+01,      /* I =  1 */
(PID.TID 0000.0001)                -3.957104986057077E+01,      /* I =  2 */
(PID.TID 0000.0001)                -3.832217028656162E+01,      /* I =  3 */
(PID.TID 0000.0001)                -3.706844413107324E+01,      /* I =  4 */
(PID.TID 0000.0001)                -3.581028225779612E+01,      /* I =  5 */
(PID.TID 0000.0001)                -3.454811012006861E+01,      /* I =  6 */
(PID.TID 0000.0001)                -3.328236654497336E+01,      /* I =  7 */
(PID.TID 0000.0001)                -3.201350241727823E+01,      /* I =  8 */
(PID.TID 0000.0001)                -3.074197927113779E+01,      /* I =  9 */
(PID.TID 0000.0001)                -2.946826779826338E+01,      /* I = 10 */
(PID.TID 0000.0001)                -2.819284628214859E+01,      /* I = 11 */
(PID.TID 0000.0001)                -2.691619896217756E+01,      /* I = 12 */
(PID.TID 0000.0001)                -2.563881425705264E+01,      /* I = 13 */
(PID.TID 0000.0001)                -2.436118574294736E+01,      /* I = 14 */
(PID.TID 0000.0001)                -2.308380103782244E+01       /* I = 15 */
(PID.TID 0000.0001)     ;
(PID.TID 0000.0001) yC =  /* yC(1,:,1,:) : P-point Y coord ( deg. or m if cartesian) */
(PID.TID 0000.0001)                -8.146222940368236E+01,      /* J =  1 */
(PID.TID 0000.0001)                -8.113083815286421E+01,      /* J =  2 */
(PID.TID 0000.0001)                -8.079504828233755E+01,      /* J =  3 */
(PID.TID 0000.0001)                -8.045491317322768E+01,      /* J =  4 */
(PID.TID 0000.0001)                -8.011048280590389E+01,      /* J =  5 */
(PID.TID 0000.0001)                -7.976180430515704E+01,      /* J =  6 */
(PID.TID 0000.0001)                -7.940892240526760E+01,      /* J =  7 */
(PID.TID 0000.0001)                -7.905187984845006E+01,      /* J =  8 */
(PID.TID 0000.0001)                -7.869071772754813E+01,      /* J =  9 */
(PID.TID 0000.0001)                -7.832547578199167E+01,      /* J = 10 */
(PID.TID 0000.0001)                -7.795619265432416E+01,      /* J = 11 */
(PID.TID 0000.0001)                -7.758290611340497E+01,      /* J = 12 */
(PID.TID 0000.0001)                -7.720565324926896E+01,      /* J = 13 */
(PID.TID 0000.0001)                -7.682447064385434E+01,      /* J = 14 */
(PID.TID 0000.0001)                -7.643939452107085E+01       /* J = 15 */
(PID.TID 0000.0001)     ;
(PID.TID 0000.0001) rcoord = /* P-point R coordinate (  units of r ) */
(PID.TID 0000.0001)                -5.000000000000000E+00,      /* K =  1 */
(PID.TID 0000.0001)                -1.500000000000000E+01,      /* K =  2 */
(PID.TID 0000.0001)                -2.500000000000000E+01,      /* K =  3 */
(PID.TID 0000.0001)                -3.500000000000000E+01,      /* K =  4 */
(PID.TID 0000.0001)                -4.500000000000000E+01,      /* K =  5 */
(PID.TID 0000.0001)                -5.500000000000000E+01,      /* K =  6 */
(PID.TID 0000.0001)                -6.500000000000000E+01,      /* K =  7 */
(PID.TID 0000.0001)                -7.500500000000000E+01,      /* K =  8 */
(PID.TID 0000.0001)                -8.502499999999999E+01,      /* K =  9 */
(PID.TID 0000.0001)                -9.509500000000000E+01,      /* K = 10 */
(PID.TID 0000.0001)                -1.053100000000000E+02,      /* K = 11 */
(PID.TID 0000.0001)                -1.158700000000000E+02,      /* K = 12 */
(PID.TID 0000.0001)                -1.271500000000000E+02,      /* K = 13 */
(PID.TID 0000.0001)                -1.397400000000000E+02,      /* K = 14 */
(PID.TID 0000.0001)                -1.544700000000000E+02,      /* K = 15 */
(PID.TID 0000.0001)                -1.724000000000000E+02,      /* K = 16 */
(PID.TID 0000.0001)                -1.947350000000000E+02,      /* K = 17 */
(PID.TID 0000.0001)                -2.227100000000000E+02,      /* K = 18 */
(PID.TID 0000.0001)                -2.574700000000000E+02,      /* K = 19 */
(PID.TID 0000.0001)                -2.999300000000000E+02,      /* K = 20 */
(PID.TID 0000.0001)                -3.506800000000000E+02,      /* K = 21 */
(PID.TID 0000.0001)                -4.099300000000000E+02,      /* K = 22 */
(PID.TID 0000.0001)                -4.774700000000000E+02,      /* K = 23 */
(PID.TID 0000.0001)                -5.527100000000000E+02,      /* K = 24 */
(PID.TID 0000.0001)                -6.347350000000000E+02,      /* K = 25 */
(PID.TID 0000.0001)                -7.224000000000000E+02,      /* K = 26 */
(PID.TID 0000.0001)                -8.144700000000000E+02,      /* K = 27 */
(PID.TID 0000.0001)                -9.097400000000000E+02,      /* K = 28 */
(PID.TID 0000.0001)                -1.007155000000000E+03,      /* K = 29 */
(PID.TID 0000.0001)                -1.105905000000000E+03,      /* K = 30 */
(PID.TID 0000.0001)                -1.205535000000000E+03,      /* K = 31 */
(PID.TID 0000.0001)                -1.306205000000000E+03,      /* K = 32 */
(PID.TID 0000.0001)                -1.409150000000000E+03,      /* K = 33 */
(PID.TID 0000.0001)                -1.517095000000000E+03,      /* K = 34 */
(PID.TID 0000.0001)                -1.634175000000000E+03,      /* K = 35 */
(PID.TID 0000.0001)                -1.765135000000000E+03,      /* K = 36 */
(PID.TID 0000.0001)                -1.914150000000000E+03,      /* K = 37 */
(PID.TID 0000.0001)                -2.084035000000000E+03,      /* K = 38 */
(PID.TID 0000.0001)                -2.276225000000000E+03,      /* K = 39 */
(PID.TID 0000.0001)                -2.491250000000000E+03,      /* K = 40 */
(PID.TID 0000.0001)                -2.729250000000000E+03,      /* K = 41 */
(PID.TID 0000.0001)                -2.990250000000000E+03,      /* K = 42 */
(PID.TID 0000.0001)                -3.274250000000000E+03,      /* K = 43 */
(PID.TID 0000.0001)                -3.581250000000000E+03,      /* K = 44 */
(PID.TID 0000.0001)                -3.911250000000000E+03,      /* K = 45 */
(PID.TID 0000.0001)                -4.264250000000000E+03,      /* K = 46 */
(PID.TID 0000.0001)                -4.640250000000000E+03,      /* K = 47 */
(PID.TID 0000.0001)                -5.039250000000000E+03,      /* K = 48 */
(PID.TID 0000.0001)                -5.461250000000000E+03,      /* K = 49 */
(PID.TID 0000.0001)                -5.906250000000000E+03       /* K = 50 */
(PID.TID 0000.0001)     ;
(PID.TID 0000.0001) rF =   /* W-Interf. R coordinate (  units of r ) */
(PID.TID 0000.0001)                 0.000000000000000E+00,      /* K =  1 */
(PID.TID 0000.0001)                -1.000000000000000E+01,      /* K =  2 */
(PID.TID 0000.0001)                -2.000000000000000E+01,      /* K =  3 */
(PID.TID 0000.0001)                -3.000000000000000E+01,      /* K =  4 */
(PID.TID 0000.0001)                -4.000000000000000E+01,      /* K =  5 */
(PID.TID 0000.0001)                -5.000000000000000E+01,      /* K =  6 */
(PID.TID 0000.0001)                -6.000000000000000E+01,      /* K =  7 */
(PID.TID 0000.0001)                -7.000000000000000E+01,      /* K =  8 */
(PID.TID 0000.0001)                -8.001000000000001E+01,      /* K =  9 */
(PID.TID 0000.0001)                -9.004000000000001E+01,      /* K = 10 */
(PID.TID 0000.0001)                -1.001500000000000E+02,      /* K = 11 */
(PID.TID 0000.0001)                -1.104700000000000E+02,      /* K = 12 */
(PID.TID 0000.0001)                -1.212700000000000E+02,      /* K = 13 */
(PID.TID 0000.0001)                -1.330300000000000E+02,      /* K = 14 */
(PID.TID 0000.0001)                -1.464500000000000E+02,      /* K = 15 */
(PID.TID 0000.0001)                -1.624900000000000E+02,      /* K = 16 */
(PID.TID 0000.0001)                -1.823100000000000E+02,      /* K = 17 */
(PID.TID 0000.0001)                -2.071600000000000E+02,      /* K = 18 */
(PID.TID 0000.0001)                -2.382600000000000E+02,      /* K = 19 */
(PID.TID 0000.0001)                -2.766799999999999E+02,      /* K = 20 */
(PID.TID 0000.0001)                -3.231799999999999E+02,      /* K = 21 */
(PID.TID 0000.0001)                -3.781799999999999E+02,      /* K = 22 */
(PID.TID 0000.0001)                -4.416799999999999E+02,      /* K = 23 */
(PID.TID 0000.0001)                -5.132600000000000E+02,      /* K = 24 */
(PID.TID 0000.0001)                -5.921600000000000E+02,      /* K = 25 */
(PID.TID 0000.0001)                -6.773099999999999E+02,      /* K = 26 */
(PID.TID 0000.0001)                -7.674900000000000E+02,      /* K = 27 */
(PID.TID 0000.0001)                -8.614500000000000E+02,      /* K = 28 */
(PID.TID 0000.0001)                -9.580300000000001E+02,      /* K = 29 */
(PID.TID 0000.0001)                -1.056280000000000E+03,      /* K = 30 */
(PID.TID 0000.0001)                -1.155530000000000E+03,      /* K = 31 */
(PID.TID 0000.0001)                -1.255540000000000E+03,      /* K = 32 */
(PID.TID 0000.0001)                -1.356870000000000E+03,      /* K = 33 */
(PID.TID 0000.0001)                -1.461430000000000E+03,      /* K = 34 */
(PID.TID 0000.0001)                -1.572760000000000E+03,      /* K = 35 */
(PID.TID 0000.0001)                -1.695590000000000E+03,      /* K = 36 */
(PID.TID 0000.0001)                -1.834680000000000E+03,      /* K = 37 */
(PID.TID 0000.0001)                -1.993620000000000E+03,      /* K = 38 */
(PID.TID 0000.0001)                -2.174450000000000E+03,      /* K = 39 */
(PID.TID 0000.0001)                -2.378000000000000E+03,      /* K = 40 */
(PID.TID 0000.0001)                -2.604500000000000E+03,      /* K = 41 */
(PID.TID 0000.0001)                -2.854000000000000E+03,      /* K = 42 */
(PID.TID 0000.0001)                -3.126500000000000E+03,      /* K = 43 */
(PID.TID 0000.0001)                -3.422000000000000E+03,      /* K = 44 */
(PID.TID 0000.0001)                -3.740500000000000E+03,      /* K = 45 */
(PID.TID 0000.0001)                -4.082000000000000E+03,      /* K = 46 */
(PID.TID 0000.0001)                -4.446500000000000E+03,      /* K = 47 */
(PID.TID 0000.0001)                -4.834000000000000E+03,      /* K = 48 */
(PID.TID 0000.0001)                -5.244500000000000E+03,      /* K = 49 */
(PID.TID 0000.0001)                -5.678000000000000E+03,      /* K = 50 */
(PID.TID 0000.0001)                -6.134500000000000E+03       /* K = 51 */
(PID.TID 0000.0001)     ;
(PID.TID 0000.0001) deepFacC = /* deep-model grid factor @ cell-Center (-) */
(PID.TID 0000.0001)    50 @  1.000000000000000E+00              /* K =  1: 50 */
(PID.TID 0000.0001)     ;
(PID.TID 0000.0001) deepFacF = /* deep-model grid factor @ W-Interface (-) */
(PID.TID 0000.0001)    51 @  1.000000000000000E+00              /* K =  1: 51 */
(PID.TID 0000.0001)     ;
(PID.TID 0000.0001) rVel2wUnit = /* convert units: rVel -> wSpeed (=1 if z-coord)*/
(PID.TID 0000.0001)    51 @  1.000000000000000E+00              /* K =  1: 51 */
(PID.TID 0000.0001)     ;
(PID.TID 0000.0001) wUnit2rVel = /* convert units: wSpeed -> rVel (=1 if z-coord)*/
(PID.TID 0000.0001)    51 @  1.000000000000000E+00              /* K =  1: 51 */
(PID.TID 0000.0001)     ;
(PID.TID 0000.0001) dBdrRef = /* Vertical grad. of reference buoyancy [(m/s/r)^2] */
(PID.TID 0000.0001)     3 @  0.000000000000000E+00,             /* K =  1:  3 */
(PID.TID 0000.0001)                 2.706065538651213E-04,      /* K =  4 */
(PID.TID 0000.0001)     2 @  0.000000000000000E+00,             /* K =  5:  6 */
(PID.TID 0000.0001)                 2.632794562663490E-04,      /* K =  7 */
(PID.TID 0000.0001)                 2.554318021231947E-04,      /* K =  8 */
(PID.TID 0000.0001)                 0.000000000000000E+00,      /* K =  9 */
(PID.TID 0000.0001)                 2.461524232360561E-04,      /* K = 10 */
(PID.TID 0000.0001)                 2.348694431245364E-04,      /* K = 11 */
(PID.TID 0000.0001)                 0.000000000000000E+00,      /* K = 12 */
(PID.TID 0000.0001)                 2.056847859884566E-04,      /* K = 13 */
(PID.TID 0000.0001)                 1.777764506003336E-04,      /* K = 14 */
(PID.TID 0000.0001)                 0.000000000000000E+00,      /* K = 15 */
(PID.TID 0000.0001)                 1.203533867077665E-04,      /* K = 16 */
(PID.TID 0000.0001)                 9.288540355629585E-05,      /* K = 17 */
(PID.TID 0000.0001)                 7.115862770365155E-05,      /* K = 18 */
(PID.TID 0000.0001)                 5.484365820533800E-05,      /* K = 19 */
(PID.TID 0000.0001)                 4.290935507113214E-05,      /* K = 20 */
(PID.TID 0000.0001)                 6.658747741703880E-05,      /* K = 21 */
(PID.TID 0000.0001)                 0.000000000000000E+00,      /* K = 22 */
(PID.TID 0000.0001)                 2.323718420342036E-05,      /* K = 23 */
(PID.TID 0000.0001)                 1.974682037962757E-05,      /* K = 24 */
(PID.TID 0000.0001)                 1.709468932536602E-05,      /* K = 25 */
(PID.TID 0000.0001)                 0.000000000000000E+00,      /* K = 26 */
(PID.TID 0000.0001)                 1.455436545977052E-05,      /* K = 27 */
(PID.TID 0000.0001)                 0.000000000000000E+00,      /* K = 28 */
(PID.TID 0000.0001)                 1.315287111980149E-05,      /* K = 29 */
(PID.TID 0000.0001)     2 @  0.000000000000000E+00,             /* K = 30: 31 */
(PID.TID 0000.0001)                 1.240968507885233E-05,      /* K = 32 */
(PID.TID 0000.0001)     2 @  0.000000000000000E+00,             /* K = 33: 34 */
(PID.TID 0000.0001)                 1.045141607964570E-05,      /* K = 35 */
(PID.TID 0000.0001)     3 @  0.000000000000000E+00,             /* K = 36: 38 */
(PID.TID 0000.0001)                 6.628797113709505E-06,      /* K = 39 */
(PID.TID 0000.0001)    11 @  0.000000000000000E+00              /* K = 40: 50 */
(PID.TID 0000.0001)     ;
(PID.TID 0000.0001) rotateGrid = /* use rotated grid ( True/False ) */
(PID.TID 0000.0001)                   F
(PID.TID 0000.0001)     ;
(PID.TID 0000.0001) phiEuler = /* Euler angle, rotation about original z-coordinate [rad] */
(PID.TID 0000.0001)                 0.000000000000000E+00
(PID.TID 0000.0001)     ;
(PID.TID 0000.0001) thetaEuler = /* Euler angle, rotation about new x-coordinate [rad] */
(PID.TID 0000.0001)                 0.000000000000000E+00
(PID.TID 0000.0001)     ;
(PID.TID 0000.0001) psiEuler = /* Euler angle, rotation about new z-coordinate [rad] */
(PID.TID 0000.0001)                 0.000000000000000E+00
(PID.TID 0000.0001)     ;
(PID.TID 0000.0001) dxF =  /* dxF(:,1,:,1) ( units: m ) */
(PID.TID 0000.0001)                 2.071152825743187E+04,      /* I =  1 */
(PID.TID 0000.0001)                 2.070365142756831E+04,      /* I =  2 */
(PID.TID 0000.0001)                 2.069635296570141E+04,      /* I =  3 */
(PID.TID 0000.0001)                 2.068965358413176E+04,      /* I =  4 */
(PID.TID 0000.0001)                 2.068357195583360E+04,      /* I =  5 */
(PID.TID 0000.0001)                 2.067812475356784E+04,      /* I =  6 */
(PID.TID 0000.0001)                 2.067332670125947E+04,      /* I =  7 */
(PID.TID 0000.0001)                 2.066919060389092E+04,      /* I =  8 */
(PID.TID 0000.0001)                 2.066572738985245E+04,      /* I =  9 */
(PID.TID 0000.0001)                 2.066294615597989E+04,      /* I = 10 */
(PID.TID 0000.0001)                 2.066085425372315E+04,      /* I = 11 */
(PID.TID 0000.0001)                 2.065945771525925E+04,      /* I = 12 */
(PID.TID 0000.0001)                 2.065874381268158E+04,      /* I = 13 */
(PID.TID 0000.0001)                 2.065874381268158E+04,      /* I = 14 */
(PID.TID 0000.0001)                 2.065945771525925E+04       /* I = 15 */
(PID.TID 0000.0001)     ;
(PID.TID 0000.0001) dxF =  /* dxF(1,:,1,:) ( units: m ) */
(PID.TID 0000.0001)                 2.071152825743187E+04,      /* J =  1 */
(PID.TID 0000.0001)                 2.109117491456033E+04,      /* J =  2 */
(PID.TID 0000.0001)                 2.148525648961724E+04,      /* J =  3 */
(PID.TID 0000.0001)                 2.189377348588603E+04,      /* J =  4 */
(PID.TID 0000.0001)                 2.231672440915243E+04,      /* J =  5 */
(PID.TID 0000.0001)                 2.275410689480659E+04,      /* J =  6 */
(PID.TID 0000.0001)                 2.320591873318126E+04,      /* J =  7 */
(PID.TID 0000.0001)                 2.367215879054831E+04,      /* J =  8 */
(PID.TID 0000.0001)                 2.415282782538908E+04,      /* J =  9 */
(PID.TID 0000.0001)                 2.464792920101809E+04,      /* J = 10 */
(PID.TID 0000.0001)                 2.515746949702995E+04,      /* J = 11 */
(PID.TID 0000.0001)                 2.568145902315334E+04,      /* J = 12 */
(PID.TID 0000.0001)                 2.621991223981432E+04,      /* J = 13 */
(PID.TID 0000.0001)                 2.677284809033052E+04,      /* J = 14 */
(PID.TID 0000.0001)                 2.734029025013979E+04       /* J = 15 */
(PID.TID 0000.0001)     ;
(PID.TID 0000.0001) dyF =  /* dyF(:,1,:,1) ( units: m ) */
(PID.TID 0000.0001)                 3.700742300337598E+04,      /* I =  1 */
(PID.TID 0000.0001)                 3.707905556394973E+04,      /* I =  2 */
(PID.TID 0000.0001)                 3.714471828319018E+04,      /* I =  3 */
(PID.TID 0000.0001)                 3.720441078960103E+04,      /* I =  4 */
(PID.TID 0000.0001)                 3.725813297080282E+04,      /* I =  5 */
(PID.TID 0000.0001)                 3.730588490725751E+04,      /* I =  6 */
(PID.TID 0000.0001)                 3.734766681359038E+04,      /* I =  7 */
(PID.TID 0000.0001)                 3.738347898712025E+04,      /* I =  8 */
(PID.TID 0000.0001)                 3.741332176340629E+04,      /* I =  9 */
(PID.TID 0000.0001)                 3.743719547859261E+04,      /* I = 10 */
(PID.TID 0000.0001)                 3.745510043824806E+04,      /* I = 11 */
(PID.TID 0000.0001)                 3.746703689267323E+04,      /* I = 12 */
(PID.TID 0000.0001)     2 @  3.747300501832417E+04,             /* I = 13: 14 */
(PID.TID 0000.0001)                 3.746703689267323E+04       /* I = 15 */
(PID.TID 0000.0001)     ;
(PID.TID 0000.0001) dyF =  /* dyF(1,:,1,:) ( units: m ) */
(PID.TID 0000.0001)                 3.700742300337598E+04,      /* J =  1 */
(PID.TID 0000.0001)                 3.745555642044499E+04,      /* J =  2 */
(PID.TID 0000.0001)                 3.790206217653974E+04,      /* J =  3 */
(PID.TID 0000.0001)                 3.834684105117956E+04,      /* J =  4 */
(PID.TID 0000.0001)                 3.878979459357282E+04,      /* J =  5 */
(PID.TID 0000.0001)                 3.923082521328924E+04,      /* J =  6 */
(PID.TID 0000.0001)                 3.966983623246408E+04,      /* J =  7 */
(PID.TID 0000.0001)                 4.010673190475840E+04,      /* J =  8 */
(PID.TID 0000.0001)                 4.054141740950450E+04,      /* J =  9 */
(PID.TID 0000.0001)                 4.097379882434454E+04,      /* J = 10 */
(PID.TID 0000.0001)                 4.140378308084428E+04,      /* J = 11 */
(PID.TID 0000.0001)                 4.183127790875583E+04,      /* J = 12 */
(PID.TID 0000.0001)                 4.225619177206317E+04,      /* J = 13 */
(PID.TID 0000.0001)                 4.267843379867976E+04,      /* J = 14 */
(PID.TID 0000.0001)                 4.309791371221616E+04       /* J = 15 */
(PID.TID 0000.0001)     ;
(PID.TID 0000.0001) dxG =  /* dxG(:,1,:,1) ( units: m ) */
(PID.TID 0000.0001)                 2.052711702021451E+04,      /* I =  1 */
(PID.TID 0000.0001)                 2.051953983526162E+04,      /* I =  2 */
(PID.TID 0000.0001)                 2.051251425926268E+04,      /* I =  3 */
(PID.TID 0000.0001)                 2.050606148013825E+04,      /* I =  4 */
(PID.TID 0000.0001)                 2.050020059906299E+04,      /* I =  5 */
(PID.TID 0000.0001)                 2.049494867086169E+04,      /* I =  6 */
(PID.TID 0000.0001)                 2.049032075633103E+04,      /* I =  7 */
(PID.TID 0000.0001)                 2.048632995314923E+04,      /* I =  8 */
(PID.TID 0000.0001)                 2.048298743895549E+04,      /* I =  9 */
(PID.TID 0000.0001)                 2.048030251694177E+04,      /* I = 10 */
(PID.TID 0000.0001)                 2.047828270203973E+04,      /* I = 11 */
(PID.TID 0000.0001)                 2.047693414389448E+04,      /* I = 12 */
(PID.TID 0000.0001)     2 @  2.047624433858785E+04,             /* I = 13: 14 */
(PID.TID 0000.0001)                 2.047693414389443E+04       /* I = 15 */
(PID.TID 0000.0001)     ;
(PID.TID 0000.0001) dxG =  /* dxG(1,:,1,:) ( units: m ) */
(PID.TID 0000.0001)                 2.052711702021451E+04,      /* J =  1 */
(PID.TID 0000.0001)                 2.089954736357391E+04,      /* J =  2 */
(PID.TID 0000.0001)                 2.128641124518697E+04,      /* J =  3 */
(PID.TID 0000.0001)                 2.168771062037700E+04,      /* J =  4 */
(PID.TID 0000.0001)                 2.210344484655194E+04,      /* J =  5 */
(PID.TID 0000.0001)                 2.253361185972884E+04,      /* J =  6 */
(PID.TID 0000.0001)                 2.297820925105574E+04,      /* J =  7 */
(PID.TID 0000.0001)                 2.343723524028478E+04,      /* J =  8 */
(PID.TID 0000.0001)                 2.391068954427550E+04,      /* J =  9 */
(PID.TID 0000.0001)                 2.439857414125275E+04,      /* J = 10 */
(PID.TID 0000.0001)                 2.490089393241153E+04,      /* J = 11 */
(PID.TID 0000.0001)                 2.541765730414359E+04,      /* J = 12 */
(PID.TID 0000.0001)                 2.594887659459613E+04,      /* J = 13 */
(PID.TID 0000.0001)                 2.649456846940333E+04,      /* J = 14 */
(PID.TID 0000.0001)                 2.705475421181358E+04       /* J = 15 */
(PID.TID 0000.0001)     ;
(PID.TID 0000.0001) dyG =  /* dyG(:,1,:,1) ( units: m ) */
(PID.TID 0000.0001)                 3.696936823759973E+04,      /* I =  1 */
(PID.TID 0000.0001)                 3.704398547852144E+04,      /* I =  2 */
(PID.TID 0000.0001)                 3.711263318385338E+04,      /* I =  3 */
(PID.TID 0000.0001)                 3.717531082528212E+04,      /* I =  4 */
(PID.TID 0000.0001)                 3.723201816961422E+04,      /* I =  5 */
(PID.TID 0000.0001)                 3.728275520872145E+04,      /* I =  6 */
(PID.TID 0000.0001)                 3.732752209699158E+04,      /* I =  7 */
(PID.TID 0000.0001)                 3.736631909640826E+04,      /* I =  8 */
(PID.TID 0000.0001)                 3.739914652852553E+04,      /* I =  9 */
(PID.TID 0000.0001)                 3.742600473350589E+04,      /* I = 10 */
(PID.TID 0000.0001)                 3.744689403567852E+04,      /* I = 11 */
(PID.TID 0000.0001)                 3.746181471567877E+04,      /* I = 12 */
(PID.TID 0000.0001)                 3.747076698884368E+04,      /* I = 13 */
(PID.TID 0000.0001)                 3.747376174977726E+04,      /* I = 14 */
(PID.TID 0000.0001)                 3.747076698884368E+04       /* I = 15 */
(PID.TID 0000.0001)     ;
(PID.TID 0000.0001) dyG =  /* dyG(1,:,1,:) ( units: m ) */
(PID.TID 0000.0001)                 3.696936823759973E+04,      /* J =  1 */
(PID.TID 0000.0001)                 3.741746190559281E+04,      /* J =  2 */
(PID.TID 0000.0001)                 3.786390067184393E+04,      /* J =  3 */
(PID.TID 0000.0001)                 3.830858172733455E+04,      /* J =  4 */
(PID.TID 0000.0001)                 3.875140319955796E+04,      /* J =  5 */
(PID.TID 0000.0001)                 3.919226424948571E+04,      /* J =  6 */
(PID.TID 0000.0001)                 3.963106512715793E+04,      /* J =  7 */
(PID.TID 0000.0001)                 4.006770719102380E+04,      /* J =  8 */
(PID.TID 0000.0001)                 4.050209290047463E+04,      /* J =  9 */
(PID.TID 0000.0001)                 4.093412578484027E+04,      /* J = 10 */
(PID.TID 0000.0001)                 4.136371039407872E+04,      /* J = 11 */
(PID.TID 0000.0001)                 4.179075223673176E+04,      /* J = 12 */
(PID.TID 0000.0001)                 4.221515770920290E+04,      /* J = 13 */
(PID.TID 0000.0001)                 4.263683401805614E+04,      /* J = 14 */
(PID.TID 0000.0001)                 4.305568910412182E+04       /* J = 15 */
(PID.TID 0000.0001)     ;
(PID.TID 0000.0001) dxC =  /* dxC(:,1,:,1) ( units: m ) */
(PID.TID 0000.0001)                 2.071567651695695E+04,      /* I =  1 */
(PID.TID 0000.0001)                 2.070751892245589E+04,      /* I =  2 */
(PID.TID 0000.0001)                 2.069992855779408E+04,      /* I =  3 */
(PID.TID 0000.0001)                 2.069292717562287E+04,      /* I =  4 */
(PID.TID 0000.0001)                 2.068653446229046E+04,      /* I =  5 */
(PID.TID 0000.0001)                 2.068076808552306E+04,      /* I =  6 */
(PID.TID 0000.0001)                 2.067564373903614E+04,      /* I =  7 */
(PID.TID 0000.0001)                 2.067117518190149E+04,      /* I =  8 */
(PID.TID 0000.0001)                 2.066737427558298E+04,      /* I =  9 */
(PID.TID 0000.0001)                 2.066425102685107E+04,      /* I = 10 */
(PID.TID 0000.0001)                 2.066181364132844E+04,      /* I = 11 */
(PID.TID 0000.0001)                 2.066006869803818E+04,      /* I = 12 */
(PID.TID 0000.0001)                 2.065902266229015E+04,      /* I = 13 */
(PID.TID 0000.0001)                 2.065863826775786E+04,      /* I = 14 */
(PID.TID 0000.0001)                 2.065902266229016E+04       /* I = 15 */
(PID.TID 0000.0001)     ;
(PID.TID 0000.0001) dxC =  /* dxC(1,:,1,:) ( units: m ) */
(PID.TID 0000.0001)                 2.071567651695695E+04,      /* J =  1 */
(PID.TID 0000.0001)                 2.109563672137949E+04,      /* J =  2 */
(PID.TID 0000.0001)                 2.149002149497106E+04,      /* J =  3 */
(PID.TID 0000.0001)                 2.189882927482529E+04,      /* J =  4 */
(PID.TID 0000.0001)                 2.232205646389843E+04,      /* J =  5 */
(PID.TID 0000.0001)                 2.275969855854128E+04,      /* J =  6 */
(PID.TID 0000.0001)                 2.321175117362029E+04,      /* J =  7 */
(PID.TID 0000.0001)                 2.367821096276529E+04,      /* J =  8 */
(PID.TID 0000.0001)                 2.415907643347346E+04,      /* J =  9 */
(PID.TID 0000.0001)                 2.465434865814045E+04,      /* J = 10 */
(PID.TID 0000.0001)                 2.516403188365780E+04,      /* J = 11 */
(PID.TID 0000.0001)                 2.568813404310613E+04,      /* J = 12 */
(PID.TID 0000.0001)                 2.622666717399572E+04,      /* J = 13 */
(PID.TID 0000.0001)                 2.677964774799169E+04,      /* J = 14 */
(PID.TID 0000.0001)                 2.734709691757753E+04       /* J = 15 */
(PID.TID 0000.0001)     ;
(PID.TID 0000.0001) dyC =  /* dyC(:,1,:,1) ( units: m ) */
(PID.TID 0000.0001)                 3.678277710845771E+04,      /* I =  1 */
(PID.TID 0000.0001)                 3.685438685866048E+04,      /* I =  2 */
(PID.TID 0000.0001)                 3.692002588020908E+04,      /* I =  3 */
(PID.TID 0000.0001)                 3.697969453541307E+04,      /* I =  4 */
(PID.TID 0000.0001)                 3.703339337607873E+04,      /* I =  5 */
(PID.TID 0000.0001)                 3.708112307814123E+04,      /* I =  6 */
(PID.TID 0000.0001)                 3.712288438364359E+04,      /* I =  7 */
(PID.TID 0000.0001)                 3.715867804995441E+04,      /* I =  8 */
(PID.TID 0000.0001)                 3.718850480589901E+04,      /* I =  9 */
(PID.TID 0000.0001)                 3.721236531452968E+04,      /* I = 10 */
(PID.TID 0000.0001)                 3.723026014246432E+04,      /* I = 11 */
(PID.TID 0000.0001)                 3.724218973548726E+04,      /* I = 12 */
(PID.TID 0000.0001)     2 @  3.724815440020872E+04,             /* I = 13: 14 */
(PID.TID 0000.0001)                 3.724218973548726E+04       /* I = 15 */
(PID.TID 0000.0001)     ;
(PID.TID 0000.0001) dyC =  /* dyC(1,:,1,:) ( units: m ) */
(PID.TID 0000.0001)                 3.678277710845771E+04,      /* J =  1 */
(PID.TID 0000.0001)                 3.723168694115569E+04,      /* J =  2 */
(PID.TID 0000.0001)                 3.767901897410101E+04,      /* J =  3 */
(PID.TID 0000.0001)                 3.812467364657602E+04,      /* J =  4 */
(PID.TID 0000.0001)                 3.856855210935249E+04,      /* J =  5 */
(PID.TID 0000.0001)                 3.901055633269680E+04,      /* J =  6 */
(PID.TID 0000.0001)                 3.945058917911859E+04,      /* J =  7 */
(PID.TID 0000.0001)                 3.988855443472220E+04,      /* J =  8 */
(PID.TID 0000.0001)                 4.032435681898361E+04,      /* J =  9 */
(PID.TID 0000.0001)                 4.075790196435841E+04,      /* J = 10 */
(PID.TID 0000.0001)                 4.118909638222960E+04,      /* J = 11 */
(PID.TID 0000.0001)                 4.161784741043697E+04,      /* J = 12 */
(PID.TID 0000.0001)                 4.204406315499045E+04,      /* J = 13 */
(PID.TID 0000.0001)                 4.246765242091182E+04,      /* J = 14 */
(PID.TID 0000.0001)                 4.288852464034393E+04       /* J = 15 */
(PID.TID 0000.0001)     ;
(PID.TID 0000.0001) dxV =  /* dxV(:,1,:,1) ( units: m ) */
(PID.TID 0000.0001)                 2.053110526075532E+04,      /* I =  1 */
(PID.TID 0000.0001)                 2.052326088418283E+04,      /* I =  2 */
(PID.TID 0000.0001)                 2.051595672244828E+04,      /* I =  3 */
(PID.TID 0000.0001)                 2.050921502797681E+04,      /* I =  4 */
(PID.TID 0000.0001)                 2.050305593886370E+04,      /* I =  5 */
(PID.TID 0000.0001)                 2.049749752783181E+04,      /* I =  6 */
(PID.TID 0000.0001)                 2.049255584793284E+04,      /* I =  7 */
(PID.TID 0000.0001)                 2.048824497292525E+04,      /* I =  8 */
(PID.TID 0000.0001)                 2.048457703515834E+04,      /* I =  9 */
(PID.TID 0000.0001)                 2.048156226915133E+04,      /* I = 10 */
(PID.TID 0000.0001)                 2.047920906551970E+04,      /* I = 11 */
(PID.TID 0000.0001)                 2.047752414469434E+04,      /* I = 12 */
(PID.TID 0000.0001)                 2.047651405696554E+04,      /* I = 13 */
(PID.TID 0000.0001)                 2.047614194664622E+04,      /* I = 14 */
(PID.TID 0000.0001)                 2.047651405696559E+04       /* I = 15 */
(PID.TID 0000.0001)     ;
(PID.TID 0000.0001) dxV =  /* dxV(1,:,1,:) ( units: m ) */
(PID.TID 0000.0001)                 2.053110526075532E+04,      /* J =  1 */
(PID.TID 0000.0001)                 2.090385356266093E+04,      /* J =  2 */
(PID.TID 0000.0001)                 2.129102607314009E+04,      /* J =  3 */
(PID.TID 0000.0001)                 2.169262269996662E+04,      /* J =  4 */
(PID.TID 0000.0001)                 2.210864071595607E+04,      /* J =  5 */
(PID.TID 0000.0001)                 2.253907593617405E+04,      /* J =  6 */
(PID.TID 0000.0001)                 2.298392379458377E+04,      /* J =  7 */
(PID.TID 0000.0001)                 2.344318031700113E+04,      /* J =  8 */
(PID.TID 0000.0001)                 2.391684298864163E+04,      /* J =  9 */
(PID.TID 0000.0001)                 2.440491151699962E+04,      /* J = 10 */
(PID.TID 0000.0001)                 2.490738849171163E+04,      /* J = 11 */
(PID.TID 0000.0001)                 2.542427994477456E+04,      /* J = 12 */
(PID.TID 0000.0001)                 2.595559581485789E+04,      /* J = 13 */
(PID.TID 0000.0001)                 2.650135032062733E+04,      /* J = 14 */
(PID.TID 0000.0001)                 2.706156224833991E+04       /* J = 15 */
(PID.TID 0000.0001)     ;
(PID.TID 0000.0001) dyU =  /* dyU(:,1,:,1) ( units: m ) */
(PID.TID 0000.0001)                 3.674473316658630E+04,      /* I =  1 */
(PID.TID 0000.0001)                 3.681932833792822E+04,      /* I =  2 */
(PID.TID 0000.0001)                 3.688795269313092E+04,      /* I =  3 */
(PID.TID 0000.0001)                 3.695060647275718E+04,      /* I =  4 */
(PID.TID 0000.0001)                 3.700729014250917E+04,      /* I =  5 */
(PID.TID 0000.0001)                 3.705800432398131E+04,      /* I =  6 */
(PID.TID 0000.0001)                 3.710274973294064E+04,      /* I =  7 */
(PID.TID 0000.0001)                 3.714152712500728E+04,      /* I =  8 */
(PID.TID 0000.0001)                 3.717433724834998E+04,      /* I =  9 */
(PID.TID 0000.0001)                 3.720118080314009E+04,      /* I = 10 */
(PID.TID 0000.0001)                 3.722205840764935E+04,      /* I = 11 */
(PID.TID 0000.0001)                 3.723697057073888E+04,      /* I = 12 */
(PID.TID 0000.0001)                 3.724591767054543E+04,      /* I = 13 */
(PID.TID 0000.0001)                 3.724891083990022E+04,      /* I = 14 */
(PID.TID 0000.0001)                 3.724591767054542E+04       /* I = 15 */
(PID.TID 0000.0001)     ;
(PID.TID 0000.0001) dyU =  /* dyU(1,:,1,:) ( units: m ) */
(PID.TID 0000.0001)                 3.674473316658630E+04,      /* J =  1 */
(PID.TID 0000.0001)                 3.719361547538896E+04,      /* J =  2 */
(PID.TID 0000.0001)                 3.764089459751266E+04,      /* J =  3 */
(PID.TID 0000.0001)                 3.808646730382765E+04,      /* J =  4 */
(PID.TID 0000.0001)                 3.853023123895088E+04,      /* J =  5 */
(PID.TID 0000.0001)                 3.897208503739593E+04,      /* J =  6 */
(PID.TID 0000.0001)                 3.941192840112046E+04,      /* J =  7 */
(PID.TID 0000.0001)                 3.984966213263487E+04,      /* J =  8 */
(PID.TID 0000.0001)                 4.028518814419441E+04,      /* J =  9 */
(PID.TID 0000.0001)                 4.071840943468107E+04,      /* J = 10 */
(PID.TID 0000.0001)                 4.114923005120406E+04,      /* J = 11 */
(PID.TID 0000.0001)                 4.157755503103340E+04,      /* J = 12 */
(PID.TID 0000.0001)                 4.200329033666767E+04,      /* J = 13 */
(PID.TID 0000.0001)                 4.242634277960793E+04,      /* J = 14 */
(PID.TID 0000.0001)                 4.284661994092684E+04       /* J = 15 */
(PID.TID 0000.0001)     ;
(PID.TID 0000.0001) rA  =  /* rA (:,1,:,1) ( units: m^2 ) */
(PID.TID 0000.0001)                 7.665113621396177E+08,      /* I =  1 */
(PID.TID 0000.0001)                 7.677029697239892E+08,      /* I =  2 */
(PID.TID 0000.0001)                 7.687913877455838E+08,      /* I =  3 */
(PID.TID 0000.0001)                 7.697775979751738E+08,      /* I =  4 */
(PID.TID 0000.0001)                 7.706625466485583E+08,      /* I =  5 */
(PID.TID 0000.0001)                 7.714470546020026E+08,      /* I =  6 */
(PID.TID 0000.0001)                 7.721318586456149E+08,      /* I =  7 */
(PID.TID 0000.0001)                 7.727176271684608E+08,      /* I =  8 */
(PID.TID 0000.0001)                 7.732049082776864E+08,      /* I =  9 */
(PID.TID 0000.0001)                 7.735941717305043E+08,      /* I = 10 */
(PID.TID 0000.0001)                 7.738858051500469E+08,      /* I = 11 */
(PID.TID 0000.0001)                 7.740801100790358E+08,      /* I = 12 */
(PID.TID 0000.0001)                 7.741766386182301E+08,      /* I = 13 */
(PID.TID 0000.0001)                 7.741766369784317E+08,      /* I = 14 */
(PID.TID 0000.0001)                 7.740801094843833E+08       /* I = 15 */
(PID.TID 0000.0001)     ;
(PID.TID 0000.0001) rA  =  /* rA (1,:,1,:) ( units: m^2 ) */
(PID.TID 0000.0001)                 7.665113621396177E+08,      /* J =  1 */
(PID.TID 0000.0001)                 7.900134359449342E+08,      /* J =  2 */
(PID.TID 0000.0001)                 8.143679155417176E+08,      /* J =  3 */
(PID.TID 0000.0001)                 8.395900636155584E+08,      /* J =  4 */
(PID.TID 0000.0001)                 8.656947784023314E+08,      /* J =  5 */
(PID.TID 0000.0001)                 8.926966010402582E+08,      /* J =  6 */
(PID.TID 0000.0001)                 9.206097737377057E+08,      /* J =  7 */
(PID.TID 0000.0001)                 9.494482582794807E+08,      /* J =  8 */
(PID.TID 0000.0001)                 9.792257431806778E+08,      /* J =  9 */
(PID.TID 0000.0001)                 1.009955679131553E+09,      /* J = 10 */
(PID.TID 0000.0001)                 1.041651296044221E+09,      /* J = 11 */
(PID.TID 0000.0001)                 1.074325614369065E+09,      /* J = 12 */
(PID.TID 0000.0001)                 1.107991467925779E+09,      /* J = 13 */
(PID.TID 0000.0001)                 1.142661498173082E+09,      /* J = 14 */
(PID.TID 0000.0001)                 1.178348167164929E+09       /* J = 15 */
(PID.TID 0000.0001)     ;
(PID.TID 0000.0001) rAw =  /* rAw(:,1,:,1) ( units: m^2 ) */
(PID.TID 0000.0001)                 7.658765213139513E+08,      /* I =  1 */
(PID.TID 0000.0001)                 7.671201328724998E+08,      /* I =  2 */
(PID.TID 0000.0001)                 7.682600121490355E+08,      /* I =  3 */
(PID.TID 0000.0001)                 7.692972101823016E+08,      /* I =  4 */
(PID.TID 0000.0001)                 7.702326756407654E+08,      /* I =  5 */
(PID.TID 0000.0001)                 7.710673044850856E+08,      /* I =  6 */
(PID.TID 0000.0001)                 7.718018764844863E+08,      /* I =  7 */
(PID.TID 0000.0001)                 7.724370884091616E+08,      /* I =  8 */
(PID.TID 0000.0001)                 7.729735468223690E+08,      /* I =  9 */
(PID.TID 0000.0001)                 7.734117650170708E+08,      /* I = 10 */
(PID.TID 0000.0001)                 7.737521718456172E+08,      /* I = 11 */
(PID.TID 0000.0001)                 7.739951054308500E+08,      /* I = 12 */
(PID.TID 0000.0001)                 7.741408739107244E+08,      /* I = 13 */
(PID.TID 0000.0001)                 7.741880730050739E+08,      /* I = 14 */
(PID.TID 0000.0001)                 7.741408710636016E+08       /* I = 15 */
(PID.TID 0000.0001)     ;
(PID.TID 0000.0001) rAw =  /* rAw(1,:,1,:) ( units: m^2 ) */
(PID.TID 0000.0001)                 7.658765213139513E+08,      /* J =  1 */
(PID.TID 0000.0001)                 7.893768970448780E+08,      /* J =  2 */
(PID.TID 0000.0001)                 8.137283914516071E+08,      /* J =  3 */
(PID.TID 0000.0001)                 8.389460603348250E+08,      /* J =  4 */
(PID.TID 0000.0001)                 8.650445848102766E+08,      /* J =  5 */
(PID.TID 0000.0001)                 8.920382782103341E+08,      /* J =  6 */
(PID.TID 0000.0001)                 9.199411445401106E+08,      /* J =  7 */
(PID.TID 0000.0001)                 9.487668893433769E+08,      /* J =  8 */
(PID.TID 0000.0001)                 9.785289545527842E+08,      /* J =  9 */
(PID.TID 0000.0001)                 1.009240515336406E+09,      /* J = 10 */
(PID.TID 0000.0001)                 1.040914522930714E+09,      /* J = 11 */
(PID.TID 0000.0001)                 1.073563715488477E+09,      /* J = 12 */
(PID.TID 0000.0001)                 1.107200612276400E+09,      /* J = 13 */
(PID.TID 0000.0001)                 1.141837554111466E+09,      /* J = 14 */
(PID.TID 0000.0001)                 1.177486672294872E+09       /* J = 15 */
(PID.TID 0000.0001)     ;
(PID.TID 0000.0001) rAs =  /* rAs(:,1,:,1) ( units: m^2 ) */
(PID.TID 0000.0001)                 7.550751050606852E+08,      /* I =  1 */
(PID.TID 0000.0001)                 7.562658447772087E+08,      /* I =  2 */
(PID.TID 0000.0001)                 7.573533970032284E+08,      /* I =  3 */
(PID.TID 0000.0001)                 7.583387692957978E+08,      /* I =  4 */
(PID.TID 0000.0001)                 7.592229121974397E+08,      /* I =  5 */
(PID.TID 0000.0001)                 7.600066705467438E+08,      /* I =  6 */
(PID.TID 0000.0001)                 7.606907923080522E+08,      /* I =  7 */
(PID.TID 0000.0001)                 7.612759532224941E+08,      /* I =  8 */
(PID.TID 0000.0001)                 7.617627129118443E+08,      /* I =  9 */
(PID.TID 0000.0001)                 7.621515550445726E+08,      /* I = 10 */
(PID.TID 0000.0001)                 7.624428588466020E+08,      /* I = 11 */
(PID.TID 0000.0001)                 7.626369483673384E+08,      /* I = 12 */
(PID.TID 0000.0001)                 7.627333738515058E+08,      /* I = 13 */
(PID.TID 0000.0001)                 7.627333728604188E+08,      /* I = 14 */
(PID.TID 0000.0001)                 7.626369508901051E+08       /* I = 15 */
(PID.TID 0000.0001)     ;
(PID.TID 0000.0001) rAs =  /* rAs(1,:,1,:) ( units: m^2 ) */
(PID.TID 0000.0001)                 7.550751050606852E+08,      /* J =  1 */
(PID.TID 0000.0001)                 7.781568160584769E+08,      /* J =  2 */
(PID.TID 0000.0001)                 8.020831616625657E+08,      /* J =  3 */
(PID.TID 0000.0001)                 8.268695937660589E+08,      /* J =  4 */
(PID.TID 0000.0001)                 8.525311818286231E+08,      /* J =  5 */
(PID.TID 0000.0001)                 8.790826547724357E+08,      /* J =  6 */
(PID.TID 0000.0001)                 9.065383887828039E+08,      /* J =  7 */
(PID.TID 0000.0001)                 9.349124897125442E+08,      /* J =  8 */
(PID.TID 0000.0001)                 9.642187819277472E+08,      /* J =  9 */
(PID.TID 0000.0001)                 9.944708240750725E+08,      /* J = 10 */
(PID.TID 0000.0001)                 1.025681954725808E+09,      /* J = 11 */
(PID.TID 0000.0001)                 1.057865313008499E+09,      /* J = 12 */
(PID.TID 0000.0001)                 1.091033805921100E+09,      /* J = 13 */
(PID.TID 0000.0001)                 1.125200178247652E+09,      /* J = 14 */
(PID.TID 0000.0001)                 1.160376979600140E+09       /* J = 15 */
(PID.TID 0000.0001)     ;
(PID.TID 0000.0001) globalArea = /* Integrated horizontal Area (m^2) */
(PID.TID 0000.0001)                 3.580138611494432E+14
(PID.TID 0000.0001)     ;
(PID.TID 0000.0001) hasWetCSCorners = /* Domain contains CS corners (True/False) */
(PID.TID 0000.0001)                   F
(PID.TID 0000.0001)     ;
(PID.TID 0000.0001) // =======================================================
(PID.TID 0000.0001) // End of Model config. summary
(PID.TID 0000.0001) // =======================================================
(PID.TID 0000.0001) 
(PID.TID 0000.0001) == Packages configuration : Check & print summary ==
(PID.TID 0000.0001) 
(PID.TID 0000.0001) GGL90_CHECK: #define ALLOW_GGL90
(PID.TID 0000.0001) GGL90_CHECK: Some form of convection has been enabled
(PID.TID 0000.0001) GMREDI_CHECK: #define GMREDI
(PID.TID 0000.0001) GM_AdvForm =     /* if FALSE => use SkewFlux Form */
(PID.TID 0000.0001)                   T
(PID.TID 0000.0001)     ;
(PID.TID 0000.0001) GM_InMomAsStress = /* if TRUE => apply as Eddy Stress */
(PID.TID 0000.0001)                   F
(PID.TID 0000.0001)     ;
(PID.TID 0000.0001) GM_AdvSeparate = /* Calc Bolus & Euler Adv. separately */
(PID.TID 0000.0001)                   F
(PID.TID 0000.0001)     ;
(PID.TID 0000.0001) GM_ExtraDiag =   /* Tensor Extra Diag (line 1&2) non 0 */
(PID.TID 0000.0001)                   T
(PID.TID 0000.0001)     ;
(PID.TID 0000.0001) GM_isopycK =    /* Background Isopyc. Diffusivity [m^2/s] */
(PID.TID 0000.0001)                 1.000000000000000E+03
(PID.TID 0000.0001)     ;
(PID.TID 0000.0001) GM_skewflx*K =  /* Background GM_SkewFlx Diffusivity [m^2/s] */
(PID.TID 0000.0001)                 0.000000000000000E+00
(PID.TID 0000.0001)     ;
(PID.TID 0000.0001) GM_advec*K =    /* Backg. GM-Advec(=Bolus) Diffusivity [m^2/s]*/
(PID.TID 0000.0001)                 1.000000000000000E+03
(PID.TID 0000.0001)     ;
(PID.TID 0000.0001) GM_Kmin_horiz = /* Minimum Horizontal Diffusivity [m^2/s] */
(PID.TID 0000.0001)                 1.000000000000000E+02
(PID.TID 0000.0001)     ;
(PID.TID 0000.0001) GM_Visbeck_alpha = /* Visbeck alpha coeff. [-] */
(PID.TID 0000.0001)                 0.000000000000000E+00
(PID.TID 0000.0001)     ;
(PID.TID 0000.0001) GM_Small_Number =  /* epsilon used in slope calc */
(PID.TID 0000.0001)                 9.999999999999999E-21
(PID.TID 0000.0001)     ;
(PID.TID 0000.0001) GM_slopeSqCutoff = /* Slope^2 cut-off value */
(PID.TID 0000.0001)                 1.000000000000000E+08
(PID.TID 0000.0001)     ;
(PID.TID 0000.0001) GM_taper_scheme =  /* Type of Tapering/Clipping scheme */
(PID.TID 0000.0001)               'stableGmAdjTap                          '
(PID.TID 0000.0001)     ;
(PID.TID 0000.0001) GM_maxSlope =  /* Maximum Slope (Tapering/Clipping) */
(PID.TID 0000.0001)                 4.000000000000000E-03
(PID.TID 0000.0001)     ;
(PID.TID 0000.0001) GM_facTrL2dz = /* Minimum Trans.Layer Thick. (factor of dz) */
(PID.TID 0000.0001)                 1.000000000000000E+00
(PID.TID 0000.0001)     ;
(PID.TID 0000.0001) GM_facTrL2ML = /* Max.Trans.Layer Thick. (factor of MxL Depth)*/
(PID.TID 0000.0001)                 5.000000000000000E+00
(PID.TID 0000.0001)     ;
(PID.TID 0000.0001) GM_maxTransLay = /* Maximum Transition Layer Thickness [m] */
(PID.TID 0000.0001)                 5.000000000000000E+02
(PID.TID 0000.0001)     ;
(PID.TID 0000.0001) GM_UseBVP = /* if TRUE => use bvp a la Ferrari et al. (2010) */
(PID.TID 0000.0001)                   F
(PID.TID 0000.0001)     ;
(PID.TID 0000.0001) GM_BVP_ModeNumber = /* Vertical mode number for BVP wave speed */
(PID.TID 0000.0001)                       1
(PID.TID 0000.0001)     ;
(PID.TID 0000.0001) GM_BVP_cMin = /* Minimum wave speed for BVP [m/s] */
(PID.TID 0000.0001)                 1.000000000000000E-01
(PID.TID 0000.0001)     ;
(PID.TID 0000.0001) GM_useSubMeso = /* if TRUE => use Sub-Meso param. (B.Fox-Kemper) */
(PID.TID 0000.0001)                   F
(PID.TID 0000.0001)     ;
(PID.TID 0000.0001) subMeso_Ceff = /* efficiency coeff. of Mixed-Layer Eddies [-] */
(PID.TID 0000.0001)                 7.000000000000001E-02
(PID.TID 0000.0001)     ;
(PID.TID 0000.0001) subMeso_invTau = /* inverse of Sub-Meso mixing time-scale [/s] */
(PID.TID 0000.0001)                 2.000000000000000E-06
(PID.TID 0000.0001)     ;
(PID.TID 0000.0001) subMeso_LfMin = /* minimum length-scale "Lf" [m] */
(PID.TID 0000.0001)                 1.000000000000000E+03
(PID.TID 0000.0001)     ;
(PID.TID 0000.0001) subMeso_Lmax = /* maximum grid-scale length [m] */
(PID.TID 0000.0001)                 1.100000000000000E+05
(PID.TID 0000.0001)     ;
(PID.TID 0000.0001) SALT_PLUME_CHECK: #define SALT_PLUME
(PID.TID 0000.0001) CTRL_CHECK: #define ALLOW_CTRL
(PID.TID 0000.0001) GAD_CHECK: #define ALLOW_GENERIC_ADVDIFF
(PID.TID 0000.0001) // =======================================================
(PID.TID 0000.0001) // Check Model config. (CONFIG_CHECK):
(PID.TID 0000.0001) // CONFIG_CHECK : Normal End
(PID.TID 0000.0001) // =======================================================
(PID.TID 0000.0001) 
(PID.TID 0000.0001)  nRecords = 403 ; filePrec =  64 ; fileIter =    174564
(PID.TID 0000.0001)     nDims =   2 , dims:
(PID.TID 0000.0001)    1:  90   1  90
(PID.TID 0000.0001)    2:1170   11170
(PID.TID 0000.0001)     nFlds =  11 , nFl3D =   8 , fields:
(PID.TID 0000.0001)  >Uvel    < >Vvel    < >Theta   < >Salt    < >GuNm1   < >GuNm2   < >GvNm1   < >GvNm2   < >EtaN    < >dEtaHdt < >EtaH    <
(PID.TID 0000.0001) missingVal=  1.00000000000000E+00 ; nTimRec =   1 , timeList:
(PID.TID 0000.0001)   6.284304000000E+08
(PID.TID 0000.0001) READ_MFLDS_3D_RL: read field: "Uvel    ", #   1 in fldList, rec=   1
(PID.TID 0000.0001) READ_MFLDS_3D_RL: read field: "Vvel    ", #   2 in fldList, rec=   2
(PID.TID 0000.0001) READ_MFLDS_3D_RL: read field: "Theta   ", #   3 in fldList, rec=   3
(PID.TID 0000.0001) READ_MFLDS_3D_RL: read field: "Salt    ", #   4 in fldList, rec=   4
(PID.TID 0000.0001) READ_MFLDS_3D_RL: read field: "GuNm1   ", #   5 in fldList, rec=   5
(PID.TID 0000.0001) READ_MFLDS_3D_RL: read field: "GvNm1   ", #   7 in fldList, rec=   7
(PID.TID 0000.0001) READ_MFLDS_3D_RL: read field: "EtaN    ", #   9 in fldList, rec= 401
(PID.TID 0000.0001) READ_MFLDS_3D_RL: read field: "dEtaHdt ", #  10 in fldList, rec= 402
(PID.TID 0000.0001) READ_MFLDS_3D_RL: read field: "EtaH    ", #  11 in fldList, rec= 403
(PID.TID 0000.0001) READ_MFLDS_CHECK: - normal end ; reset MFLDS file-name: pickup.0000174564
(PID.TID 0000.0001) // =======================================================
(PID.TID 0000.0001) // Model current state
(PID.TID 0000.0001) // =======================================================
(PID.TID 0000.0001) 
(PID.TID 0000.0001) SOLVE_FOR_PRESSURE: putPmEinXvector =    F
 cg2d: Sum(rhs),rhsMax =  -8.97105082905844E+03  1.34686581743546E+00
 cg2d: Sum(rhs),rhsMax =  -8.92884083564128E+03  1.25740610732550E+00
 cg2d: Sum(rhs),rhsMax =  -8.91749236000580E+03  1.17130021054629E+00
 cg2d: Sum(rhs),rhsMax =  -8.91079035649391E+03  1.17497245375560E+00
 cg2d: Sum(rhs),rhsMax =  -8.90336299779363E+03  1.17052350237866E+00
 cg2d: Sum(rhs),rhsMax =  -8.89643193279067E+03  1.14628170132998E+00
 cg2d: Sum(rhs),rhsMax =  -8.89046109856267E+03  1.11180542545467E+00
 cg2d: Sum(rhs),rhsMax =  -8.88465441974978E+03  1.08397007054599E+00
 cg2d: Sum(rhs),rhsMax =  -8.87892528692460E+03  1.06705001276874E+00
 cg2d: Sum(rhs),rhsMax =  -8.87325280158624E+03  1.05271796424596E+00
 cg2d: Sum(rhs),rhsMax =  -8.86763456114107E+03  1.02818273987338E+00
 cg2d: Sum(rhs),rhsMax =  -8.86208304971665E+03  9.99503133112897E-01
(PID.TID 0000.0001)      cg2d_init_res =   3.97609482904742E+00
(PID.TID 0000.0001)      cg2d_iters(min,last) =      -1      21
(PID.TID 0000.0001)      cg2d_last_res =   2.99585075568377E-05
(PID.TID 0000.0001) // =======================================================
(PID.TID 0000.0001) // Begin MONITOR dynamic field statistics
(PID.TID 0000.0001) // =======================================================
(PID.TID 0000.0001) %MON time_tsnumber                =                174576
(PID.TID 0000.0001) %MON time_secondsf                =   7.8559200000000E+07
(PID.TID 0000.0001) %MON dynstat_eta_max              =   1.2314890510630E+00
(PID.TID 0000.0001) %MON dynstat_eta_min              =  -3.0250342365888E+00
(PID.TID 0000.0001) %MON dynstat_eta_mean             =   7.0083997619456E-02
(PID.TID 0000.0001) %MON dynstat_eta_sd               =   7.2535106621729E-01
(PID.TID 0000.0001) %MON dynstat_eta_del2             =   1.4902058336118E-04
(PID.TID 0000.0001) %MON dynstat_uvel_max             =   1.2814575385050E+00
(PID.TID 0000.0001) %MON dynstat_uvel_min             =  -1.0097373965004E+00
(PID.TID 0000.0001) %MON dynstat_uvel_mean            =   1.9834931850758E-03
(PID.TID 0000.0001) %MON dynstat_uvel_sd              =   2.3319406031671E-02
(PID.TID 0000.0001) %MON dynstat_uvel_del2            =   1.3432352333953E-05
(PID.TID 0000.0001) %MON dynstat_vvel_max             =   1.0158652872164E+00
(PID.TID 0000.0001) %MON dynstat_vvel_min             =  -1.5321324289423E+00
(PID.TID 0000.0001) %MON dynstat_vvel_mean            =   1.1191675817039E-03
(PID.TID 0000.0001) %MON dynstat_vvel_sd              =   2.5339187850346E-02
(PID.TID 0000.0001) %MON dynstat_vvel_del2            =   1.3599976107983E-05
(PID.TID 0000.0001) %MON dynstat_wvel_max             =   1.4988078065554E-03
(PID.TID 0000.0001) %MON dynstat_wvel_min             =  -1.2826463064847E-03
(PID.TID 0000.0001) %MON dynstat_wvel_mean            =   3.9541631465319E-07
(PID.TID 0000.0001) %MON dynstat_wvel_sd              =   3.0651845208904E-05
(PID.TID 0000.0001) %MON dynstat_wvel_del2            =   3.4904965128466E-08
(PID.TID 0000.0001) %MON dynstat_theta_max            =   3.2176672072625E+01
(PID.TID 0000.0001) %MON dynstat_theta_min            =  -2.0899038165886E+00
(PID.TID 0000.0001) %MON dynstat_theta_mean           =   3.5927340385681E+00
(PID.TID 0000.0001) %MON dynstat_theta_sd             =   4.4427005467611E+00
(PID.TID 0000.0001) %MON dynstat_theta_del2           =   1.0848176582445E-04
(PID.TID 0000.0001) %MON dynstat_salt_max             =   4.0655996845591E+01
(PID.TID 0000.0001) %MON dynstat_salt_min             =   1.6508694111977E+01
(PID.TID 0000.0001) %MON dynstat_salt_mean            =   3.4725052091557E+01
(PID.TID 0000.0001) %MON dynstat_salt_sd              =   3.7877864816700E-01
(PID.TID 0000.0001) %MON dynstat_salt_del2            =   2.5045825944594E-05
(PID.TID 0000.0001) %MON dynstat_sst_max              =   3.2175241369957E+01
(PID.TID 0000.0001) %MON dynstat_sst_min              =  -1.9599023970999E+00
(PID.TID 0000.0001) %MON dynstat_sst_mean             =   1.8150700368153E+01
(PID.TID 0000.0001) %MON dynstat_sst_sd               =   1.0094553455766E+01
(PID.TID 0000.0001) %MON dynstat_sst_del2             =   8.4091605274851E-04
(PID.TID 0000.0001) %MON dynstat_sss_max              =   3.9503008307257E+01
(PID.TID 0000.0001) %MON dynstat_sss_min              =   1.6508694111977E+01
(PID.TID 0000.0001) %MON dynstat_sss_mean             =   3.4675171649682E+01
(PID.TID 0000.0001) %MON dynstat_sss_sd               =   1.2525682885819E+00
(PID.TID 0000.0001) %MON dynstat_sss_del2             =   3.8223003881429E-04
(PID.TID 0000.0001) %MON forcing_qnet_max             =   1.2598174218750E+05
(PID.TID 0000.0001) %MON forcing_qnet_min             =  -3.4519347656250E+04
(PID.TID 0000.0001) %MON forcing_qnet_mean            =  -2.9909834808107E+02
(PID.TID 0000.0001) %MON forcing_qnet_sd              =   9.2545987778577E+02
(PID.TID 0000.0001) %MON forcing_qnet_del2            =   9.7564968876808E+00
(PID.TID 0000.0001) %MON forcing_qsw_max              =   0.0000000000000E+00
(PID.TID 0000.0001) %MON forcing_qsw_min              =  -1.6121106156289E+02
(PID.TID 0000.0001) %MON forcing_qsw_mean             =  -2.1021094810178E+01
(PID.TID 0000.0001) %MON forcing_qsw_sd               =   3.0175137988038E+01
(PID.TID 0000.0001) %MON forcing_qsw_del2             =   2.5765226066716E-02
(PID.TID 0000.0001) %MON forcing_empmr_max            =   1.9692546129227E-01
(PID.TID 0000.0001) %MON forcing_empmr_min            =  -6.7345085553825E-03
(PID.TID 0000.0001) %MON forcing_empmr_mean           =   1.0039154764980E-04
(PID.TID 0000.0001) %MON forcing_empmr_sd             =   1.4577250461614E-03
(PID.TID 0000.0001) %MON forcing_empmr_del2           =   1.0511757237336E-05
(PID.TID 0000.0001) %MON forcing_fu_max               =   8.5675689578056E-01
(PID.TID 0000.0001) %MON forcing_fu_min               =  -6.2634634971619E-01
(PID.TID 0000.0001) %MON forcing_fu_mean              =   4.0095203728891E-03
(PID.TID 0000.0001) %MON forcing_fu_sd                =   1.0518555718055E-01
(PID.TID 0000.0001) %MON forcing_fu_del2              =   9.5892675794629E-05
(PID.TID 0000.0001) %MON forcing_fv_max               =   9.9028879404068E-01
(PID.TID 0000.0001) %MON forcing_fv_min               =  -7.1202048659325E-01
(PID.TID 0000.0001) %MON forcing_fv_mean              =   3.8257226003631E-04
(PID.TID 0000.0001) %MON forcing_fv_sd                =   1.0707849781299E-01
(PID.TID 0000.0001) %MON forcing_fv_del2              =   9.4906105727424E-05
(PID.TID 0000.0001) %MON trAdv_CFL_u_max              =   9.5397093707962E-03
(PID.TID 0000.0001) %MON trAdv_CFL_v_max              =   1.6980071304590E-02
(PID.TID 0000.0001) %MON trAdv_CFL_w_max              =   3.3657175481222E-02
(PID.TID 0000.0001) %MON advcfl_uvel_max              =   9.7883758335466E-03
(PID.TID 0000.0001) %MON advcfl_vvel_max              =   1.8294904251101E-02
(PID.TID 0000.0001) %MON advcfl_wvel_max              =   3.1189125552375E-02
(PID.TID 0000.0001) %MON advcfl_W_hf_max              =   3.1285070633611E-02
(PID.TID 0000.0001) %MON pe_b_mean                    =   6.9852539601598E-04
(PID.TID 0000.0001) %MON ke_max                       =   1.0974812442109E+00
(PID.TID 0000.0001) %MON ke_mean                      =   5.7432383890872E-04
(PID.TID 0000.0001) %MON ke_vol                       =   1.3350229836998E+18
(PID.TID 0000.0001) %MON vort_r_min                   =  -3.0893125069238E-05
(PID.TID 0000.0001) %MON vort_r_max                   =   2.8701647928409E-05
(PID.TID 0000.0001) %MON vort_a_mean                  =  -1.9727724236940E-05
(PID.TID 0000.0001) %MON vort_a_sd                    =   7.4543119955949E-05
(PID.TID 0000.0001) %MON vort_p_mean                  =  -2.1759928438297E-05
(PID.TID 0000.0001) %MON vort_p_sd                    =   9.7241946219097E-05
(PID.TID 0000.0001) %MON surfExpan_theta_mean         =  -4.6937022240835E-08
(PID.TID 0000.0001) %MON surfExpan_salt_mean          =   1.2130705276051E-07
(PID.TID 0000.0001) // =======================================================
(PID.TID 0000.0001) // End MONITOR dynamic field statistics
(PID.TID 0000.0001) // =======================================================
 cg2d: Sum(rhs),rhsMax =  -8.85660118477812E+03  9.66608754780188E-01
 cg2d: Sum(rhs),rhsMax =  -8.85121046749948E+03  9.32110091684355E-01
 cg2d: Sum(rhs),rhsMax =  -8.84595602074483E+03  8.97804021265738E-01
 cg2d: Sum(rhs),rhsMax =  -8.84088721267258E+03  8.64627030525116E-01
 cg2d: Sum(rhs),rhsMax =  -8.83594510010311E+03  8.32808578912872E-01
 cg2d: Sum(rhs),rhsMax =  -8.83106476920523E+03  8.02098816742670E-01
 cg2d: Sum(rhs),rhsMax =  -8.82621935821594E+03  7.72004889387363E-01
 cg2d: Sum(rhs),rhsMax =  -8.82145275462086E+03  7.41995054457487E-01
 cg2d: Sum(rhs),rhsMax =  -8.81677839737777E+03  7.11647476043418E-01
 cg2d: Sum(rhs),rhsMax =  -8.81221416747856E+03  6.80736832369851E-01
 cg2d: Sum(rhs),rhsMax =  -8.80771789461250E+03  6.49259321299121E-01
 cg2d: Sum(rhs),rhsMax =  -8.80327581628428E+03  6.17418065287057E-01
 cg2d: Sum(rhs),rhsMax =  -8.79889949644868E+03  5.85583727728488E-01
 cg2d: Sum(rhs),rhsMax =  -8.79458253373728E+03  5.54245230238417E-01
 cg2d: Sum(rhs),rhsMax =  -8.79032758387388E+03  5.23960066317307E-01
 cg2d: Sum(rhs),rhsMax =  -8.78613532937105E+03  4.95307467964143E-01
 cg2d: Sum(rhs),rhsMax =  -8.78199777952351E+03  4.68850782206635E-01
 cg2d: Sum(rhs),rhsMax =  -8.77792233615278E+03  4.45098897798813E-01
 cg2d: Sum(rhs),rhsMax =  -8.77391389104661E+03  4.24476199844203E-01
 cg2d: Sum(rhs),rhsMax =  -8.76996891748131E+03  4.07309483591115E-01
 cg2d: Sum(rhs),rhsMax =  -8.76609802394992E+03  3.93816700035269E-01
 cg2d: Sum(rhs),rhsMax =  -8.76229472293420E+03  3.84112769998872E-01
 cg2d: Sum(rhs),rhsMax =  -8.75856756220862E+03  3.78217345744818E-01
 cg2d: Sum(rhs),rhsMax =  -8.75494693520566E+03  3.99285699112987E-01
(PID.TID 0000.0001)      cg2d_init_res =   2.49144057042864E+00
(PID.TID 0000.0001)      cg2d_iters(min,last) =      -1      19
(PID.TID 0000.0001)      cg2d_last_res =   3.18487212220806E-05
(PID.TID 0000.0001) // =======================================================
(PID.TID 0000.0001) // Begin MONITOR dynamic field statistics
(PID.TID 0000.0001) // =======================================================
(PID.TID 0000.0001) %MON time_tsnumber                =                174600
(PID.TID 0000.0001) %MON time_secondsf                =   7.8570000000000E+07
(PID.TID 0000.0001) %MON dynstat_eta_max              =   1.2259976157595E+00
(PID.TID 0000.0001) %MON dynstat_eta_min              =  -2.3752864848340E+00
(PID.TID 0000.0001) %MON dynstat_eta_mean             =   6.9236733251449E-02
(PID.TID 0000.0001) %MON dynstat_eta_sd               =   6.9743792257422E-01
(PID.TID 0000.0001) %MON dynstat_eta_del2             =   1.1052600911228E-04
(PID.TID 0000.0001) %MON dynstat_uvel_max             =   1.2460442909719E+00
(PID.TID 0000.0001) %MON dynstat_uvel_min             =  -9.1122834195280E-01
(PID.TID 0000.0001) %MON dynstat_uvel_mean            =   2.2221006898556E-03
(PID.TID 0000.0001) %MON dynstat_uvel_sd              =   2.3110627269812E-02
(PID.TID 0000.0001) %MON dynstat_uvel_del2            =   1.1809926331111E-05
(PID.TID 0000.0001) %MON dynstat_vvel_max             =   7.6510621288792E-01
(PID.TID 0000.0001) %MON dynstat_vvel_min             =  -1.4696783465927E+00
(PID.TID 0000.0001) %MON dynstat_vvel_mean            =   1.3553977723350E-03
(PID.TID 0000.0001) %MON dynstat_vvel_sd              =   2.5138947009447E-02
(PID.TID 0000.0001) %MON dynstat_vvel_del2            =   1.2038871737022E-05
(PID.TID 0000.0001) %MON dynstat_wvel_max             =   1.5832641566025E-03
(PID.TID 0000.0001) %MON dynstat_wvel_min             =  -2.0988549351239E-03
(PID.TID 0000.0001) %MON dynstat_wvel_mean            =  -1.3959452926025E-08
(PID.TID 0000.0001) %MON dynstat_wvel_sd              =   2.7855082486605E-05
(PID.TID 0000.0001) %MON dynstat_wvel_del2            =   3.1186714381912E-08
(PID.TID 0000.0001) %MON dynstat_theta_max            =   3.2170132248646E+01
(PID.TID 0000.0001) %MON dynstat_theta_min            =  -2.0750121861476E+00
(PID.TID 0000.0001) %MON dynstat_theta_mean           =   3.5928393091949E+00
(PID.TID 0000.0001) %MON dynstat_theta_sd             =   4.4429894255529E+00
(PID.TID 0000.0001) %MON dynstat_theta_del2           =   1.0790143714208E-04
(PID.TID 0000.0001) %MON dynstat_salt_max             =   4.0655996736622E+01
(PID.TID 0000.0001) %MON dynstat_salt_min             =   1.6399381417810E+01
(PID.TID 0000.0001) %MON dynstat_salt_mean            =   3.4725035604119E+01
(PID.TID 0000.0001) %MON dynstat_salt_sd              =   3.7881927794962E-01
(PID.TID 0000.0001) %MON dynstat_salt_del2            =   2.5829626831343E-05
(PID.TID 0000.0001) %MON dynstat_sst_max              =   3.2151033776869E+01
(PID.TID 0000.0001) %MON dynstat_sst_min              =  -1.9596821353159E+00
(PID.TID 0000.0001) %MON dynstat_sst_mean             =   1.8175567130986E+01
(PID.TID 0000.0001) %MON dynstat_sst_sd               =   1.0108395409292E+01
(PID.TID 0000.0001) %MON dynstat_sst_del2             =   8.1957908335587E-04
(PID.TID 0000.0001) %MON dynstat_sss_max              =   3.9496831338771E+01
(PID.TID 0000.0001) %MON dynstat_sss_min              =   1.6399381417810E+01
(PID.TID 0000.0001) %MON dynstat_sss_mean             =   3.4669109459410E+01
(PID.TID 0000.0001) %MON dynstat_sss_sd               =   1.2586335736090E+00
(PID.TID 0000.0001) %MON dynstat_sss_del2             =   4.6608512359129E-04
(PID.TID 0000.0001) %MON forcing_qnet_max             =   6.7298984375000E+04
(PID.TID 0000.0001) %MON forcing_qnet_min             =  -8.2646328125000E+03
(PID.TID 0000.0001) %MON forcing_qnet_mean            =  -7.5386605182721E+01
(PID.TID 0000.0001) %MON forcing_qnet_sd              =   4.0349343658582E+02
(PID.TID 0000.0001) %MON forcing_qnet_del2            =   4.4779904153762E+00
(PID.TID 0000.0001) %MON forcing_qsw_max              =   0.0000000000000E+00
(PID.TID 0000.0001) %MON forcing_qsw_min              =  -1.2415690683926E+02
(PID.TID 0000.0001) %MON forcing_qsw_mean             =  -1.6973906681907E+01
(PID.TID 0000.0001) %MON forcing_qsw_sd               =   2.7040290366998E+01
(PID.TID 0000.0001) %MON forcing_qsw_del2             =   2.4993070466122E-02
(PID.TID 0000.0001) %MON forcing_empmr_max            =   2.6074793189764E-02
(PID.TID 0000.0001) %MON forcing_empmr_min            =  -4.3064476922154E-03
(PID.TID 0000.0001) %MON forcing_empmr_mean           =   6.5474124162139E-05
(PID.TID 0000.0001) %MON forcing_empmr_sd             =   6.1846354170489E-04
(PID.TID 0000.0001) %MON forcing_empmr_del2           =   6.5045036218895E-06
(PID.TID 0000.0001) %MON forcing_fu_max               =   8.8553515076637E-01
(PID.TID 0000.0001) %MON forcing_fu_min               =  -7.7021735906601E-01
(PID.TID 0000.0001) %MON forcing_fu_mean              =   7.0647413935661E-03
(PID.TID 0000.0001) %MON forcing_fu_sd                =   1.0612822411683E-01
(PID.TID 0000.0001) %MON forcing_fu_del2              =   9.8565125208606E-05
(PID.TID 0000.0001) %MON forcing_fv_max               =   9.5984360575676E-01
(PID.TID 0000.0001) %MON forcing_fv_min               =  -8.0637806653976E-01
(PID.TID 0000.0001) %MON forcing_fv_mean              =  -6.3255150827854E-04
(PID.TID 0000.0001) %MON forcing_fv_sd                =   1.0670249988679E-01
(PID.TID 0000.0001) %MON forcing_fv_del2              =   9.5313207649939E-05
(PID.TID 0000.0001) %MON trAdv_CFL_u_max              =   7.9654325313876E-03
(PID.TID 0000.0001) %MON trAdv_CFL_v_max              =   8.5882785403536E-03
(PID.TID 0000.0001) %MON trAdv_CFL_w_max              =   2.0808223755693E-02
(PID.TID 0000.0001) %MON advcfl_uvel_max              =   7.6028635585561E-03
(PID.TID 0000.0001) %MON advcfl_vvel_max              =   7.8448652766403E-03
(PID.TID 0000.0001) %MON advcfl_wvel_max              =   2.1522900418548E-02
(PID.TID 0000.0001) %MON advcfl_W_hf_max              =   2.2550999391115E-02
(PID.TID 0000.0001) %MON pe_b_mean                    =   6.4613073495250E-04
(PID.TID 0000.0001) %MON ke_max                       =   1.0212614795233E+00
(PID.TID 0000.0001) %MON ke_mean                      =   5.6554105667298E-04
(PID.TID 0000.0001) %MON ke_vol                       =   1.3350226749005E+18
(PID.TID 0000.0001) %MON vort_r_min                   =  -2.3186123080403E-05
(PID.TID 0000.0001) %MON vort_r_max                   =   3.0494820966243E-05
(PID.TID 0000.0001) %MON vort_a_mean                  =  -1.9727727404296E-05
(PID.TID 0000.0001) %MON vort_a_sd                    =   7.4543188570736E-05
(PID.TID 0000.0001) %MON vort_p_mean                  =  -2.1759937983666E-05
(PID.TID 0000.0001) %MON vort_p_sd                    =   9.7243616517524E-05
(PID.TID 0000.0001) %MON surfExpan_theta_mean         =  -3.2862515456259E-06
(PID.TID 0000.0001) %MON surfExpan_salt_mean          =  -3.5401100885879E-07
(PID.TID 0000.0001) // =======================================================
(PID.TID 0000.0001) // End MONITOR dynamic field statistics
(PID.TID 0000.0001) // =======================================================
 cg2d: Sum(rhs),rhsMax =  -8.75141453939648E+03  4.21502733326377E-01
 cg2d: Sum(rhs),rhsMax =  -8.74795537856312E+03  4.43861849022703E-01
 cg2d: Sum(rhs),rhsMax =  -8.74456555283869E+03  4.65837288964045E-01
 cg2d: Sum(rhs),rhsMax =  -8.74125239423675E+03  4.87067928587810E-01
 cg2d: Sum(rhs),rhsMax =  -8.73800145325002E+03  5.07352723971825E-01
 cg2d: Sum(rhs),rhsMax =  -8.73481003858112E+03  5.26638994564251E-01
 cg2d: Sum(rhs),rhsMax =  -8.73167234587929E+03  5.45001750915920E-01
 cg2d: Sum(rhs),rhsMax =  -8.72859487391660E+03  5.62614606694864E-01
 cg2d: Sum(rhs),rhsMax =  -8.72556774716332E+03  5.79712616533253E-01
 cg2d: Sum(rhs),rhsMax =  -8.72259428320755E+03  5.96550175777676E-01
 cg2d: Sum(rhs),rhsMax =  -8.71966694553038E+03  6.13359690967773E-01
 cg2d: Sum(rhs),rhsMax =  -8.71678442890832E+03  6.30315891764021E-01
 cg2d: Sum(rhs),rhsMax =  -8.71395680457454E+03  6.47510623762382E-01
 cg2d: Sum(rhs),rhsMax =  -8.71117254576557E+03  6.64940145567541E-01
 cg2d: Sum(rhs),rhsMax =  -8.70842236977590E+03  6.82504966476557E-01
 cg2d: Sum(rhs),rhsMax =  -8.70571767545932E+03  7.03420149280182E-01
 cg2d: Sum(rhs),rhsMax =  -8.70305142344790E+03  7.27155484705298E-01
 cg2d: Sum(rhs),rhsMax =  -8.70041045417961E+03  7.49454322924489E-01
 cg2d: Sum(rhs),rhsMax =  -8.69777176360841E+03  7.70435520141417E-01
 cg2d: Sum(rhs),rhsMax =  -8.69507453685710E+03  7.89329435636487E-01
 cg2d: Sum(rhs),rhsMax =  -8.69254751651160E+03  8.05663409580155E-01
 cg2d: Sum(rhs),rhsMax =  -8.68929564034850E+03  8.19230347920257E-01
 cg2d: Sum(rhs),rhsMax =  -8.68680170007526E+03  8.29913399319538E-01
 cg2d: Sum(rhs),rhsMax =  -8.68441758041945E+03  8.37639474750100E-01
(PID.TID 0000.0001)      cg2d_init_res =   2.07897151891867E+00
(PID.TID 0000.0001)      cg2d_iters(min,last) =      -1      18
(PID.TID 0000.0001)      cg2d_last_res =   5.62489860502140E-05
(PID.TID 0000.0001) // =======================================================
(PID.TID 0000.0001) // Begin MONITOR dynamic field statistics
(PID.TID 0000.0001) // =======================================================
(PID.TID 0000.0001) %MON time_tsnumber                =                174624
(PID.TID 0000.0001) %MON time_secondsf                =   7.8580800000000E+07
(PID.TID 0000.0001) %MON dynstat_eta_max              =   1.2221409821359E+00
(PID.TID 0000.0001) %MON dynstat_eta_min              =  -2.6028473293249E+00
(PID.TID 0000.0001) %MON dynstat_eta_mean             =   6.8678966064523E-02
(PID.TID 0000.0001) %MON dynstat_eta_sd               =   6.9406524399210E-01
(PID.TID 0000.0001) %MON dynstat_eta_del2             =   9.4135488250374E-05
(PID.TID 0000.0001) %MON dynstat_uvel_max             =   1.2153279296381E+00
(PID.TID 0000.0001) %MON dynstat_uvel_min             =  -8.3147803016334E-01
(PID.TID 0000.0001) %MON dynstat_uvel_mean            =   2.0507072360184E-03
(PID.TID 0000.0001) %MON dynstat_uvel_sd              =   2.2861942303099E-02
(PID.TID 0000.0001) %MON dynstat_uvel_del2            =   1.1011754821748E-05
(PID.TID 0000.0001) %MON dynstat_vvel_max             =   7.4443071494667E-01
(PID.TID 0000.0001) %MON dynstat_vvel_min             =  -1.4286964734333E+00
(PID.TID 0000.0001) %MON dynstat_vvel_mean            =   1.4571647020014E-03
(PID.TID 0000.0001) %MON dynstat_vvel_sd              =   2.4605929578598E-02
(PID.TID 0000.0001) %MON dynstat_vvel_del2            =   1.1233390937866E-05
(PID.TID 0000.0001) %MON dynstat_wvel_max             =   1.7304655923566E-03
(PID.TID 0000.0001) %MON dynstat_wvel_min             =  -2.4598404312249E-03
(PID.TID 0000.0001) %MON dynstat_wvel_mean            =   3.6881950046955E-08
(PID.TID 0000.0001) %MON dynstat_wvel_sd              =   2.9112671681407E-05
(PID.TID 0000.0001) %MON dynstat_wvel_del2            =   3.4479332686196E-08
(PID.TID 0000.0001) %MON dynstat_theta_max            =   3.2160986691242E+01
(PID.TID 0000.0001) %MON dynstat_theta_min            =  -2.0606887481900E+00
(PID.TID 0000.0001) %MON dynstat_theta_mean           =   3.5928628282147E+00
(PID.TID 0000.0001) %MON dynstat_theta_sd             =   4.4430521123817E+00
(PID.TID 0000.0001) %MON dynstat_theta_del2           =   1.0709917048286E-04
(PID.TID 0000.0001) %MON dynstat_salt_max             =   4.0655996415635E+01
(PID.TID 0000.0001) %MON dynstat_salt_min             =   1.6305351159273E+01
(PID.TID 0000.0001) %MON dynstat_salt_mean            =   3.4725024928558E+01
(PID.TID 0000.0001) %MON dynstat_salt_sd              =   3.7885730528453E-01
(PID.TID 0000.0001) %MON dynstat_salt_del2            =   2.6759436507325E-05
(PID.TID 0000.0001) %MON dynstat_sst_max              =   3.2133498086380E+01
(PID.TID 0000.0001) %MON dynstat_sst_min              =  -1.9594070856986E+00
(PID.TID 0000.0001) %MON dynstat_sst_mean             =   1.8177889294257E+01
(PID.TID 0000.0001) %MON dynstat_sst_sd               =   1.0121144723450E+01
(PID.TID 0000.0001) %MON dynstat_sst_del2             =   7.9951103988331E-04
(PID.TID 0000.0001) %MON dynstat_sss_max              =   3.9492728771754E+01
(PID.TID 0000.0001) %MON dynstat_sss_min              =   1.6305351159273E+01
(PID.TID 0000.0001) %MON dynstat_sss_mean             =   3.4665470841613E+01
(PID.TID 0000.0001) %MON dynstat_sss_sd               =   1.2634447280575E+00
(PID.TID 0000.0001) %MON dynstat_sss_del2             =   5.5424042823191E-04
(PID.TID 0000.0001) %MON forcing_qnet_max             =   4.5405359399677E+04
(PID.TID 0000.0001) %MON forcing_qnet_min             =  -2.6569262695312E+03
(PID.TID 0000.0001) %MON forcing_qnet_mean            =  -6.4943189753193E+00
(PID.TID 0000.0001) %MON forcing_qnet_sd              =   3.3512812635733E+02
(PID.TID 0000.0001) %MON forcing_qnet_del2            =   3.8533074566389E+00
(PID.TID 0000.0001) %MON forcing_qsw_max              =   0.0000000000000E+00
(PID.TID 0000.0001) %MON forcing_qsw_min              =  -1.1024950807626E+02
(PID.TID 0000.0001) %MON forcing_qsw_mean             =  -1.3912229167242E+01
(PID.TID 0000.0001) %MON forcing_qsw_sd               =   2.6688966639324E+01
(PID.TID 0000.0001) %MON forcing_qsw_del2             =   2.1642421820700E-02
(PID.TID 0000.0001) %MON forcing_empmr_max            =   2.5020616129041E-02
(PID.TID 0000.0001) %MON forcing_empmr_min            =  -7.3063154704869E-03
(PID.TID 0000.0001) %MON forcing_empmr_mean           =   4.3113567410768E-05
(PID.TID 0000.0001) %MON forcing_empmr_sd             =   5.0766393522274E-04
(PID.TID 0000.0001) %MON forcing_empmr_del2           =   5.7607643303180E-06
(PID.TID 0000.0001) %MON forcing_fu_max               =   8.3613687753677E-01
(PID.TID 0000.0001) %MON forcing_fu_min               =  -7.4294075369835E-01
(PID.TID 0000.0001) %MON forcing_fu_mean              =   8.5598248053993E-03
(PID.TID 0000.0001) %MON forcing_fu_sd                =   1.0757288531122E-01
(PID.TID 0000.0001) %MON forcing_fu_del2              =   1.0058522255757E-04
(PID.TID 0000.0001) %MON forcing_fv_max               =   9.8142781853676E-01
(PID.TID 0000.0001) %MON forcing_fv_min               =  -7.9091015458107E-01
(PID.TID 0000.0001) %MON forcing_fv_mean              =  -1.6640999532591E-03
(PID.TID 0000.0001) %MON forcing_fv_sd                =   1.0719865646116E-01
(PID.TID 0000.0001) %MON forcing_fv_del2              =   9.3700014187156E-05
(PID.TID 0000.0001) %MON trAdv_CFL_u_max              =   7.3246867861428E-03
(PID.TID 0000.0001) %MON trAdv_CFL_v_max              =   6.8367629751658E-03
(PID.TID 0000.0001) %MON trAdv_CFL_w_max              =   2.4150645380484E-02
(PID.TID 0000.0001) %MON advcfl_uvel_max              =   7.8558528974574E-03
(PID.TID 0000.0001) %MON advcfl_vvel_max              =   6.2148292900016E-03
(PID.TID 0000.0001) %MON advcfl_wvel_max              =   2.1922555687406E-02
(PID.TID 0000.0001) %MON advcfl_W_hf_max              =   2.3501669025491E-02
(PID.TID 0000.0001) %MON pe_b_mean                    =   6.3985646113471E-04
(PID.TID 0000.0001) %MON ke_max                       =   9.6061343004903E-01
(PID.TID 0000.0001) %MON ke_mean                      =   5.4702692887695E-04
(PID.TID 0000.0001) %MON ke_vol                       =   1.3350224717112E+18
(PID.TID 0000.0001) %MON vort_r_min                   =  -2.5426307246669E-05
(PID.TID 0000.0001) %MON vort_r_max                   =   2.1951603952895E-05
(PID.TID 0000.0001) %MON vort_a_mean                  =  -1.9727725190131E-05
(PID.TID 0000.0001) %MON vort_a_sd                    =   7.4543161859214E-05
(PID.TID 0000.0001) %MON vort_p_mean                  =  -2.1759938117120E-05
(PID.TID 0000.0001) %MON vort_p_sd                    =   9.7244399322707E-05
(PID.TID 0000.0001) %MON surfExpan_theta_mean         =  -1.2103174583932E-06
(PID.TID 0000.0001) %MON surfExpan_salt_mean          =  -2.7669351133977E-07
(PID.TID 0000.0001) // =======================================================
(PID.TID 0000.0001) // End MONITOR dynamic field statistics
(PID.TID 0000.0001) // =======================================================
 cg2d: Sum(rhs),rhsMax =  -8.68206866970556E+03  8.42466058567205E-01
 cg2d: Sum(rhs),rhsMax =  -8.67974228014719E+03  8.44531279224389E-01
 cg2d: Sum(rhs),rhsMax =  -8.67744221587860E+03  8.44037373734074E-01
 cg2d: Sum(rhs),rhsMax =  -8.67514804827174E+03  8.41246278090227E-01
 cg2d: Sum(rhs),rhsMax =  -8.67289225543184E+03  8.36469315305848E-01
 cg2d: Sum(rhs),rhsMax =  -8.67067452477771E+03  8.30051622889959E-01
 cg2d: Sum(rhs),rhsMax =  -8.66847781738102E+03  8.23152675238565E-01
 cg2d: Sum(rhs),rhsMax =  -8.66629697046831E+03  8.15918239453004E-01
 cg2d: Sum(rhs),rhsMax =  -8.66413568511969E+03  8.08152509431137E-01
 cg2d: Sum(rhs),rhsMax =  -8.66199827342763E+03  8.00116222525348E-01
 cg2d: Sum(rhs),rhsMax =  -8.65987832568601E+03  7.92032480143598E-01
 cg2d: Sum(rhs),rhsMax =  -8.65778865317857E+03  7.84082899152381E-01
 cg2d: Sum(rhs),rhsMax =  -8.65572454152970E+03  7.76407269597196E-01
 cg2d: Sum(rhs),rhsMax =  -8.65370830569240E+03  7.69104670003098E-01
 cg2d: Sum(rhs),rhsMax =  -8.65173838959206E+03  7.62237431206396E-01
 cg2d: Sum(rhs),rhsMax =  -8.64978854118564E+03  7.55841516882455E-01
 cg2d: Sum(rhs),rhsMax =  -8.64785431174698E+03  7.49915378269482E-01
 cg2d: Sum(rhs),rhsMax =  -8.64593085680024E+03  7.44435649055752E-01
 cg2d: Sum(rhs),rhsMax =  -8.64400530149520E+03  7.39368767731489E-01
 cg2d: Sum(rhs),rhsMax =  -8.64205287083111E+03  7.34686447905886E-01
 cg2d: Sum(rhs),rhsMax =  -8.64012973064862E+03  7.30323087819031E-01
 cg2d: Sum(rhs),rhsMax =  -8.63827581358124E+03  7.26231358297178E-01
 cg2d: Sum(rhs),rhsMax =  -8.63650359493581E+03  7.22383557255252E-01
 cg2d: Sum(rhs),rhsMax =  -8.63475661200151E+03  7.18752862573862E-01
(PID.TID 0000.0001)      cg2d_init_res =   1.72780060931045E+00
(PID.TID 0000.0001)      cg2d_iters(min,last) =      -1      18
(PID.TID 0000.0001)      cg2d_last_res =   5.00088069654422E-05
(PID.TID 0000.0001) // =======================================================
(PID.TID 0000.0001) // Begin MONITOR dynamic field statistics
(PID.TID 0000.0001) // =======================================================
(PID.TID 0000.0001) %MON time_tsnumber                =                174648
(PID.TID 0000.0001) %MON time_secondsf                =   7.8591600000000E+07
(PID.TID 0000.0001) %MON dynstat_eta_max              =   1.2189624911344E+00
(PID.TID 0000.0001) %MON dynstat_eta_min              =  -2.2262078176257E+00
(PID.TID 0000.0001) %MON dynstat_eta_mean             =   6.8286232305106E-02
(PID.TID 0000.0001) %MON dynstat_eta_sd               =   6.9623568489922E-01
(PID.TID 0000.0001) %MON dynstat_eta_del2             =   8.3434640671734E-05
(PID.TID 0000.0001) %MON dynstat_uvel_max             =   1.1891051199189E+00
(PID.TID 0000.0001) %MON dynstat_uvel_min             =  -7.8007458385031E-01
(PID.TID 0000.0001) %MON dynstat_uvel_mean            =   1.9007163175000E-03
(PID.TID 0000.0001) %MON dynstat_uvel_sd              =   2.2465595731813E-02
(PID.TID 0000.0001) %MON dynstat_uvel_del2            =   1.0453387054743E-05
(PID.TID 0000.0001) %MON dynstat_vvel_max             =   7.2471706461483E-01
(PID.TID 0000.0001) %MON dynstat_vvel_min             =  -1.3927846808593E+00
(PID.TID 0000.0001) %MON dynstat_vvel_mean            =   1.4223680556854E-03
(PID.TID 0000.0001) %MON dynstat_vvel_sd              =   2.4228991369634E-02
(PID.TID 0000.0001) %MON dynstat_vvel_del2            =   1.0645729700940E-05
(PID.TID 0000.0001) %MON dynstat_wvel_max             =   1.6944715536079E-03
(PID.TID 0000.0001) %MON dynstat_wvel_min             =  -2.1815635000970E-03
(PID.TID 0000.0001) %MON dynstat_wvel_mean            =   7.9834698584520E-08
(PID.TID 0000.0001) %MON dynstat_wvel_sd              =   2.8763998247588E-05
(PID.TID 0000.0001) %MON dynstat_wvel_del2            =   3.3921700871621E-08
(PID.TID 0000.0001) %MON dynstat_theta_max            =   3.2148423769973E+01
(PID.TID 0000.0001) %MON dynstat_theta_min            =  -2.0472771570045E+00
(PID.TID 0000.0001) %MON dynstat_theta_mean           =   3.5928581980452E+00
(PID.TID 0000.0001) %MON dynstat_theta_sd             =   4.4430154386529E+00
(PID.TID 0000.0001) %MON dynstat_theta_del2           =   1.0614301341904E-04
(PID.TID 0000.0001) %MON dynstat_salt_max             =   4.0655995897945E+01
(PID.TID 0000.0001) %MON dynstat_salt_min             =   1.6222876187886E+01
(PID.TID 0000.0001) %MON dynstat_salt_mean            =   3.4725015642465E+01
(PID.TID 0000.0001) %MON dynstat_salt_sd              =   3.7889635936351E-01
(PID.TID 0000.0001) %MON dynstat_salt_del2            =   2.7671742582931E-05
(PID.TID 0000.0001) %MON dynstat_sst_max              =   3.2110859961370E+01
(PID.TID 0000.0001) %MON dynstat_sst_min              =  -1.9589547399956E+00
(PID.TID 0000.0001) %MON dynstat_sst_mean             =   1.8174880227485E+01
(PID.TID 0000.0001) %MON dynstat_sst_sd               =   1.0129545609287E+01
(PID.TID 0000.0001) %MON dynstat_sst_del2             =   7.8152531553342E-04
(PID.TID 0000.0001) %MON dynstat_sss_max              =   3.9489718864283E+01
(PID.TID 0000.0001) %MON dynstat_sss_min              =   1.6222876187886E+01
(PID.TID 0000.0001) %MON dynstat_sss_mean             =   3.4662439024948E+01
(PID.TID 0000.0001) %MON dynstat_sss_sd               =   1.2679205521415E+00
(PID.TID 0000.0001) %MON dynstat_sss_del2             =   6.3084929792462E-04
(PID.TID 0000.0001) %MON forcing_qnet_max             =   6.8222707567207E+03
(PID.TID 0000.0001) %MON forcing_qnet_min             =  -7.7361992187500E+03
(PID.TID 0000.0001) %MON forcing_qnet_mean            =   8.0160957649793E+00
(PID.TID 0000.0001) %MON forcing_qnet_sd              =   2.6210571541214E+02
(PID.TID 0000.0001) %MON forcing_qnet_del2            =   1.2405137858157E+00
(PID.TID 0000.0001) %MON forcing_qsw_max              =   0.0000000000000E+00
(PID.TID 0000.0001) %MON forcing_qsw_min              =  -1.2259668037601E+02
(PID.TID 0000.0001) %MON forcing_qsw_mean             =  -1.4071923229656E+01
(PID.TID 0000.0001) %MON forcing_qsw_sd               =   2.3755277730295E+01
(PID.TID 0000.0001) %MON forcing_qsw_del2             =   2.1926082305427E-02
(PID.TID 0000.0001) %MON forcing_empmr_max            =   6.0479443520308E-02
(PID.TID 0000.0001) %MON forcing_empmr_min            =  -1.0326335206628E-02
(PID.TID 0000.0001) %MON forcing_empmr_mean           =   3.1591814748272E-05
(PID.TID 0000.0001) %MON forcing_empmr_sd             =   5.1166676479211E-04
(PID.TID 0000.0001) %MON forcing_empmr_del2           =   5.0720384066233E-06
(PID.TID 0000.0001) %MON forcing_fu_max               =   8.0900689959527E-01
(PID.TID 0000.0001) %MON forcing_fu_min               =  -7.0044699311257E-01
(PID.TID 0000.0001) %MON forcing_fu_mean              =   8.5048039565525E-03
(PID.TID 0000.0001) %MON forcing_fu_sd                =   1.1007904102335E-01
(PID.TID 0000.0001) %MON forcing_fu_del2              =   1.0108979070061E-04
(PID.TID 0000.0001) %MON forcing_fv_max               =   9.8126387596130E-01
(PID.TID 0000.0001) %MON forcing_fv_min               =  -6.4765444397926E-01
(PID.TID 0000.0001) %MON forcing_fv_mean              =  -7.1552063603848E-04
(PID.TID 0000.0001) %MON forcing_fv_sd                =   1.0800141987914E-01
(PID.TID 0000.0001) %MON forcing_fv_del2              =   9.1709742017919E-05
(PID.TID 0000.0001) %MON trAdv_CFL_u_max              =   6.6007766085421E-03
(PID.TID 0000.0001) %MON trAdv_CFL_v_max              =   6.8803833079095E-03
(PID.TID 0000.0001) %MON trAdv_CFL_w_max              =   2.9678575856277E-02
(PID.TID 0000.0001) %MON advcfl_uvel_max              =   5.6162746459357E-03
(PID.TID 0000.0001) %MON advcfl_vvel_max              =   5.6392196970231E-03
(PID.TID 0000.0001) %MON advcfl_wvel_max              =   2.8240991947611E-02
(PID.TID 0000.0001) %MON advcfl_W_hf_max              =   2.8606744513833E-02
(PID.TID 0000.0001) %MON pe_b_mean                    =   6.4375501177282E-04
(PID.TID 0000.0001) %MON ke_max                       =   9.0523133789112E-01
(PID.TID 0000.0001) %MON ke_mean                      =   5.2915402344287E-04
(PID.TID 0000.0001) %MON ke_vol                       =   1.3350223293032E+18
(PID.TID 0000.0001) %MON vort_r_min                   =  -1.7387344338592E-05
(PID.TID 0000.0001) %MON vort_r_max                   =   1.9236581561550E-05
(PID.TID 0000.0001) %MON vort_a_mean                  =  -1.9727726041997E-05
(PID.TID 0000.0001) %MON vort_a_sd                    =   7.4543104122222E-05
(PID.TID 0000.0001) %MON vort_p_mean                  =  -2.1759940498395E-05
(PID.TID 0000.0001) %MON vort_p_sd                    =   9.7244894331117E-05
(PID.TID 0000.0001) %MON surfExpan_theta_mean         =  -5.0345389231942E-08
(PID.TID 0000.0001) %MON surfExpan_salt_mean          =  -1.1465059841073E-07
(PID.TID 0000.0001) // =======================================================
(PID.TID 0000.0001) // End MONITOR dynamic field statistics
(PID.TID 0000.0001) // =======================================================
 cg2d: Sum(rhs),rhsMax =  -8.63303528230693E+03  7.15311620475378E-01
 cg2d: Sum(rhs),rhsMax =  -8.63133344789637E+03  7.12037572256663E-01
 cg2d: Sum(rhs),rhsMax =  -8.62965730788844E+03  7.09774603571646E-01
 cg2d: Sum(rhs),rhsMax =  -8.62798414030706E+03  7.07776364425755E-01
 cg2d: Sum(rhs),rhsMax =  -8.62633177410894E+03  7.05830459495969E-01
 cg2d: Sum(rhs),rhsMax =  -8.62469849784680E+03  7.03946461624957E-01
 cg2d: Sum(rhs),rhsMax =  -8.62308922834691E+03  7.02144236048644E-01
 cg2d: Sum(rhs),rhsMax =  -8.62150485694168E+03  7.00452611743176E-01
 cg2d: Sum(rhs),rhsMax =  -8.61995294732007E+03  6.98906635790059E-01
 cg2d: Sum(rhs),rhsMax =  -8.61843015060821E+03  6.97541187639559E-01
 cg2d: Sum(rhs),rhsMax =  -8.61692181504805E+03  6.96392750482649E-01
 cg2d: Sum(rhs),rhsMax =  -8.61542878191900E+03  6.95478370769082E-01
 cg2d: Sum(rhs),rhsMax =  -8.61394800613181E+03  6.94798577619301E-01
 cg2d: Sum(rhs),rhsMax =  -8.61249121868295E+03  6.94348808306641E-01
 cg2d: Sum(rhs),rhsMax =  -8.61103053831908E+03  6.94120359540583E-01
 cg2d: Sum(rhs),rhsMax =  -8.60957835241264E+03  6.94093613614482E-01
 cg2d: Sum(rhs),rhsMax =  -8.60812482989557E+03  6.94236187871676E-01
 cg2d: Sum(rhs),rhsMax =  -8.60668781777385E+03  6.94503878373889E-01
 cg2d: Sum(rhs),rhsMax =  -8.60525445473529E+03  6.94845958561709E-01
 cg2d: Sum(rhs),rhsMax =  -8.60383470853784E+03  6.95209680681879E-01
 cg2d: Sum(rhs),rhsMax =  -8.60242929679603E+03  6.95518049979493E-01
 cg2d: Sum(rhs),rhsMax =  -8.60104911785210E+03  6.95722852860919E-01
 cg2d: Sum(rhs),rhsMax =  -8.59968185711391E+03  6.95979341563944E-01
 cg2d: Sum(rhs),rhsMax =  -8.59832322763255E+03  6.95999330880196E-01
(PID.TID 0000.0001)      cg2d_init_res =   1.45418664612661E+00
(PID.TID 0000.0001)      cg2d_iters(min,last) =      -1      18
(PID.TID 0000.0001)      cg2d_last_res =   4.72968118216783E-05
(PID.TID 0000.0001) // =======================================================
(PID.TID 0000.0001) // Begin MONITOR dynamic field statistics
(PID.TID 0000.0001) // =======================================================
(PID.TID 0000.0001) %MON time_tsnumber                =                174672
(PID.TID 0000.0001) %MON time_secondsf                =   7.8602400000000E+07
(PID.TID 0000.0001) %MON dynstat_eta_max              =   1.2107787885874E+00
(PID.TID 0000.0001) %MON dynstat_eta_min              =  -2.0380901320915E+00
(PID.TID 0000.0001) %MON dynstat_eta_mean             =   6.7998106228081E-02
(PID.TID 0000.0001) %MON dynstat_eta_sd               =   6.9290052900800E-01
(PID.TID 0000.0001) %MON dynstat_eta_del2             =   7.5574381563475E-05
(PID.TID 0000.0001) %MON dynstat_uvel_max             =   1.1602827609549E+00
(PID.TID 0000.0001) %MON dynstat_uvel_min             =  -7.7024708677793E-01
(PID.TID 0000.0001) %MON dynstat_uvel_mean            =   1.9047716326807E-03
(PID.TID 0000.0001) %MON dynstat_uvel_sd              =   2.2073457828242E-02
(PID.TID 0000.0001) %MON dynstat_uvel_del2            =   1.0053976603957E-05
(PID.TID 0000.0001) %MON dynstat_vvel_max             =   7.0645585784503E-01
(PID.TID 0000.0001) %MON dynstat_vvel_min             =  -1.3600485514783E+00
(PID.TID 0000.0001) %MON dynstat_vvel_mean            =   1.4376897737711E-03
(PID.TID 0000.0001) %MON dynstat_vvel_sd              =   2.3936936611719E-02
(PID.TID 0000.0001) %MON dynstat_vvel_del2            =   1.0185888607396E-05
(PID.TID 0000.0001) %MON dynstat_wvel_max             =   2.0460490489455E-03
(PID.TID 0000.0001) %MON dynstat_wvel_min             =  -1.3160639279743E-03
(PID.TID 0000.0001) %MON dynstat_wvel_mean            =   6.9573825662521E-08
(PID.TID 0000.0001) %MON dynstat_wvel_sd              =   2.6942693625394E-05
(PID.TID 0000.0001) %MON dynstat_wvel_del2            =   3.1832783531347E-08
(PID.TID 0000.0001) %MON dynstat_theta_max            =   3.2135001783085E+01
(PID.TID 0000.0001) %MON dynstat_theta_min            =  -2.0346537054443E+00
(PID.TID 0000.0001) %MON dynstat_theta_mean           =   3.5928547571208E+00
(PID.TID 0000.0001) %MON dynstat_theta_sd             =   4.4429890349874E+00
(PID.TID 0000.0001) %MON dynstat_theta_del2           =   1.0517261884552E-04
(PID.TID 0000.0001) %MON dynstat_salt_max             =   4.0655995662003E+01
(PID.TID 0000.0001) %MON dynstat_salt_min             =   1.6149027014411E+01
(PID.TID 0000.0001) %MON dynstat_salt_mean            =   3.4725007475011E+01
(PID.TID 0000.0001) %MON dynstat_salt_sd              =   3.7893344063533E-01
(PID.TID 0000.0001) %MON dynstat_salt_del2            =   2.8470890438614E-05
(PID.TID 0000.0001) %MON dynstat_sst_max              =   3.2086509533942E+01
(PID.TID 0000.0001) %MON dynstat_sst_min              =  -1.9587418840892E+00
(PID.TID 0000.0001) %MON dynstat_sst_mean             =   1.8172246751959E+01
(PID.TID 0000.0001) %MON dynstat_sst_sd               =   1.0135982802673E+01
(PID.TID 0000.0001) %MON dynstat_sst_del2             =   7.6582887856915E-04
(PID.TID 0000.0001) %MON dynstat_sss_max              =   3.9486561160957E+01
(PID.TID 0000.0001) %MON dynstat_sss_min              =   1.6149027014411E+01
(PID.TID 0000.0001) %MON dynstat_sss_mean             =   3.4659888845866E+01
(PID.TID 0000.0001) %MON dynstat_sss_sd               =   1.2718911485890E+00
(PID.TID 0000.0001) %MON dynstat_sss_del2             =   6.9087930439794E-04
(PID.TID 0000.0001) %MON forcing_qnet_max             =   3.0242423209867E+03
(PID.TID 0000.0001) %MON forcing_qnet_min             =  -2.7058093261719E+03
(PID.TID 0000.0001) %MON forcing_qnet_mean            =  -1.0697272647106E+00
(PID.TID 0000.0001) %MON forcing_qnet_sd              =   2.4151926016740E+02
(PID.TID 0000.0001) %MON forcing_qnet_del2            =   8.0891258946198E-01
(PID.TID 0000.0001) %MON forcing_qsw_max              =   0.0000000000000E+00
(PID.TID 0000.0001) %MON forcing_qsw_min              =  -1.0808439806699E+02
(PID.TID 0000.0001) %MON forcing_qsw_mean             =  -1.5844751863400E+01
(PID.TID 0000.0001) %MON forcing_qsw_sd               =   2.8112342685200E+01
(PID.TID 0000.0001) %MON forcing_qsw_del2             =   2.2591203800518E-02
(PID.TID 0000.0001) %MON forcing_empmr_max            =   1.1914605274796E-02
(PID.TID 0000.0001) %MON forcing_empmr_min            =  -1.0205077938735E-02
(PID.TID 0000.0001) %MON forcing_empmr_mean           =   2.4568969761635E-05
(PID.TID 0000.0001) %MON forcing_empmr_sd             =   3.7904816040042E-04
(PID.TID 0000.0001) %MON forcing_empmr_del2           =   4.4515747607660E-06
(PID.TID 0000.0001) %MON forcing_fu_max               =   7.6349025964737E-01
(PID.TID 0000.0001) %MON forcing_fu_min               =  -7.6968979835510E-01
(PID.TID 0000.0001) %MON forcing_fu_mean              =   8.0995637989258E-03
(PID.TID 0000.0001) %MON forcing_fu_sd                =   1.1292610704844E-01
(PID.TID 0000.0001) %MON forcing_fu_del2              =   1.0344977006571E-04
(PID.TID 0000.0001) %MON forcing_fv_max               =   8.8855713605881E-01
(PID.TID 0000.0001) %MON forcing_fv_min               =  -5.0193160772324E-01
(PID.TID 0000.0001) %MON forcing_fv_mean              =   3.1595405205480E-04
(PID.TID 0000.0001) %MON forcing_fv_sd                =   1.0741520812380E-01
(PID.TID 0000.0001) %MON forcing_fv_del2              =   9.2506465936800E-05
(PID.TID 0000.0001) %MON trAdv_CFL_u_max              =   6.5574888279918E-03
(PID.TID 0000.0001) %MON trAdv_CFL_v_max              =   7.0319332187561E-03
(PID.TID 0000.0001) %MON trAdv_CFL_w_max              =   2.5411602626690E-02
(PID.TID 0000.0001) %MON advcfl_uvel_max              =   5.8129703704979E-03
(PID.TID 0000.0001) %MON advcfl_vvel_max              =   7.0377869305696E-03
(PID.TID 0000.0001) %MON advcfl_wvel_max              =   2.6494819615450E-02
(PID.TID 0000.0001) %MON advcfl_W_hf_max              =   2.8268579497741E-02
(PID.TID 0000.0001) %MON pe_b_mean                    =   6.3760928643351E-04
(PID.TID 0000.0001) %MON ke_max                       =   8.5542073486072E-01
(PID.TID 0000.0001) %MON ke_mean                      =   5.1397808023635E-04
(PID.TID 0000.0001) %MON ke_vol                       =   1.3350222250505E+18
(PID.TID 0000.0001) %MON vort_r_min                   =  -2.3519631785189E-05
(PID.TID 0000.0001) %MON vort_r_max                   =   2.0478092647190E-05
(PID.TID 0000.0001) %MON vort_a_mean                  =  -1.9727726330767E-05
(PID.TID 0000.0001) %MON vort_a_sd                    =   7.4543107535668E-05
(PID.TID 0000.0001) %MON vort_p_mean                  =  -2.1759943939961E-05
(PID.TID 0000.0001) %MON vort_p_sd                    =   9.7245424042635E-05
(PID.TID 0000.0001) %MON surfExpan_theta_mean         =  -1.0022127429694E-06
(PID.TID 0000.0001) %MON surfExpan_salt_mean          =  -4.4402488965223E-08
(PID.TID 0000.0001) // =======================================================
(PID.TID 0000.0001) // End MONITOR dynamic field statistics
(PID.TID 0000.0001) // =======================================================
 cg2d: Sum(rhs),rhsMax =  -8.59698243834135E+03  6.95741891869000E-01
 cg2d: Sum(rhs),rhsMax =  -8.59565155024788E+03  6.95173955341671E-01
 cg2d: Sum(rhs),rhsMax =  -8.59432270834523E+03  6.94276514030191E-01
 cg2d: Sum(rhs),rhsMax =  -8.59300095083193E+03  6.93047476053725E-01
 cg2d: Sum(rhs),rhsMax =  -8.59169387001597E+03  6.91501544568548E-01
 cg2d: Sum(rhs),rhsMax =  -8.59040321196676E+03  6.89669647960632E-01
 cg2d: Sum(rhs),rhsMax =  -8.58910865576602E+03  6.87596684401628E-01
 cg2d: Sum(rhs),rhsMax =  -8.58782198227282E+03  6.85340177591117E-01
 cg2d: Sum(rhs),rhsMax =  -8.58654255151095E+03  6.82967482448804E-01
 cg2d: Sum(rhs),rhsMax =  -8.58527084570510E+03  6.80552914195548E-01
 cg2d: Sum(rhs),rhsMax =  -8.58401716841377E+03  6.78175214822404E-01
 cg2d: Sum(rhs),rhsMax =  -8.58276633325203E+03  6.75913714229740E-01
 cg2d: Sum(rhs),rhsMax =  -8.58154491823054E+03  6.73845573920424E-01
 cg2d: Sum(rhs),rhsMax =  -8.58035488108297E+03  6.72042199561830E-01
 cg2d: Sum(rhs),rhsMax =  -8.57917691053670E+03  6.70566091658812E-01
 cg2d: Sum(rhs),rhsMax =  -8.57801075151773E+03  6.69468778014403E-01
 cg2d: Sum(rhs),rhsMax =  -8.57685767258414E+03  6.68788301273449E-01
 cg2d: Sum(rhs),rhsMax =  -8.57572487838871E+03  6.68550120755579E-01
 cg2d: Sum(rhs),rhsMax =  -8.57460111277379E+03  6.68768991297977E-01
 cg2d: Sum(rhs),rhsMax =  -8.57347742396913E+03  6.69438784442147E-01
 cg2d: Sum(rhs),rhsMax =  -8.57236504776327E+03  6.70529102645350E-01
 cg2d: Sum(rhs),rhsMax =  -8.57125958284989E+03  6.71996693514665E-01
 cg2d: Sum(rhs),rhsMax =  -8.57017626518592E+03  6.73796325756833E-01
 cg2d: Sum(rhs),rhsMax =  -8.56911233572054E+03  6.75881467404570E-01
(PID.TID 0000.0001)      cg2d_init_res =   1.29993960747918E+00
(PID.TID 0000.0001)      cg2d_iters(min,last) =      -1      18
(PID.TID 0000.0001)      cg2d_last_res =   4.13848578073770E-05
(PID.TID 0000.0001) // =======================================================
(PID.TID 0000.0001) // Begin MONITOR dynamic field statistics
(PID.TID 0000.0001) // =======================================================
(PID.TID 0000.0001) %MON time_tsnumber                =                174696
(PID.TID 0000.0001) %MON time_secondsf                =   7.8613200000000E+07
(PID.TID 0000.0001) %MON dynstat_eta_max              =   1.1998400256364E+00
(PID.TID 0000.0001) %MON dynstat_eta_min              =  -1.9407932944551E+00
(PID.TID 0000.0001) %MON dynstat_eta_mean             =   6.7767097776937E-02
(PID.TID 0000.0001) %MON dynstat_eta_sd               =   6.8516239640424E-01
(PID.TID 0000.0001) %MON dynstat_eta_del2             =   7.2575338355839E-05
(PID.TID 0000.0001) %MON dynstat_uvel_max             =   1.1295477482548E+00
(PID.TID 0000.0001) %MON dynstat_uvel_min             =  -7.5446799202407E-01
(PID.TID 0000.0001) %MON dynstat_uvel_mean            =   2.0172750904042E-03
(PID.TID 0000.0001) %MON dynstat_uvel_sd              =   2.1794624928296E-02
(PID.TID 0000.0001) %MON dynstat_uvel_del2            =   9.6796975048570E-06
(PID.TID 0000.0001) %MON dynstat_vvel_max             =   6.8841951681322E-01
(PID.TID 0000.0001) %MON dynstat_vvel_min             =  -1.3308577445718E+00
(PID.TID 0000.0001) %MON dynstat_vvel_mean            =   1.4460782672611E-03
(PID.TID 0000.0001) %MON dynstat_vvel_sd              =   2.3642626650988E-02
(PID.TID 0000.0001) %MON dynstat_vvel_del2            =   9.7140564058605E-06
(PID.TID 0000.0001) %MON dynstat_wvel_max             =   2.2267520722315E-03
(PID.TID 0000.0001) %MON dynstat_wvel_min             =  -1.2766791694257E-03
(PID.TID 0000.0001) %MON dynstat_wvel_mean            =   3.1098697819107E-08
(PID.TID 0000.0001) %MON dynstat_wvel_sd              =   2.5757023371148E-05
(PID.TID 0000.0001) %MON dynstat_wvel_del2            =   3.0012088167200E-08
(PID.TID 0000.0001) %MON dynstat_theta_max            =   3.2121384602948E+01
(PID.TID 0000.0001) %MON dynstat_theta_min            =  -2.0220546588254E+00
(PID.TID 0000.0001) %MON dynstat_theta_mean           =   3.5928586446464E+00
(PID.TID 0000.0001) %MON dynstat_theta_sd             =   4.4430025619226E+00
(PID.TID 0000.0001) %MON dynstat_theta_del2           =   1.0430073222797E-04
(PID.TID 0000.0001) %MON dynstat_salt_max             =   4.0655995537694E+01
(PID.TID 0000.0001) %MON dynstat_salt_min             =   1.6081808610682E+01
(PID.TID 0000.0001) %MON dynstat_salt_mean            =   3.4725000118687E+01
(PID.TID 0000.0001) %MON dynstat_salt_sd              =   3.7896730861787E-01
(PID.TID 0000.0001) %MON dynstat_salt_del2            =   2.9102200834121E-05
(PID.TID 0000.0001) %MON dynstat_sst_max              =   3.2061880950359E+01
(PID.TID 0000.0001) %MON dynstat_sst_min              =  -1.9583529550661E+00
(PID.TID 0000.0001) %MON dynstat_sst_mean             =   1.8172245404060E+01
(PID.TID 0000.0001) %MON dynstat_sst_sd               =   1.0143028351510E+01
(PID.TID 0000.0001) %MON dynstat_sst_del2             =   7.5596168004410E-04
(PID.TID 0000.0001) %MON dynstat_sss_max              =   3.9484312471278E+01
(PID.TID 0000.0001) %MON dynstat_sss_min              =   1.6081808610682E+01
(PID.TID 0000.0001) %MON dynstat_sss_mean             =   3.4657756864073E+01
(PID.TID 0000.0001) %MON dynstat_sss_sd               =   1.2754904817710E+00
(PID.TID 0000.0001) %MON dynstat_sss_del2             =   7.3561215408990E-04
(PID.TID 0000.0001) %MON forcing_qnet_max             =   2.5612973131680E+03
(PID.TID 0000.0001) %MON forcing_qnet_min             =  -1.6291342318124E+03
(PID.TID 0000.0001) %MON forcing_qnet_mean            =  -1.0318707823884E+01
(PID.TID 0000.0001) %MON forcing_qnet_sd              =   2.3035474200336E+02
(PID.TID 0000.0001) %MON forcing_qnet_del2            =   6.6413647602546E-01
(PID.TID 0000.0001) %MON forcing_qsw_max              =   0.0000000000000E+00
(PID.TID 0000.0001) %MON forcing_qsw_min              =  -1.0911081237303E+02
(PID.TID 0000.0001) %MON forcing_qsw_mean             =  -1.8587259107823E+01
(PID.TID 0000.0001) %MON forcing_qsw_sd               =   2.8472672532568E+01
(PID.TID 0000.0001) %MON forcing_qsw_del2             =   2.3703518984859E-02
(PID.TID 0000.0001) %MON forcing_empmr_max            =   1.0020655579865E-02
(PID.TID 0000.0001) %MON forcing_empmr_min            =  -1.5086662955582E-02
(PID.TID 0000.0001) %MON forcing_empmr_mean           =   1.9239720043046E-05
(PID.TID 0000.0001) %MON forcing_empmr_sd             =   3.4901760746754E-04
(PID.TID 0000.0001) %MON forcing_empmr_del2           =   3.9575529741394E-06
(PID.TID 0000.0001) %MON forcing_fu_max               =   8.2422479987144E-01
(PID.TID 0000.0001) %MON forcing_fu_min               =  -7.1006160974502E-01
(PID.TID 0000.0001) %MON forcing_fu_mean              =   8.4549671453729E-03
(PID.TID 0000.0001) %MON forcing_fu_sd                =   1.1505773178876E-01
(PID.TID 0000.0001) %MON forcing_fu_del2              =   1.0538021258394E-04
(PID.TID 0000.0001) %MON forcing_fv_max               =   8.4984666532703E-01
(PID.TID 0000.0001) %MON forcing_fv_min               =  -7.3794698715210E-01
(PID.TID 0000.0001) %MON forcing_fv_mean              =  -2.3603268412171E-04
(PID.TID 0000.0001) %MON forcing_fv_sd                =   1.0577949870694E-01
(PID.TID 0000.0001) %MON forcing_fv_del2              =   9.5728527951084E-05
(PID.TID 0000.0001) %MON trAdv_CFL_u_max              =   7.0826484523302E-03
(PID.TID 0000.0001) %MON trAdv_CFL_v_max              =   7.2856533940076E-03
(PID.TID 0000.0001) %MON trAdv_CFL_w_max              =   2.1047222455255E-02
(PID.TID 0000.0001) %MON advcfl_uvel_max              =   5.6769235007634E-03
(PID.TID 0000.0001) %MON advcfl_vvel_max              =   7.8531515256735E-03
(PID.TID 0000.0001) %MON advcfl_wvel_max              =   2.2064980696749E-02
(PID.TID 0000.0001) %MON advcfl_W_hf_max              =   2.3635205501511E-02
(PID.TID 0000.0001) %MON pe_b_mean                    =   6.2354136927577E-04
(PID.TID 0000.0001) %MON ke_max                       =   8.1032143136513E-01
(PID.TID 0000.0001) %MON ke_mean                      =   5.0155202984737E-04
(PID.TID 0000.0001) %MON ke_vol                       =   1.3350221415119E+18
(PID.TID 0000.0001) %MON vort_r_min                   =  -2.1882852890697E-05
(PID.TID 0000.0001) %MON vort_r_max                   =   2.3444877444713E-05
(PID.TID 0000.0001) %MON vort_a_mean                  =  -1.9727726999305E-05
(PID.TID 0000.0001) %MON vort_a_sd                    =   7.4543129854837E-05
(PID.TID 0000.0001) %MON vort_p_mean                  =  -2.1759946114629E-05
(PID.TID 0000.0001) %MON vort_p_sd                    =   9.7245954606660E-05
(PID.TID 0000.0001) %MON surfExpan_theta_mean         =  -1.8830371023794E-06
(PID.TID 0000.0001) %MON surfExpan_salt_mean          =  -1.1630069458983E-07
(PID.TID 0000.0001) // =======================================================
(PID.TID 0000.0001) // End MONITOR dynamic field statistics
(PID.TID 0000.0001) // =======================================================
 cg2d: Sum(rhs),rhsMax =  -8.56805399876690E+03  6.78199267415043E-01
 cg2d: Sum(rhs),rhsMax =  -8.56699129113334E+03  6.80689028891407E-01
 cg2d: Sum(rhs),rhsMax =  -8.56594298418732E+03  6.83285359945666E-01
 cg2d: Sum(rhs),rhsMax =  -8.56491475658217E+03  6.85921967703278E-01
 cg2d: Sum(rhs),rhsMax =  -8.56389587510251E+03  6.88535370692435E-01
 cg2d: Sum(rhs),rhsMax =  -8.56286463141204E+03  6.91068011361495E-01
 cg2d: Sum(rhs),rhsMax =  -8.56183148967573E+03  6.93469792120960E-01
 cg2d: Sum(rhs),rhsMax =  -8.56082214637106E+03  6.95699423324276E-01
 cg2d: Sum(rhs),rhsMax =  -8.55982294394366E+03  6.97725342114447E-01
 cg2d: Sum(rhs),rhsMax =  -8.55881323444004E+03  6.99525808911598E-01
 cg2d: Sum(rhs),rhsMax =  -8.55780761035084E+03  7.01088392341608E-01
 cg2d: Sum(rhs),rhsMax =  -8.55680376058511E+03  7.02410050640911E-01
 cg2d: Sum(rhs),rhsMax =  -8.55578057671812E+03  7.03496460390326E-01
 cg2d: Sum(rhs),rhsMax =  -8.55474102018103E+03  7.04361615935660E-01
 cg2d: Sum(rhs),rhsMax =  -8.55377724648505E+03  7.05027549312419E-01
 cg2d: Sum(rhs),rhsMax =  -8.55280035506788E+03  7.05523190156693E-01
 cg2d: Sum(rhs),rhsMax =  -8.55186812134241E+03  7.05882542922228E-01
 cg2d: Sum(rhs),rhsMax =  -8.55093987968620E+03  7.06143385030873E-01
 cg2d: Sum(rhs),rhsMax =  -8.55001391346019E+03  7.06344976459915E-01
 cg2d: Sum(rhs),rhsMax =  -8.54908510074835E+03  7.06534288744659E-01
 cg2d: Sum(rhs),rhsMax =  -8.54816285016151E+03  7.06746299940377E-01
 cg2d: Sum(rhs),rhsMax =  -8.54723914354566E+03  7.07002297045462E-01
 cg2d: Sum(rhs),rhsMax =  -8.54632181052523E+03  7.07327253758854E-01
 cg2d: Sum(rhs),rhsMax =  -8.54541214694787E+03  7.07753845665565E-01
(PID.TID 0000.0001)      cg2d_init_res =   1.12263192388839E+00
(PID.TID 0000.0001)      cg2d_iters(min,last) =      -1      17
(PID.TID 0000.0001)      cg2d_last_res =   4.23888712927760E-05
(PID.TID 0000.0001) // =======================================================
(PID.TID 0000.0001) // Begin MONITOR dynamic field statistics
(PID.TID 0000.0001) // =======================================================
(PID.TID 0000.0001) %MON time_tsnumber                =                174720
(PID.TID 0000.0001) %MON time_secondsf                =   7.8624000000000E+07
(PID.TID 0000.0001) %MON dynstat_eta_max              =   1.1870039245615E+00
(PID.TID 0000.0001) %MON dynstat_eta_min              =  -2.0081371051134E+00
(PID.TID 0000.0001) %MON dynstat_eta_mean             =   6.7579669610873E-02
(PID.TID 0000.0001) %MON dynstat_eta_sd               =   6.7976198647662E-01
(PID.TID 0000.0001) %MON dynstat_eta_del2             =   6.7543243253366E-05
(PID.TID 0000.0001) %MON dynstat_uvel_max             =   1.1012970902755E+00
(PID.TID 0000.0001) %MON dynstat_uvel_min             =  -7.3683109001033E-01
(PID.TID 0000.0001) %MON dynstat_uvel_mean            =   1.6426955073422E-03
(PID.TID 0000.0001) %MON dynstat_uvel_sd              =   2.1499839573066E-02
(PID.TID 0000.0001) %MON dynstat_uvel_del2            =   9.3159571065328E-06
(PID.TID 0000.0001) %MON dynstat_vvel_max             =   6.7447188214322E-01
(PID.TID 0000.0001) %MON dynstat_vvel_min             =  -1.3022009913562E+00
(PID.TID 0000.0001) %MON dynstat_vvel_mean            =   1.5944159174738E-03
(PID.TID 0000.0001) %MON dynstat_vvel_sd              =   2.3347475562568E-02
(PID.TID 0000.0001) %MON dynstat_vvel_del2            =   9.3455956507778E-06
(PID.TID 0000.0001) %MON dynstat_wvel_max             =   1.8471037596713E-03
(PID.TID 0000.0001) %MON dynstat_wvel_min             =  -1.1079788678901E-03
(PID.TID 0000.0001) %MON dynstat_wvel_mean            =  -6.5578025189203E-09
(PID.TID 0000.0001) %MON dynstat_wvel_sd              =   2.5153533721933E-05
(PID.TID 0000.0001) %MON dynstat_wvel_del2            =   2.8360828152454E-08
(PID.TID 0000.0001) %MON dynstat_theta_max            =   3.2105719271424E+01
(PID.TID 0000.0001) %MON dynstat_theta_min            =  -2.0097291147297E+00
(PID.TID 0000.0001) %MON dynstat_theta_mean           =   3.5928673647493E+00
(PID.TID 0000.0001) %MON dynstat_theta_sd             =   4.4430452510443E+00
(PID.TID 0000.0001) %MON dynstat_theta_del2           =   1.0350044672618E-04
(PID.TID 0000.0001) %MON dynstat_salt_max             =   4.0655995380402E+01
(PID.TID 0000.0001) %MON dynstat_salt_min             =   1.6023756269986E+01
(PID.TID 0000.0001) %MON dynstat_salt_mean            =   3.4724993256726E+01
(PID.TID 0000.0001) %MON dynstat_salt_sd              =   3.7899754066661E-01
(PID.TID 0000.0001) %MON dynstat_salt_del2            =   2.9624505887793E-05
(PID.TID 0000.0001) %MON dynstat_sst_max              =   3.2036388300619E+01
(PID.TID 0000.0001) %MON dynstat_sst_min              =  -1.9576780710790E+00
(PID.TID 0000.0001) %MON dynstat_sst_mean             =   1.8173318129062E+01
(PID.TID 0000.0001) %MON dynstat_sst_sd               =   1.0150211901524E+01
(PID.TID 0000.0001) %MON dynstat_sst_del2             =   7.5129166355133E-04
(PID.TID 0000.0001) %MON dynstat_sss_max              =   3.9488718893729E+01
(PID.TID 0000.0001) %MON dynstat_sss_min              =   1.6023756269986E+01
(PID.TID 0000.0001) %MON dynstat_sss_mean             =   3.4655962679806E+01
(PID.TID 0000.0001) %MON dynstat_sss_sd               =   1.2786965003260E+00
(PID.TID 0000.0001) %MON dynstat_sss_del2             =   7.7213860208638E-04
(PID.TID 0000.0001) %MON forcing_qnet_max             =   3.6590654296875E+03
(PID.TID 0000.0001) %MON forcing_qnet_min             =  -1.2837142314047E+03
(PID.TID 0000.0001) %MON forcing_qnet_mean            =  -1.7450302935727E+01
(PID.TID 0000.0001) %MON forcing_qnet_sd              =   2.3372525925980E+02
(PID.TID 0000.0001) %MON forcing_qnet_del2            =   6.0215417379892E-01
(PID.TID 0000.0001) %MON forcing_qsw_max              =   0.0000000000000E+00
(PID.TID 0000.0001) %MON forcing_qsw_min              =  -1.1210378386297E+02
(PID.TID 0000.0001) %MON forcing_qsw_mean             =  -2.1175459988053E+01
(PID.TID 0000.0001) %MON forcing_qsw_sd               =   3.1210633085578E+01
(PID.TID 0000.0001) %MON forcing_qsw_del2             =   2.3499306600398E-02
(PID.TID 0000.0001) %MON forcing_empmr_max            =   1.5919325873256E-02
(PID.TID 0000.0001) %MON forcing_empmr_min            =  -2.8328586369753E-02
(PID.TID 0000.0001) %MON forcing_empmr_mean           =   1.6450030881392E-05
(PID.TID 0000.0001) %MON forcing_empmr_sd             =   3.5243810708649E-04
(PID.TID 0000.0001) %MON forcing_empmr_del2           =   3.7617577717137E-06
(PID.TID 0000.0001) %MON forcing_fu_max               =   8.3968880772590E-01
(PID.TID 0000.0001) %MON forcing_fu_min               =  -7.3514464497566E-01
(PID.TID 0000.0001) %MON forcing_fu_mean              =   8.7214170850782E-03
(PID.TID 0000.0001) %MON forcing_fu_sd                =   1.1675330608437E-01
(PID.TID 0000.0001) %MON forcing_fu_del2              =   1.0970590634720E-04
(PID.TID 0000.0001) %MON forcing_fv_max               =   8.5916487445758E-01
(PID.TID 0000.0001) %MON forcing_fv_min               =  -6.0729435086250E-01
(PID.TID 0000.0001) %MON forcing_fv_mean              =  -1.0947883440656E-03
(PID.TID 0000.0001) %MON forcing_fv_sd                =   1.0438805350793E-01
(PID.TID 0000.0001) %MON forcing_fv_del2              =   9.6901045776282E-05
(PID.TID 0000.0001) %MON trAdv_CFL_u_max              =   7.4182803193969E-03
(PID.TID 0000.0001) %MON trAdv_CFL_v_max              =   7.1372890507420E-03
(PID.TID 0000.0001) %MON trAdv_CFL_w_max              =   2.2780499383060E-02
(PID.TID 0000.0001) %MON advcfl_uvel_max              =   5.6920398586010E-03
(PID.TID 0000.0001) %MON advcfl_vvel_max              =   5.6256717430859E-03
(PID.TID 0000.0001) %MON advcfl_wvel_max              =   2.3706642372740E-02
(PID.TID 0000.0001) %MON advcfl_W_hf_max              =   2.5076536163164E-02
(PID.TID 0000.0001) %MON pe_b_mean                    =   6.1381218622140E-04
(PID.TID 0000.0001) %MON ke_max                       =   7.7784293112905E-01
(PID.TID 0000.0001) %MON ke_mean                      =   4.8826694314166E-04
(PID.TID 0000.0001) %MON ke_vol                       =   1.3350220739733E+18
(PID.TID 0000.0001) %MON vort_r_min                   =  -1.5736156907465E-05
(PID.TID 0000.0001) %MON vort_r_max                   =   1.7497750981185E-05
(PID.TID 0000.0001) %MON vort_a_mean                  =  -1.9727725837370E-05
(PID.TID 0000.0001) %MON vort_a_sd                    =   7.4543056199148E-05
(PID.TID 0000.0001) %MON vort_p_mean                  =  -2.1759945491500E-05
(PID.TID 0000.0001) %MON vort_p_sd                    =   9.7246179746071E-05
(PID.TID 0000.0001) %MON surfExpan_theta_mean         =  -8.6517489740519E-07
(PID.TID 0000.0001) %MON surfExpan_salt_mean          =  -4.9568080284793E-09
(PID.TID 0000.0001) // =======================================================
(PID.TID 0000.0001) // End MONITOR dynamic field statistics
(PID.TID 0000.0001) // =======================================================
(PID.TID 0000.0001) %CHECKPOINT    174720 0000174720
 cg2d: Sum(rhs),rhsMax =  -8.54448704995785E+03  7.08310889673175E-01
 cg2d: Sum(rhs),rhsMax =  -8.54356867222559E+03  7.09015991953152E-01
 cg2d: Sum(rhs),rhsMax =  -8.54266704803516E+03  7.09876541279891E-01
 cg2d: Sum(rhs),rhsMax =  -8.54177983264271E+03  7.10893634227662E-01
 cg2d: Sum(rhs),rhsMax =  -8.54090974854590E+03  7.12063106401070E-01
 cg2d: Sum(rhs),rhsMax =  -8.54002932105670E+03  7.13375014176360E-01
 cg2d: Sum(rhs),rhsMax =  -8.53915587908061E+03  7.14813908365872E-01
 cg2d: Sum(rhs),rhsMax =  -8.53829305151445E+03  7.16358790667163E-01
 cg2d: Sum(rhs),rhsMax =  -8.53744046537370E+03  7.17984083097958E-01
 cg2d: Sum(rhs),rhsMax =  -8.53659309039607E+03  7.19660211945407E-01
 cg2d: Sum(rhs),rhsMax =  -8.53575916437220E+03  7.21354706852133E-01
 cg2d: Sum(rhs),rhsMax =  -8.53490243289991E+03  7.23032493624697E-01
 cg2d: Sum(rhs),rhsMax =  -8.53406162298425E+03  7.24656643619886E-01
 cg2d: Sum(rhs),rhsMax =  -8.53322112344961E+03  7.26223262750973E-01
 cg2d: Sum(rhs),rhsMax =  -8.53237041886000E+03  7.27650544874765E-01
 cg2d: Sum(rhs),rhsMax =  -8.53152374341930E+03  7.28875364717588E-01
 cg2d: Sum(rhs),rhsMax =  -8.53069933262750E+03  7.29883842561273E-01
 cg2d: Sum(rhs),rhsMax =  -8.52986457065147E+03  7.30668463631963E-01
 cg2d: Sum(rhs),rhsMax =  -8.52904438826555E+03  7.31203167712910E-01
 cg2d: Sum(rhs),rhsMax =  -8.52820302939909E+03  7.31451252517666E-01
 cg2d: Sum(rhs),rhsMax =  -8.52737535049861E+03  7.31379480716362E-01
 cg2d: Sum(rhs),rhsMax =  -8.52654139480743E+03  7.30965285796258E-01
 cg2d: Sum(rhs),rhsMax =  -8.52570437701460E+03  7.30304181749019E-01
 cg2d: Sum(rhs),rhsMax =  -8.52486321458011E+03  7.29117415098266E-01
(PID.TID 0000.0001)      cg2d_init_res =   9.30423267180397E-01
(PID.TID 0000.0001)      cg2d_iters(min,last) =      -1      16
(PID.TID 0000.0001)      cg2d_last_res =   4.12546178335340E-05
(PID.TID 0000.0001) // =======================================================
(PID.TID 0000.0001) // Begin MONITOR dynamic field statistics
(PID.TID 0000.0001) // =======================================================
(PID.TID 0000.0001) %MON time_tsnumber                =                174744
(PID.TID 0000.0001) %MON time_secondsf                =   7.8634800000000E+07
(PID.TID 0000.0001) %MON dynstat_eta_max              =   1.2274843542460E+00
(PID.TID 0000.0001) %MON dynstat_eta_min              =  -2.0025769309362E+00
(PID.TID 0000.0001) %MON dynstat_eta_mean             =   6.7417162520940E-02
(PID.TID 0000.0001) %MON dynstat_eta_sd               =   6.7845128869006E-01
(PID.TID 0000.0001) %MON dynstat_eta_del2             =   6.5230523682433E-05
(PID.TID 0000.0001) %MON dynstat_uvel_max             =   1.0744802232753E+00
(PID.TID 0000.0001) %MON dynstat_uvel_min             =  -7.2616933357555E-01
(PID.TID 0000.0001) %MON dynstat_uvel_mean            =   1.0982979783785E-03
(PID.TID 0000.0001) %MON dynstat_uvel_sd              =   2.1196542284811E-02
(PID.TID 0000.0001) %MON dynstat_uvel_del2            =   8.9643486930749E-06
(PID.TID 0000.0001) %MON dynstat_vvel_max             =   6.5915677281542E-01
(PID.TID 0000.0001) %MON dynstat_vvel_min             =  -1.2775842768873E+00
(PID.TID 0000.0001) %MON dynstat_vvel_mean            =   1.5506310816451E-03
(PID.TID 0000.0001) %MON dynstat_vvel_sd              =   2.3070959224912E-02
(PID.TID 0000.0001) %MON dynstat_vvel_del2            =   8.9686372752112E-06
(PID.TID 0000.0001) %MON dynstat_wvel_max             =   1.8976786644533E-03
(PID.TID 0000.0001) %MON dynstat_wvel_min             =  -8.6256424018121E-04
(PID.TID 0000.0001) %MON dynstat_wvel_mean            =   4.6397644236926E-08
(PID.TID 0000.0001) %MON dynstat_wvel_sd              =   2.4728368017095E-05
(PID.TID 0000.0001) %MON dynstat_wvel_del2            =   2.6865810836112E-08
(PID.TID 0000.0001) %MON dynstat_theta_max            =   3.2088655936538E+01
(PID.TID 0000.0001) %MON dynstat_theta_min            =  -1.9983733711837E+00
(PID.TID 0000.0001) %MON dynstat_theta_mean           =   3.5928839823847E+00
(PID.TID 0000.0001) %MON dynstat_theta_sd             =   4.4431289149588E+00
(PID.TID 0000.0001) %MON dynstat_theta_del2           =   1.0274884429134E-04
(PID.TID 0000.0001) %MON dynstat_salt_max             =   4.0655995250447E+01
(PID.TID 0000.0001) %MON dynstat_salt_min             =   1.5977943629736E+01
(PID.TID 0000.0001) %MON dynstat_salt_mean            =   3.4724987343112E+01
(PID.TID 0000.0001) %MON dynstat_salt_sd              =   3.7902392087194E-01
(PID.TID 0000.0001) %MON dynstat_salt_del2            =   2.9989594092357E-05
(PID.TID 0000.0001) %MON dynstat_sst_max              =   3.2011152217783E+01
(PID.TID 0000.0001) %MON dynstat_sst_min              =  -1.9571025548847E+00
(PID.TID 0000.0001) %MON dynstat_sst_mean             =   1.8175156519023E+01
(PID.TID 0000.0001) %MON dynstat_sst_sd               =   1.0157159526587E+01
(PID.TID 0000.0001) %MON dynstat_sst_del2             =   7.4905625387071E-04
(PID.TID 0000.0001) %MON dynstat_sss_max              =   3.9486192022732E+01
(PID.TID 0000.0001) %MON dynstat_sss_min              =   1.5977943629736E+01
(PID.TID 0000.0001) %MON dynstat_sss_mean             =   3.4654503895697E+01
(PID.TID 0000.0001) %MON dynstat_sss_sd               =   1.2813604934750E+00
(PID.TID 0000.0001) %MON dynstat_sss_del2             =   7.9836427060115E-04
(PID.TID 0000.0001) %MON forcing_qnet_max             =   2.1057053222656E+03
(PID.TID 0000.0001) %MON forcing_qnet_min             =  -1.4960416632473E+03
(PID.TID 0000.0001) %MON forcing_qnet_mean            =  -2.8561105387049E+01
(PID.TID 0000.0001) %MON forcing_qnet_sd              =   2.3016777329984E+02
(PID.TID 0000.0001) %MON forcing_qnet_del2            =   5.6484472329982E-01
(PID.TID 0000.0001) %MON forcing_qsw_max              =   0.0000000000000E+00
(PID.TID 0000.0001) %MON forcing_qsw_min              =  -1.1162446160303E+02
(PID.TID 0000.0001) %MON forcing_qsw_mean             =  -2.2674880976033E+01
(PID.TID 0000.0001) %MON forcing_qsw_sd               =   3.1376954239573E+01
(PID.TID 0000.0001) %MON forcing_qsw_del2             =   2.3299417846798E-02
(PID.TID 0000.0001) %MON forcing_empmr_max            =   2.6518283411860E-02
(PID.TID 0000.0001) %MON forcing_empmr_min            =  -1.0847401805222E-02
(PID.TID 0000.0001) %MON forcing_empmr_mean           =   1.5211280706959E-05
(PID.TID 0000.0001) %MON forcing_empmr_sd             =   3.1839949027065E-04
(PID.TID 0000.0001) %MON forcing_empmr_del2           =   3.4149364950820E-06
(PID.TID 0000.0001) %MON forcing_fu_max               =   7.9669731855392E-01
(PID.TID 0000.0001) %MON forcing_fu_min               =  -6.9565522670746E-01
(PID.TID 0000.0001) %MON forcing_fu_mean              =   8.5485292337660E-03
(PID.TID 0000.0001) %MON forcing_fu_sd                =   1.1807187789921E-01
(PID.TID 0000.0001) %MON forcing_fu_del2              =   1.1026614631084E-04
(PID.TID 0000.0001) %MON forcing_fv_max               =   9.2775216698647E-01
(PID.TID 0000.0001) %MON forcing_fv_min               =  -6.6050472855568E-01
(PID.TID 0000.0001) %MON forcing_fv_mean              =  -7.3532819923449E-04
(PID.TID 0000.0001) %MON forcing_fv_sd                =   1.0466236599817E-01
(PID.TID 0000.0001) %MON forcing_fv_del2              =   9.9899574385650E-05
(PID.TID 0000.0001) %MON trAdv_CFL_u_max              =   7.4211017494944E-03
(PID.TID 0000.0001) %MON trAdv_CFL_v_max              =   7.2098156535646E-03
(PID.TID 0000.0001) %MON trAdv_CFL_w_max              =   2.8052729651916E-02
(PID.TID 0000.0001) %MON advcfl_uvel_max              =   5.7154654789858E-03
(PID.TID 0000.0001) %MON advcfl_vvel_max              =   5.6408535315971E-03
(PID.TID 0000.0001) %MON advcfl_wvel_max              =   2.9200831649590E-02
(PID.TID 0000.0001) %MON advcfl_W_hf_max              =   3.0895826806100E-02
(PID.TID 0000.0001) %MON pe_b_mean                    =   6.1144171188461E-04
(PID.TID 0000.0001) %MON ke_max                       =   7.5974931970929E-01
(PID.TID 0000.0001) %MON ke_mean                      =   4.7504781008911E-04
(PID.TID 0000.0001) %MON ke_vol                       =   1.3350220155995E+18
(PID.TID 0000.0001) %MON vort_r_min                   =  -1.7948723665610E-05
(PID.TID 0000.0001) %MON vort_r_max                   =   1.7571571354042E-05
(PID.TID 0000.0001) %MON vort_a_mean                  =  -1.9727725818467E-05
(PID.TID 0000.0001) %MON vort_a_sd                    =   7.4542966653241E-05
(PID.TID 0000.0001) %MON vort_p_mean                  =  -2.1759946436218E-05
(PID.TID 0000.0001) %MON vort_p_sd                    =   9.7246245457019E-05
(PID.TID 0000.0001) %MON surfExpan_theta_mean         =   6.3354342516269E-08
(PID.TID 0000.0001) %MON surfExpan_salt_mean          =  -1.1527236397337E-07
(PID.TID 0000.0001) // =======================================================
(PID.TID 0000.0001) // End MONITOR dynamic field statistics
(PID.TID 0000.0001) // =======================================================
 cg2d: Sum(rhs),rhsMax =  -8.52398908150321E+03  7.27512548914018E-01
 cg2d: Sum(rhs),rhsMax =  -8.52316162322062E+03  7.25583267605548E-01
 cg2d: Sum(rhs),rhsMax =  -8.52235513302898E+03  7.23318726958194E-01
 cg2d: Sum(rhs),rhsMax =  -8.52155163141545E+03  7.20694642904715E-01
 cg2d: Sum(rhs),rhsMax =  -8.52076681466193E+03  7.17713795892836E-01
 cg2d: Sum(rhs),rhsMax =  -8.51998557379009E+03  7.14396702735210E-01
 cg2d: Sum(rhs),rhsMax =  -8.51921683251079E+03  7.10769143365165E-01
 cg2d: Sum(rhs),rhsMax =  -8.51844987043038E+03  7.06857965942695E-01
 cg2d: Sum(rhs),rhsMax =  -8.51767518590125E+03  7.02692062470960E-01
 cg2d: Sum(rhs),rhsMax =  -8.51690340693496E+03  6.98303234837982E-01
 cg2d: Sum(rhs),rhsMax =  -8.51612441754948E+03  6.93726190817112E-01
 cg2d: Sum(rhs),rhsMax =  -8.51534958720912E+03  6.89001597948368E-01
(PID.TID 0000.0001) DIAGSTATS_CLOSE_IO: close file: dynStDiag.0000174564.txt , unit=    37
(PID.TID 0000.0001) %CHECKPOINT    174756 ckptA
