(PID.TID 0000.0001) 
(PID.TID 0000.0001) // ======================================================
(PID.TID 0000.0001) //                      MITgcm UV
(PID.TID 0000.0001) //                      =========
(PID.TID 0000.0001) // ======================================================
(PID.TID 0000.0001) // execution environment starting up...
(PID.TID 0000.0001) 
(PID.TID 0000.0001) // MITgcmUV version:  checkpoint66k
(PID.TID 0000.0001) // Build user:        dmenemen
(PID.TID 0000.0001) // Build host:        borgq111
(PID.TID 0000.0001) // Build date:        Tue Sep 26 13:04:41 EDT 2017
(PID.TID 0000.0001) 
(PID.TID 0000.0001) // =======================================================
(PID.TID 0000.0001) // Execution Environment parameter file "eedata"
(PID.TID 0000.0001) // =======================================================
(PID.TID 0000.0001) ># Example "eedata" file
(PID.TID 0000.0001) ># Lines beginning "#" are comments
(PID.TID 0000.0001) ># nTx - No. threads per process in X
(PID.TID 0000.0001) ># nTy - No. threads per process in Y
(PID.TID 0000.0001) > &EEPARMS
(PID.TID 0000.0001) > useCubedSphereExchange=.TRUE.,
(PID.TID 0000.0001) > nTx=1,
(PID.TID 0000.0001) > nTy=1,
(PID.TID 0000.0001) > /
(PID.TID 0000.0001) ># Note: Some systems use & as the
(PID.TID 0000.0001) ># namelist terminator. Other systems
(PID.TID 0000.0001) ># use a / character (as shown here).
(PID.TID 0000.0001) 
(PID.TID 0000.0001) // =======================================================
(PID.TID 0000.0001) // Computational Grid Specification ( see files "SIZE.h" )
(PID.TID 0000.0001) //                                  ( and "eedata"       )
(PID.TID 0000.0001) // =======================================================
(PID.TID 0000.0001)      nPx =   96 ; /* No. processes in X */
(PID.TID 0000.0001)      nPy =    1 ; /* No. processes in Y */
(PID.TID 0000.0001)      nSx =    1 ; /* No. tiles in X per process */
(PID.TID 0000.0001)      nSy =    1 ; /* No. tiles in Y per process */
(PID.TID 0000.0001)      sNx =   30 ; /* Tile size in X */
(PID.TID 0000.0001)      sNy =   30 ; /* Tile size in Y */
(PID.TID 0000.0001)      OLx =    4 ; /* Tile overlap distance in X */
(PID.TID 0000.0001)      OLy =    4 ; /* Tile overlap distance in Y */
(PID.TID 0000.0001)      nTx =    1 ; /* No. threads in X per process */
(PID.TID 0000.0001)      nTy =    1 ; /* No. threads in Y per process */
(PID.TID 0000.0001)       Nr =   50 ; /* No. levels in the vertical   */
(PID.TID 0000.0001)       Nx = 2880 ; /* Total domain size in X ( = nPx*nSx*sNx ) */
(PID.TID 0000.0001)       Ny =   30 ; /* Total domain size in Y ( = nPy*nSy*sNy ) */
(PID.TID 0000.0001)   nTiles =    1 ; /* Total no. tiles per process ( = nSx*nSy ) */
(PID.TID 0000.0001)   nProcs =   96 ; /* Total no. processes ( = nPx*nPy ) */
(PID.TID 0000.0001) nThreads =    1 ; /* Total no. threads per process ( = nTx*nTy ) */
(PID.TID 0000.0001) usingMPI =    T ; /* Flag used to control whether MPI is in use */
(PID.TID 0000.0001)                   /*  note: To execute a program with MPI calls */
(PID.TID 0000.0001)                   /*  it must be launched appropriately e.g     */
(PID.TID 0000.0001)                   /*  "mpirun -np 64 ......"                    */
(PID.TID 0000.0001) useCoupler=    F ;/* Flag used to control communications with   */
(PID.TID 0000.0001)                   /*  other model components, through a coupler */
(PID.TID 0000.0001) debugMode =    F ; /* print debug msg. (sequence of S/R calls)  */
(PID.TID 0000.0001) printMapIncludesZeros=    F ; /* print zeros in Std.Output maps */
(PID.TID 0000.0001) maxLengthPrt1D=   65 /* maxLength of 1D array printed to StdOut */
(PID.TID 0000.0001) 
(PID.TID 0000.0001) ======= Starting MPI parallel Run =========
(PID.TID 0000.0001)  My Processor Name (len:  8 ) = borgq111
(PID.TID 0000.0001)  Located at (  0,  0) on processor grid (0: 95,0:  0)
(PID.TID 0000.0001)  Origin at  (     1,     1) on global grid (1:  2880,1:    30)
(PID.TID 0000.0001)  North neighbor = processor 0000
(PID.TID 0000.0001)  South neighbor = processor 0000
(PID.TID 0000.0001)   East neighbor = processor 0001
(PID.TID 0000.0001)   West neighbor = processor 0095
(PID.TID 0000.0001) // ======================================================
(PID.TID 0000.0001) // Mapping of tiles to threads
(PID.TID 0000.0001) // ======================================================
(PID.TID 0000.0001) // -o- Thread   1, tiles (   1:   1,   1:   1)
(PID.TID 0000.0001) 
(PID.TID 0000.0001) W2_READPARMS: opening data.exch2
(PID.TID 0000.0001)  OPEN_COPY_DATA_FILE: opening file data.exch2
(PID.TID 0000.0001) // =======================================================
(PID.TID 0000.0001) // Parameter file "data.exch2"
(PID.TID 0000.0001) // =======================================================
(PID.TID 0000.0001) ># EXCH2 Package: Wrapper-2 User Choice
(PID.TID 0000.0001) >#--------------------
(PID.TID 0000.0001) >#  preDefTopol   :: pre-defined Topology selector:
(PID.TID 0000.0001) >#                :: = 0 : topology defined from processing "data.exch2";
(PID.TID 0000.0001) >#                :: = 1 : simple, single facet topology;
(PID.TID 0000.0001) >#                :: = 2 : customized topology (w2_set_myown_facets)
(PID.TID 0000.0001) >#                :: = 3 : 6-facet Cube (3 face-dims: nRed, nGreen, nBlue).
(PID.TID 0000.0001) >#  dimsFacets    :: facet pair of dimensions (n1x,n1y, n2x,n2y ...)
(PID.TID 0000.0001) >#  facetEdgeLink :: Face-Edge connectivity map:
(PID.TID 0000.0001) >#    facetEdgeLink(i,j)=XX.1 : face(j)-edge(i) (i=1,2,3,4 <==> N,S,E,W)
(PID.TID 0000.0001) >#    is connected to Northern edge of face "XX" ; similarly,
(PID.TID 0000.0001) >#    = XX.2 : to Southern.E, XX.3 = Eastern.E, XX.4 = Western.E of face "XX"
(PID.TID 0000.0001) >#  blankList     :: List of "blank" tiles
(PID.TID 0000.0001) >#  W2_mapIO      :: global map IO selector (-1 = old type ; 0 = 1 long line in X
(PID.TID 0000.0001) >#                :: 1 = compact, mostly in Y dir)
(PID.TID 0000.0001) >#  W2_printMsg   :: option for information messages printing
(PID.TID 0000.0001) >#                :: <0 : write to log file ; =0 : minimum print ;
(PID.TID 0000.0001) >#                :: =1 : no duplicated print ; =2 : all processes do print
(PID.TID 0000.0001) >#--------------------
(PID.TID 0000.0001) > &W2_EXCH2_PARM01
(PID.TID 0000.0001) ># W2_printMsg= 0,
(PID.TID 0000.0001) >  W2_mapIO   = 1,
(PID.TID 0000.0001) >#
(PID.TID 0000.0001) >  preDefTopol=0,
(PID.TID 0000.0001) >#-- 5 facets llc_120 topology (drop facet 6 and its connection):
(PID.TID 0000.0001) >  dimsFacets(1:10) = 90, 270, 90, 270, 90, 90, 270, 90, 270, 90,
(PID.TID 0000.0001) >  facetEdgeLink(1:4,1)= 3.4, 0. , 2.4, 5.1,
(PID.TID 0000.0001) >  facetEdgeLink(1:4,2)= 3.2, 0. , 4.2, 1.3,
(PID.TID 0000.0001) >  facetEdgeLink(1:4,3)= 5.4, 2.1, 4.4, 1.1,
(PID.TID 0000.0001) >  facetEdgeLink(1:4,4)= 5.2, 2.3, 0. , 3.3,
(PID.TID 0000.0001) >  facetEdgeLink(1:4,5)= 1.4, 4.1, 0. , 3.1,
(PID.TID 0000.0001) >#-- full 6 facets llc_120 topology (equivalent to default preDefTopol=3):
(PID.TID 0000.0001) ># dimsFacets(1:12) = 120, 360, 120, 360, 120, 120, 360, 120, 360, 120, 120, 120,
(PID.TID 0000.0001) ># facetEdgeLink(1:4,1)= 3.4, 6.1, 2.4, 5.1,
(PID.TID 0000.0001) ># facetEdgeLink(1:4,2)= 3.2, 6.3, 4.2, 1.3,
(PID.TID 0000.0001) ># facetEdgeLink(1:4,3)= 5.4, 2.1, 4.4, 1.1,
(PID.TID 0000.0001) ># facetEdgeLink(1:4,4)= 5.2, 2.3, 6.2, 3.3,
(PID.TID 0000.0001) ># facetEdgeLink(1:4,5)= 1.4, 4.1, 6.4, 3.1,
(PID.TID 0000.0001) ># facetEdgeLink(1:4,6)= 1.2, 4.3, 2.2, 5.3,
(PID.TID 0000.0001) >#
(PID.TID 0000.0001) >#90x30   nprocs = 36
(PID.TID 0000.0001) >#  blankList(1:3)=1,10,11,
(PID.TID 0000.0001) >#30x90
(PID.TID 0000.0001) >#
(PID.TID 0000.0001) >#45x30   nprocs = 72
(PID.TID 0000.0001) >#  blankList(1:6)=1,2,19,20,21,22
(PID.TID 0000.0001) >#old:  blankList(1:8)=1,2,19,20,21,22,33,72
(PID.TID 0000.0001) >#30x45   nprocs = 68
(PID.TID 0000.0001) >#  blankList(1:10)=2,3,19,20,21,35,51,60,69,78
(PID.TID 0000.0001) >#45x45   nprocs = 48
(PID.TID 0000.0001) >#  blankList(1:4)=2,13,14,23
(PID.TID 0000.0001) >#old:  blankList(1:3)=2,13,14
(PID.TID 0000.0001) >#30x30   nprocs = 96
(PID.TID 0000.0001) >  blankList(1:21)=1,2,3,5,6,28,29,30,31,32,33,49,50,52,53,72,81,90,99,108,117
(PID.TID 0000.0001) >#old:   blankList(1:18)=1,2,3,28,29,30,31,32,33,49,50,53,72,81,90,99,108,117
(PID.TID 0000.0001) >#15x30   nprocs = 192
(PID.TID 0000.0001) >#  blankList(1:42)=1,2,3,4,5,6,9,10,11,12,55,56,57,58,59,60,61,62,63,64,65,66,
(PID.TID 0000.0001) >#            97,98,99,100,103,104,105,106,143,144,
(PID.TID 0000.0001) >#            161,162,179,180,197,198,215,216,233,234
(PID.TID 0000.0001) >#15x15   nprocs = 360
(PID.TID 0000.0001) >#  blankList(1:108)=1,2,3,4,5,6,7,8,9,10,11,12,14,15,16,17,18,21,22,23,24,
(PID.TID 0000.0001) >#  65,71,75,76,90,95,96,101,102,109,110,111,112,113,114,115,116,117,118,119,
(PID.TID 0000.0001) >#  120,121,122,123,124,125,126,127,128,129,130,131,132,
(PID.TID 0000.0001) >#  188,189,190,193,194,195,196,199,
(PID.TID 0000.0001) >#  200,201,202,203,205,206,207,208,209,211,212,213,214,215,216,242,247,253,
(PID.TID 0000.0001) >#  267,268,269,270,287,288,305,306,323,324,341,342,359,360,362,376,377,378,
(PID.TID 0000.0001) >#  380,381,382,395,396,400,412,413,414,430,
(PID.TID 0000.0001) >#
(PID.TID 0000.0001) > &
(PID.TID 0000.0001) 
(PID.TID 0000.0001) W2_READPARMS: finished reading data.exch2
(PID.TID 0000.0001) W2_useE2ioLayOut=    T ;/* T: use Exch2 glob IO map; F: use model default */
(PID.TID 0000.0001) W2_mapIO        =   1 ; /* select option for Exch2 global-IO map */
(PID.TID 0000.0001) W2_printMsg     =  -1 ; /* select option for printing information */
(PID.TID 0000.0001) ===== Start setting W2 TOPOLOGY:
(PID.TID 0000.0001)  write to log-file: w2_tile_topology.0000.log
(PID.TID 0000.0001) =====       setting W2 TOPOLOGY: Done
(PID.TID 0000.0001) 
(PID.TID 0000.0001)  INI_PARMS: opening model parameter file "data"
(PID.TID 0000.0001)  OPEN_COPY_DATA_FILE: opening file data
(PID.TID 0000.0001) // =======================================================
(PID.TID 0000.0001) // Parameter file "data"
(PID.TID 0000.0001) // =======================================================
(PID.TID 0000.0001) ># ====================
(PID.TID 0000.0001) ># | Model parameters |
(PID.TID 0000.0001) ># ====================
(PID.TID 0000.0001) >#
(PID.TID 0000.0001) ># Continuous equation parameters
(PID.TID 0000.0001) > &PARM01
(PID.TID 0000.0001) > tRef               = 3*23.,3*22.,21.,2*20.,19.,2*18.,17.,2*16.,15.,14.,13.,
(PID.TID 0000.0001) >                      12.,11.,2*9.,8.,7.,2*6.,2*5.,3*4.,3*3.,4*2.,12*1.,
(PID.TID 0000.0001) > sRef               = 50*34.5,
(PID.TID 0000.0001) > no_slip_sides  = .TRUE.,
(PID.TID 0000.0001) > no_slip_bottom = .TRUE.,
(PID.TID 0000.0001) >#
(PID.TID 0000.0001) > viscAr=1.E-3,
(PID.TID 0000.0001) >#
(PID.TID 0000.0001) > viscAh=1.E0,
(PID.TID 0000.0001) > viscAhGrid=2.E-2,
(PID.TID 0000.0001) >#
(PID.TID 0000.0001) > diffKhT=1.E1,
(PID.TID 0000.0001) > diffKrT=1.E-5,
(PID.TID 0000.0001) > diffKhS=1.E1,
(PID.TID 0000.0001) > diffKrS=1.E-5,
(PID.TID 0000.0001) >#
(PID.TID 0000.0001) > bottomDragQuadratic = 0.001,
(PID.TID 0000.0001) >#when using ggl90
(PID.TID 0000.0001) > ivdc_kappa=10.,
(PID.TID 0000.0001) > implicitDiffusion=.TRUE.,
(PID.TID 0000.0001) > implicitViscosity=.TRUE.,
(PID.TID 0000.0001) > useRealFreshWaterFlux=.TRUE.,
(PID.TID 0000.0001) > allowFreezing=.FALSE.,
(PID.TID 0000.0001) > hFacMin=.2,
(PID.TID 0000.0001) > hFacMinDr=5.,
(PID.TID 0000.0001) > gravity=9.81,
(PID.TID 0000.0001) > rhonil=1029.,
(PID.TID 0000.0001) > rhoConst=1029.,
(PID.TID 0000.0001) > rhoConstFresh=1000.,
(PID.TID 0000.0001) > convertFW2Salt=-1.,
(PID.TID 0000.0001) > eosType='JMD95Z',
(PID.TID 0000.0001) > implicitFreeSurface=.TRUE.,
(PID.TID 0000.0001) > exactConserv=.TRUE.,
(PID.TID 0000.0001) > useSingleCpuIO=.TRUE.,
(PID.TID 0000.0001) > tempAdvScheme=33,
(PID.TID 0000.0001) > saltAdvScheme=33,
(PID.TID 0000.0001) > staggerTimeStep=.TRUE.,
(PID.TID 0000.0001) > vectorInvariantMomentum=.TRUE.,
(PID.TID 0000.0001) > useJamartWetPoints=.TRUE.,
(PID.TID 0000.0001) > readBinaryPrec=32,
(PID.TID 0000.0001) > writeBinaryPrec=64,
(PID.TID 0000.0001) > debugLevel=1,
(PID.TID 0000.0001) > &
(PID.TID 0000.0001) >
(PID.TID 0000.0001) ># Elliptic solver parameters
(PID.TID 0000.0001) > &PARM02
(PID.TID 0000.0001) > cg2dMaxIters=300,
(PID.TID 0000.0001) > cg2dTargetResWunit=1.E-12,
(PID.TID 0000.0001) > &
(PID.TID 0000.0001) >
(PID.TID 0000.0001) ># Time stepping parameters
(PID.TID 0000.0001) > &PARM03
(PID.TID 0000.0001) > nIter0=0,
(PID.TID 0000.0001) > nTimeSteps=0,
(PID.TID 0000.0001) > forcing_In_AB=.FALSE.,
(PID.TID 0000.0001) > momDissip_In_AB=.FALSE.,
(PID.TID 0000.0001) > deltaT=900.,
(PID.TID 0000.0001) > doAB_onGtGs=.FALSE.,
(PID.TID 0000.0001) >#
(PID.TID 0000.0001) > pChkptFreq  =31536000.0,
(PID.TID 0000.0001) > chkptFreq   =31536000.0,
(PID.TID 0000.0001) > monitorFreq = 3600.0,
(PID.TID 0000.0001) > dumpInitAndLast = .FALSE.,
(PID.TID 0000.0001) > adjMonitorFreq = 864000.0,
(PID.TID 0000.0001) > pickupStrictlyMatch=.FALSE.,
(PID.TID 0000.0001) > &
(PID.TID 0000.0001) >
(PID.TID 0000.0001) ># Gridding parameters
(PID.TID 0000.0001) > &PARM04
(PID.TID 0000.0001) > usingCurvilinearGrid=.TRUE.,
(PID.TID 0000.0001) > delR =
(PID.TID 0000.0001) >     10.00, 10.00, 10.00, 10.00, 10.00, 10.00, 10.00, 10.01,
(PID.TID 0000.0001) >     10.03, 10.11, 10.32, 10.80, 11.76, 13.42, 16.04, 19.82, 24.85,
(PID.TID 0000.0001) >     31.10, 38.42, 46.50, 55.00, 63.50, 71.58, 78.90, 85.15, 90.18,
(PID.TID 0000.0001) >     93.96, 96.58, 98.25, 99.25,100.01,101.33,104.56,111.33,122.83,
(PID.TID 0000.0001) >     139.09,158.94,180.83,203.55,226.50,249.50,272.50,295.50,318.50,
(PID.TID 0000.0001) >     341.50,364.50,387.50,410.50,433.50,456.50,
(PID.TID 0000.0001) > &
(PID.TID 0000.0001) >
(PID.TID 0000.0001) ># Input datasets
(PID.TID 0000.0001) > &PARM05
(PID.TID 0000.0001) > bathyFile      ='bathy.bin',
(PID.TID 0000.0001) > hydrogThetaFile='initial_theta.bin',
(PID.TID 0000.0001) > &
(PID.TID 0000.0001) 
(PID.TID 0000.0001)  INI_PARMS ; starts to read PARM01
(PID.TID 0000.0001)  INI_PARMS ; read PARM01 : OK
(PID.TID 0000.0001)  INI_PARMS ; starts to read PARM02
(PID.TID 0000.0001)  INI_PARMS ; read PARM02 : OK
(PID.TID 0000.0001)  INI_PARMS ; starts to read PARM03
(PID.TID 0000.0001)  INI_PARMS ; read PARM03 : OK
(PID.TID 0000.0001)  INI_PARMS ; starts to read PARM04
(PID.TID 0000.0001)  INI_PARMS ; read PARM04 : OK
(PID.TID 0000.0001)  INI_PARMS ; starts to read PARM05
(PID.TID 0000.0001)  INI_PARMS ; read PARM05 : OK
(PID.TID 0000.0001)  INI_PARMS: finished reading file "data"
(PID.TID 0000.0001)  PACKAGES_BOOT: opening data.pkg
(PID.TID 0000.0001)  OPEN_COPY_DATA_FILE: opening file data.pkg
(PID.TID 0000.0001) // =======================================================
(PID.TID 0000.0001) // Parameter file "data.pkg"
(PID.TID 0000.0001) // =======================================================
(PID.TID 0000.0001) ># Packages
(PID.TID 0000.0001) > &PACKAGES
(PID.TID 0000.0001) > useDiagnostics     = .TRUE.,
(PID.TID 0000.0001) > &
(PID.TID 0000.0001) 
(PID.TID 0000.0001)  PACKAGES_BOOT: finished reading data.pkg
(PID.TID 0000.0001)  PACKAGES_BOOT: On/Off package Summary
 --------  pkgs with a standard "usePKG" On/Off switch in "data.pkg":  --------
 pkg/diagnostics          compiled   and   used ( useDiagnostics           = T )
 -------- pkgs without standard "usePKG" On/Off switch in "data.pkg":  --------
 pkg/generic_advdiff      compiled   and   used ( useGAD                   = T )
 pkg/mom_common           compiled   and   used ( momStepping              = T )
 pkg/mom_vecinv           compiled   and   used ( +vectorInvariantMomentum = T )
 pkg/mom_fluxform         compiled but not used ( & not vectorInvariantMom = F )
 pkg/monitor              compiled   and   used ( monitorFreq > 0.         = T )
 pkg/debug                compiled but not used ( debugMode                = F )
 pkg/exch2                compiled   and   used
 pkg/rw                   compiled   and   used
 pkg/mdsio                compiled   and   used
(PID.TID 0000.0001)  PACKAGES_BOOT: End of package Summary
(PID.TID 0000.0001) 
(PID.TID 0000.0001)  DIAGNOSTICS_READPARMS: opening data.diagnostics
(PID.TID 0000.0001)  OPEN_COPY_DATA_FILE: opening file data.diagnostics
(PID.TID 0000.0001) // =======================================================
(PID.TID 0000.0001) // Parameter file "data.diagnostics"
(PID.TID 0000.0001) // =======================================================
(PID.TID 0000.0001) ># Diagnostic Package Choices
(PID.TID 0000.0001) >#--------------------
(PID.TID 0000.0001) >#  dumpAtLast (logical): always write output at the end of simulation (default=F)
(PID.TID 0000.0001) >#  diag_mnc   (logical): write to NetCDF files (default=useMNC)
(PID.TID 0000.0001) >#--for each output-stream:
(PID.TID 0000.0001) >#  fileName(n) : prefix of the output file name (max 80c long) for outp.stream n
(PID.TID 0000.0001) >#  frequency(n):< 0 : write snap-shot output every |frequency| seconds
(PID.TID 0000.0001) >#               > 0 : write time-average output every frequency seconds
(PID.TID 0000.0001) >#  timePhase(n)     : write at time = timePhase + multiple of |frequency|
(PID.TID 0000.0001) >#    averagingFreq  : frequency (in s) for periodic averaging interval
(PID.TID 0000.0001) >#    averagingPhase : phase     (in s) for periodic averaging interval
(PID.TID 0000.0001) >#    repeatCycle    : number of averaging intervals in 1 cycle
(PID.TID 0000.0001) >#  levels(:,n) : list of levels to write to file (Notes: declared as REAL)
(PID.TID 0000.0001) >#                when this entry is missing, select all common levels of this list
(PID.TID 0000.0001) >#  fields(:,n) : list of selected diagnostics fields (8.c) in outp.stream n
(PID.TID 0000.0001) >#                (see "available_diagnostics.log" file for the full list of diags)
(PID.TID 0000.0001) >#  missing_value(n) : missing value for real-type fields in output file "n"
(PID.TID 0000.0001) >#  fileFlags(n)     : specific code (8c string) for output file "n"
(PID.TID 0000.0001) >#--------------------
(PID.TID 0000.0001) ># oceTAUX  zonal surface wind stress, >0 increases uVel (N/m^2)
(PID.TID 0000.0001) ># oceTAUY  meridional surf. wind stress, >0 increases vVel (N/m^2)
(PID.TID 0000.0001) ># oceFWflx net surface Fresh-Water flux into ocean, >0 decreases salinity (kg/m^2/s)
(PID.TID 0000.0001) ># oceSflux net surface Salt flux into the ocean, >0 increases salinity (g/m^2/s)
(PID.TID 0000.0001) ># oceQnet  net surface heat flux into the ocean, >0 increases theta (W/m^2)
(PID.TID 0000.0001) ># oceQsw   net Short-Wave radiation (+=down), >0 increases theta (W/m^2)
(PID.TID 0000.0001) ># SSS      Sea Surface Salinity (g/kg)
(PID.TID 0000.0001) ># SST      Sea Surface Temperature (degC)
(PID.TID 0000.0001) ># UVEL1    Zonal Surface Velocity (m/s)
(PID.TID 0000.0001) ># VVEL1    Meridional Surface Velocity (m/s)
(PID.TID 0000.0001) >
(PID.TID 0000.0001) > &DIAGNOSTICS_LIST
(PID.TID 0000.0001) >   frequency(1)  = -3600.,
(PID.TID 0000.0001) >    fields(1,1)  = 'THETA   ',
(PID.TID 0000.0001) >    levels(1,1)  = 1.,
(PID.TID 0000.0001) >    filename(1)  = 'SST',
(PID.TID 0000.0001) > &
(PID.TID 0000.0001) >
(PID.TID 0000.0001) > &DIAG_STATIS_PARMS
(PID.TID 0000.0001) > &
(PID.TID 0000.0001) 
(PID.TID 0000.0001) S/R DIAGNOSTICS_READPARMS, read namelist "diagnostics_list": start
(PID.TID 0000.0001) S/R DIAGNOSTICS_READPARMS, read namelist "diagnostics_list": OK
(PID.TID 0000.0001) S/R DIAGNOSTICS_READPARMS, read namelist "DIAG_STATIS_PARMS": start
(PID.TID 0000.0001) S/R DIAGNOSTICS_READPARMS, read namelist "DIAG_STATIS_PARMS": OK
(PID.TID 0000.0001)  DIAGNOSTICS_READPARMS: global parameter summary:
(PID.TID 0000.0001)  dumpAtLast = /* always write time-ave diags at the end */
(PID.TID 0000.0001)                   F
(PID.TID 0000.0001)     ;
(PID.TID 0000.0001)  diag_mnc =   /* write NetCDF output files */
(PID.TID 0000.0001)                   F
(PID.TID 0000.0001)     ;
(PID.TID 0000.0001)  useMissingValue = /* put MissingValue where mask = 0 */
(PID.TID 0000.0001)                   F
(PID.TID 0000.0001)     ;
(PID.TID 0000.0001)  diagCG_maxIters = /* max number of iters in diag_cg2d */
(PID.TID 0000.0001)                     300
(PID.TID 0000.0001)     ;
(PID.TID 0000.0001)  diagCG_resTarget = /* residual target for diag_cg2d */
(PID.TID 0000.0001)                 1.000000000000000E-07
(PID.TID 0000.0001)     ;
(PID.TID 0000.0001)  diagCG_pcOffDFac = /* preconditioner off-diagonal factor */
(PID.TID 0000.0001)                 9.611687812379854E-01
(PID.TID 0000.0001)     ;
(PID.TID 0000.0001) -----------------------------------------------------
(PID.TID 0000.0001)  DIAGNOSTICS_READPARMS: active diagnostics summary:
(PID.TID 0000.0001) -----------------------------------------------------
(PID.TID 0000.0001) Creating Output Stream: SST
(PID.TID 0000.0001) Output Frequency:      -3600.000000 ; Phase:        1800.000000
(PID.TID 0000.0001)  Averaging Freq.:          0.000000 , Phase:           0.000000 , Cycle:   1
(PID.TID 0000.0001)  missing value: -9.990000000000E+02
(PID.TID 0000.0001)  Levels:       1.
(PID.TID 0000.0001)  Fields:    THETA
(PID.TID 0000.0001) -----------------------------------------------------
(PID.TID 0000.0001)  DIAGNOSTICS_READPARMS: statistics diags. summary:
(PID.TID 0000.0001) -----------------------------------------------------
(PID.TID 0000.0001) 
(PID.TID 0000.0001) SET_PARMS: done
(PID.TID 0000.0001) Enter INI_VERTICAL_GRID: setInterFDr=    T ; setCenterDr=    F
(PID.TID 0000.0001) tile:   4 ; Read from file tile001.mitgrid
(PID.TID 0000.0001)   => xC yC dxF dyF rA xG yG dxV dyU rAz dxC dyC rAw rAs dxG dyG
(PID.TID 0000.0001) %MON XC_max                       =   1.7997758946678E+02
(PID.TID 0000.0001) %MON XC_min                       =  -1.7998895680928E+02
(PID.TID 0000.0001) %MON XC_mean                      =  -6.8997670631350E+00
(PID.TID 0000.0001) %MON XC_sd                        =   1.0548127462941E+02
(PID.TID 0000.0001) %MON XG_max                       =   1.8000000000000E+02
(PID.TID 0000.0001) %MON XG_min                       =  -1.7999919444240E+02
(PID.TID 0000.0001) %MON XG_mean                      =  -6.3521159278861E+00
(PID.TID 0000.0001) %MON XG_sd                        =   1.0549598176576E+02
(PID.TID 0000.0001) %MON DXC_max                      =   1.1117680031365E+05
(PID.TID 0000.0001) %MON DXC_min                      =   1.3362789164732E+04
(PID.TID 0000.0001) %MON DXC_mean                     =   7.1345115143606E+04
(PID.TID 0000.0001) %MON DXC_sd                       =   2.6107013089865E+04
(PID.TID 0000.0001) %MON DXF_max                      =   1.1117680031365E+05
(PID.TID 0000.0001) %MON DXF_min                      =   1.3491575949394E+04
(PID.TID 0000.0001) %MON DXF_mean                     =   7.1334806791260E+04
(PID.TID 0000.0001) %MON DXF_sd                       =   2.6121349328995E+04
(PID.TID 0000.0001) %MON DXG_max                      =   1.1117747335204E+05
(PID.TID 0000.0001) %MON DXG_min                      =   1.0930409249570E+04
(PID.TID 0000.0001) %MON DXG_mean                     =   7.1313583950284E+04
(PID.TID 0000.0001) %MON DXG_sd                       =   2.6131714747840E+04
(PID.TID 0000.0001) %MON DXV_max                      =   1.1117747335204E+05
(PID.TID 0000.0001) %MON DXV_min                      =   9.4742518926426E+03
(PID.TID 0000.0001) %MON DXV_mean                     =   7.1323777998314E+04
(PID.TID 0000.0001) %MON DXV_sd                       =   2.6117603792432E+04
(PID.TID 0000.0001) %MON YC_max                       =   8.9739397429324E+01
(PID.TID 0000.0001) %MON YC_min                       =  -8.1637173529390E+01
(PID.TID 0000.0001) %MON YC_mean                      =  -5.9338515025079E-01
(PID.TID 0000.0001) %MON YC_sd                        =   5.1058908630085E+01
(PID.TID 0000.0001) %MON YG_max                       =   9.0000000000000E+01
(PID.TID 0000.0001) %MON YG_min                       =  -8.1805478609906E+01
(PID.TID 0000.0001) %MON YG_mean                      =  -5.7357831765458E-01
(PID.TID 0000.0001) %MON YG_sd                        =   5.1060174609345E+01
(PID.TID 0000.0001) %MON DYC_max                      =   1.1117680031365E+05
(PID.TID 0000.0001) %MON DYC_min                      =   1.3362789164732E+04
(PID.TID 0000.0001) %MON DYC_mean                     =   7.0982792089666E+04
(PID.TID 0000.0001) %MON DYC_sd                       =   2.6607387075348E+04
(PID.TID 0000.0001) %MON DYF_max                      =   1.1117680031365E+05
(PID.TID 0000.0001) %MON DYF_min                      =   1.3491575949394E+04
(PID.TID 0000.0001) %MON DYF_mean                     =   7.1000127494934E+04
(PID.TID 0000.0001) %MON DYF_sd                       =   2.6603606017547E+04
(PID.TID 0000.0001) %MON DYG_max                      =   1.1117747335204E+05
(PID.TID 0000.0001) %MON DYG_min                      =   1.0930409249570E+04
(PID.TID 0000.0001) %MON DYG_mean                     =   7.1022116512585E+04
(PID.TID 0000.0001) %MON DYG_sd                       =   2.6571715830406E+04
(PID.TID 0000.0001) %MON DYU_max                      =   1.1117747335204E+05
(PID.TID 0000.0001) %MON DYU_min                      =   9.4742518926426E+03
(PID.TID 0000.0001) %MON DYU_mean                     =   7.1004694583927E+04
(PID.TID 0000.0001) %MON DYU_sd                       =   2.6575655787476E+04
(PID.TID 0000.0001) %MON RA_max                       =   1.1896090857160E+10
(PID.TID 0000.0001) %MON RA_min                       =   2.1263387742345E+08
(PID.TID 0000.0001) %MON RA_mean                      =   5.6344293572480E+09
(PID.TID 0000.0001) %MON RA_sd                        =   3.5929461176606E+09
(PID.TID 0000.0001) %MON RAW_max                      =   1.1896090856781E+10
(PID.TID 0000.0001) %MON RAW_min                      =   1.7369571508711E+08
(PID.TID 0000.0001) %MON RAW_mean                     =   5.6355850434318E+09
(PID.TID 0000.0001) %MON RAW_sd                       =   3.5915487677190E+09
(PID.TID 0000.0001) %MON RAS_max                      =   1.1896090856781E+10
(PID.TID 0000.0001) %MON RAS_min                      =   1.7369571508711E+08
(PID.TID 0000.0001) %MON RAS_mean                     =   5.6320332286162E+09
(PID.TID 0000.0001) %MON RAS_sd                       =   3.5937184228135E+09
(PID.TID 0000.0001) %MON RAZ_max                      =   1.1891903479271E+10
(PID.TID 0000.0001) %MON RAZ_min                      =   1.0413402423292E+08
(PID.TID 0000.0001) %MON RAZ_mean                     =   5.6331824674695E+09
(PID.TID 0000.0001) %MON RAZ_sd                       =   3.5923307220197E+09
(PID.TID 0000.0001) %MON AngleCS_max                  =   1.0000000000000E+00
(PID.TID 0000.0001) %MON AngleCS_min                  =  -9.9996641938864E-01
(PID.TID 0000.0001) %MON AngleCS_mean                 =   4.0572930529500E-01
(PID.TID 0000.0001) %MON AngleCS_sd                   =   5.3874397836718E-01
(PID.TID 0000.0001) %MON AngleSN_max                  =   9.9996641938864E-01
(PID.TID 0000.0001) %MON AngleSN_min                  =  -1.0000000000000E+00
(PID.TID 0000.0001) %MON AngleSN_mean                 =  -4.9986154624599E-01
(PID.TID 0000.0001) %MON AngleSN_sd                   =   5.4339404779819E-01
(PID.TID 0000.0001) GAD_INIT_FIXED: GAD_OlMinSize=  2  0  2
(PID.TID 0000.0001) 
(PID.TID 0000.0001) // ===================================
(PID.TID 0000.0001) // GAD parameters :
(PID.TID 0000.0001) // ===================================
(PID.TID 0000.0001) tempAdvScheme =   /* Temp. Horiz.Advection scheme selector */
(PID.TID 0000.0001)                      33
(PID.TID 0000.0001)     ;
(PID.TID 0000.0001) tempVertAdvScheme =   /* Temp. Vert. Advection scheme selector */
(PID.TID 0000.0001)                      33
(PID.TID 0000.0001)     ;
(PID.TID 0000.0001) tempMultiDimAdvec =   /* use Muti-Dim Advec method for Temp */
(PID.TID 0000.0001)                   T
(PID.TID 0000.0001)     ;
(PID.TID 0000.0001) tempSOM_Advection = /* use 2nd Order Moment Advection for Temp */
(PID.TID 0000.0001)                   F
(PID.TID 0000.0001)     ;
(PID.TID 0000.0001) AdamsBashforthGt = /* apply Adams-Bashforth extrapolation on Gt */
(PID.TID 0000.0001)                   F
(PID.TID 0000.0001)     ;
(PID.TID 0000.0001) AdamsBashforth_T = /* apply Adams-Bashforth extrapolation on Temp */
(PID.TID 0000.0001)                   F
(PID.TID 0000.0001)     ;
(PID.TID 0000.0001) saltAdvScheme =   /* Salt. Horiz.advection scheme selector */
(PID.TID 0000.0001)                      33
(PID.TID 0000.0001)     ;
(PID.TID 0000.0001) saltVertAdvScheme =   /* Salt. Vert. Advection scheme selector */
(PID.TID 0000.0001)                      33
(PID.TID 0000.0001)     ;
(PID.TID 0000.0001) saltMultiDimAdvec =   /* use Muti-Dim Advec method for Salt */
(PID.TID 0000.0001)                   T
(PID.TID 0000.0001)     ;
(PID.TID 0000.0001) saltSOM_Advection = /* use 2nd Order Moment Advection for Salt */
(PID.TID 0000.0001)                   F
(PID.TID 0000.0001)     ;
(PID.TID 0000.0001) AdamsBashforthGs = /* apply Adams-Bashforth extrapolation on Gs */
(PID.TID 0000.0001)                   F
(PID.TID 0000.0001)     ;
(PID.TID 0000.0001) AdamsBashforth_S = /* apply Adams-Bashforth extrapolation on Salt */
(PID.TID 0000.0001)                   F
(PID.TID 0000.0001)     ;
(PID.TID 0000.0001) // ===================================
(PID.TID 0000.0001) ------------------------------------------------------------
(PID.TID 0000.0001) DIAGNOSTICS_SET_LEVELS: done
(PID.TID 0000.0001)  Total Nb of available Diagnostics: ndiagt=   186
(PID.TID 0000.0001)  write list of available Diagnostics to file: available_diagnostics.log
(PID.TID 0000.0001) SETDIAG: Allocate 50 x  1 Levels for Diagnostic #    26 THETA
(PID.TID 0000.0001)   space allocated for all diagnostics:      50 levels
(PID.TID 0000.0001) DIAGNOSTICS_SET_POINTERS: done
(PID.TID 0000.0001) ------------------------------------------------------------
(PID.TID 0000.0001) DIAGSTATS_SET_REGIONS: define no region
(PID.TID 0000.0001) ------------------------------------------------------------
(PID.TID 0000.0001)   space allocated for all stats-diags:       0 levels
(PID.TID 0000.0001) DIAGSTATS_SET_POINTERS: done
(PID.TID 0000.0001) ------------------------------------------------------------
(PID.TID 0000.0001) INI_GLOBAL_DOMAIN: Found   0 CS-corner Pts in the domain
(PID.TID 0000.0001) %MON fCori_max                    =   1.4584096177006E-04
(PID.TID 0000.0001) %MON fCori_min                    =  -1.4429171327635E-04
(PID.TID 0000.0001) %MON fCori_mean                   =  -1.9531894197173E-06
(PID.TID 0000.0001) %MON fCori_sd                     =   1.0434730642309E-04
(PID.TID 0000.0001) %MON fCoriG_max                   =   1.4584247033981E-04
(PID.TID 0000.0001) %MON fCoriG_min                   =  -1.4435339896041E-04
(PID.TID 0000.0001) %MON fCoriG_mean                  =  -1.9303770726087E-06
(PID.TID 0000.0001) %MON fCoriG_sd                    =   1.0435958182593E-04
(PID.TID 0000.0001) %MON fCoriCos_max                 =   1.4584158744890E-04
(PID.TID 0000.0001) %MON fCoriCos_min                 =   6.6334365221135E-07
(PID.TID 0000.0001) %MON fCoriCos_mean                =   9.3876998486639E-05
(PID.TID 0000.0001) %MON fCoriCos_sd                  =   3.9559575367967E-05
(PID.TID 0000.0001) INI_CG2D: CG2D normalisation factor =  7.1522409280111305E-05
(PID.TID 0000.0001) INI_CG2D: cg2dTolerance = 2.845112656120382E-05 (Area=3.5801386115E+14)
(PID.TID 0000.0001) 
(PID.TID 0000.0001) // =======================================================
(PID.TID 0000.0001) // Model configuration
(PID.TID 0000.0001) // =======================================================
(PID.TID 0000.0001) //
(PID.TID 0000.0001) // "Physical" paramters ( PARM01 in namelist )
(PID.TID 0000.0001) //
(PID.TID 0000.0001) buoyancyRelation = /* Type of relation to get Buoyancy */
(PID.TID 0000.0001)               'OCEANIC'
(PID.TID 0000.0001)     ;
(PID.TID 0000.0001) fluidIsAir   =  /* fluid major constituent is Air */
(PID.TID 0000.0001)                   F
(PID.TID 0000.0001)     ;
(PID.TID 0000.0001) fluidIsWater =  /* fluid major constituent is Water */
(PID.TID 0000.0001)                   T
(PID.TID 0000.0001)     ;
(PID.TID 0000.0001) usingPCoords =  /* use p (or p*) vertical coordinate */
(PID.TID 0000.0001)                   F
(PID.TID 0000.0001)     ;
(PID.TID 0000.0001) usingZCoords =  /* use z (or z*) vertical coordinate */
(PID.TID 0000.0001)                   T
(PID.TID 0000.0001)     ;
(PID.TID 0000.0001) tRef =   /* Reference temperature profile ( oC or K ) */
(PID.TID 0000.0001)     3 @  2.300000000000000E+01,             /* K =  1:  3 */
(PID.TID 0000.0001)     3 @  2.200000000000000E+01,             /* K =  4:  6 */
(PID.TID 0000.0001)                 2.100000000000000E+01,      /* K =  7 */
(PID.TID 0000.0001)     2 @  2.000000000000000E+01,             /* K =  8:  9 */
(PID.TID 0000.0001)                 1.900000000000000E+01,      /* K = 10 */
(PID.TID 0000.0001)     2 @  1.800000000000000E+01,             /* K = 11: 12 */
(PID.TID 0000.0001)                 1.700000000000000E+01,      /* K = 13 */
(PID.TID 0000.0001)     2 @  1.600000000000000E+01,             /* K = 14: 15 */
(PID.TID 0000.0001)                 1.500000000000000E+01,      /* K = 16 */
(PID.TID 0000.0001)                 1.400000000000000E+01,      /* K = 17 */
(PID.TID 0000.0001)                 1.300000000000000E+01,      /* K = 18 */
(PID.TID 0000.0001)                 1.200000000000000E+01,      /* K = 19 */
(PID.TID 0000.0001)                 1.100000000000000E+01,      /* K = 20 */
(PID.TID 0000.0001)     2 @  9.000000000000000E+00,             /* K = 21: 22 */
(PID.TID 0000.0001)                 8.000000000000000E+00,      /* K = 23 */
(PID.TID 0000.0001)                 7.000000000000000E+00,      /* K = 24 */
(PID.TID 0000.0001)     2 @  6.000000000000000E+00,             /* K = 25: 26 */
(PID.TID 0000.0001)     2 @  5.000000000000000E+00,             /* K = 27: 28 */
(PID.TID 0000.0001)     3 @  4.000000000000000E+00,             /* K = 29: 31 */
(PID.TID 0000.0001)     3 @  3.000000000000000E+00,             /* K = 32: 34 */
(PID.TID 0000.0001)     4 @  2.000000000000000E+00,             /* K = 35: 38 */
(PID.TID 0000.0001)    12 @  1.000000000000000E+00              /* K = 39: 50 */
(PID.TID 0000.0001)     ;
(PID.TID 0000.0001) sRef =   /* Reference salinity profile ( psu ) */
(PID.TID 0000.0001)    50 @  3.450000000000000E+01              /* K =  1: 50 */
(PID.TID 0000.0001)     ;
(PID.TID 0000.0001) useStrainTensionVisc= /* Use StrainTension Form of Viscous Operator */
(PID.TID 0000.0001)                   F
(PID.TID 0000.0001)     ;
(PID.TID 0000.0001) useVariableVisc = /* Use variable horizontal viscosity */
(PID.TID 0000.0001)                   T
(PID.TID 0000.0001)     ;
(PID.TID 0000.0001) useHarmonicVisc = /* Use harmonic horizontal viscosity */
(PID.TID 0000.0001)                   T
(PID.TID 0000.0001)     ;
(PID.TID 0000.0001) useBiharmonicVisc= /* Use biharmonic horiz.  viscosity */
(PID.TID 0000.0001)                   F
(PID.TID 0000.0001)     ;
(PID.TID 0000.0001) useSmag3D = /* Use isotropic 3-D Smagorinsky viscosity */
(PID.TID 0000.0001)                   F
(PID.TID 0000.0001)     ;
(PID.TID 0000.0001) viscAh  =   /* Lateral harmonic viscosity ( m^2/s ) */
(PID.TID 0000.0001)                 1.000000000000000E+00
(PID.TID 0000.0001)     ;
(PID.TID 0000.0001) viscAhMax = /* Maximum lateral harmonic viscosity ( m^2/s ) */
(PID.TID 0000.0001)                 1.000000000000000E+21
(PID.TID 0000.0001)     ;
(PID.TID 0000.0001) viscAhGrid = /* Grid dependent lateral harmonic viscosity ( non-dim. ) */
(PID.TID 0000.0001)                 2.000000000000000E-02
(PID.TID 0000.0001)     ;
(PID.TID 0000.0001) useFullLeith = /* Use Full Form of Leith Viscosity on/off flag*/
(PID.TID 0000.0001)                   F
(PID.TID 0000.0001)     ;
(PID.TID 0000.0001) useAreaViscLength = /* Use area for visc length instead of geom. mean*/
(PID.TID 0000.0001)                   F
(PID.TID 0000.0001)     ;
(PID.TID 0000.0001) viscC2leith = /* Leith harmonic visc. factor (on grad(vort),non-dim.) */
(PID.TID 0000.0001)                 0.000000000000000E+00
(PID.TID 0000.0001)     ;
(PID.TID 0000.0001) viscC2leithD = /* Leith harmonic viscosity factor (on grad(div),non-dim.)*/
(PID.TID 0000.0001)                 0.000000000000000E+00
(PID.TID 0000.0001)     ;
(PID.TID 0000.0001) viscC2smag = /* Smagorinsky harmonic viscosity factor (non-dim.) */
(PID.TID 0000.0001)                 0.000000000000000E+00
(PID.TID 0000.0001)     ;
(PID.TID 0000.0001) viscA4  =   /* Lateral biharmonic viscosity ( m^4/s ) */
(PID.TID 0000.0001)                 0.000000000000000E+00
(PID.TID 0000.0001)     ;
(PID.TID 0000.0001) viscA4Max = /* Maximum biharmonic viscosity ( m^2/s ) */
(PID.TID 0000.0001)                 1.000000000000000E+21
(PID.TID 0000.0001)     ;
(PID.TID 0000.0001) viscA4Grid = /* Grid dependent biharmonic viscosity ( non-dim. ) */
(PID.TID 0000.0001)                 0.000000000000000E+00
(PID.TID 0000.0001)     ;
(PID.TID 0000.0001) viscC4leith = /* Leith biharm viscosity factor (on grad(vort), non-dim.)*/
(PID.TID 0000.0001)                 0.000000000000000E+00
(PID.TID 0000.0001)     ;
(PID.TID 0000.0001) viscC4leithD = /* Leith biharm viscosity factor (on grad(div), non-dim.) */
(PID.TID 0000.0001)                 0.000000000000000E+00
(PID.TID 0000.0001)     ;
(PID.TID 0000.0001) viscC4Smag = /* Smagorinsky biharm viscosity factor (non-dim) */
(PID.TID 0000.0001)                 0.000000000000000E+00
(PID.TID 0000.0001)     ;
(PID.TID 0000.0001) no_slip_sides =  /* Viscous BCs: No-slip sides */
(PID.TID 0000.0001)                   T
(PID.TID 0000.0001)     ;
(PID.TID 0000.0001) sideDragFactor = /* side-drag scaling factor (non-dim) */
(PID.TID 0000.0001)                 2.000000000000000E+00
(PID.TID 0000.0001)     ;
(PID.TID 0000.0001) viscArNr = /* vertical profile of vertical viscosity ( m^2/s )*/
(PID.TID 0000.0001)    50 @  1.000000000000000E-03              /* K =  1: 50 */
(PID.TID 0000.0001)     ;
(PID.TID 0000.0001) no_slip_bottom =  /* Viscous BCs: No-slip bottom */
(PID.TID 0000.0001)                   T
(PID.TID 0000.0001)     ;
(PID.TID 0000.0001) bottomVisc_pCell = /* Partial-cell in bottom Visc. BC */
(PID.TID 0000.0001)                   F
(PID.TID 0000.0001)     ;
(PID.TID 0000.0001) bottomDragLinear = /* linear bottom-drag coefficient ( m/s ) */
(PID.TID 0000.0001)                 0.000000000000000E+00
(PID.TID 0000.0001)     ;
(PID.TID 0000.0001) bottomDragQuadratic = /* quadratic bottom-drag coefficient (-) */
(PID.TID 0000.0001)                 1.000000000000000E-03
(PID.TID 0000.0001)     ;
(PID.TID 0000.0001) selectBotDragQuadr = /* select quadratic bottom drag options */
(PID.TID 0000.0001)                       0
(PID.TID 0000.0001)     ;
(PID.TID 0000.0001) diffKhT =   /* Laplacian diffusion of heat laterally ( m^2/s ) */
(PID.TID 0000.0001)                 1.000000000000000E+01
(PID.TID 0000.0001)     ;
(PID.TID 0000.0001) diffK4T =   /* Biharmonic diffusion of heat laterally ( m^4/s ) */
(PID.TID 0000.0001)                 0.000000000000000E+00
(PID.TID 0000.0001)     ;
(PID.TID 0000.0001) diffKhS =   /* Laplacian diffusion of salt laterally ( m^2/s ) */
(PID.TID 0000.0001)                 1.000000000000000E+01
(PID.TID 0000.0001)     ;
(PID.TID 0000.0001) diffK4S =   /* Biharmonic diffusion of salt laterally ( m^4/s ) */
(PID.TID 0000.0001)                 0.000000000000000E+00
(PID.TID 0000.0001)     ;
(PID.TID 0000.0001) diffKrNrT = /* vertical profile of vertical diffusion of Temp ( m^2/s )*/
(PID.TID 0000.0001)    50 @  1.000000000000000E-05              /* K =  1: 50 */
(PID.TID 0000.0001)     ;
(PID.TID 0000.0001) diffKrNrS = /* vertical profile of vertical diffusion of Salt ( m^2/s )*/
(PID.TID 0000.0001)    50 @  1.000000000000000E-05              /* K =  1: 50 */
(PID.TID 0000.0001)     ;
(PID.TID 0000.0001) diffKrBL79surf = /* Surface diffusion for Bryan and Lewis 79 ( m^2/s ) */
(PID.TID 0000.0001)                 0.000000000000000E+00
(PID.TID 0000.0001)     ;
(PID.TID 0000.0001) diffKrBL79deep = /* Deep diffusion for Bryan and Lewis 1979 ( m^2/s ) */
(PID.TID 0000.0001)                 0.000000000000000E+00
(PID.TID 0000.0001)     ;
(PID.TID 0000.0001) diffKrBL79scl = /* Depth scale for Bryan and Lewis 1979 ( m ) */
(PID.TID 0000.0001)                 2.000000000000000E+02
(PID.TID 0000.0001)     ;
(PID.TID 0000.0001) diffKrBL79Ho = /* Turning depth for Bryan and Lewis 1979 ( m ) */
(PID.TID 0000.0001)                -2.000000000000000E+03
(PID.TID 0000.0001)     ;
(PID.TID 0000.0001) ivdc_kappa = /* Implicit Vertical Diffusivity for Convection ( m^2/s) */
(PID.TID 0000.0001)                 1.000000000000000E+01
(PID.TID 0000.0001)     ;
(PID.TID 0000.0001) hMixCriteria=  /* Criteria for mixed-layer diagnostic */
(PID.TID 0000.0001)                -8.000000000000000E-01
(PID.TID 0000.0001)     ;
(PID.TID 0000.0001) dRhoSmall =  /* Parameter for mixed-layer diagnostic */
(PID.TID 0000.0001)                 1.000000000000000E-06
(PID.TID 0000.0001)     ;
(PID.TID 0000.0001) hMixSmooth=  /* Smoothing parameter for mixed-layer diagnostic */
(PID.TID 0000.0001)                 0.000000000000000E+00
(PID.TID 0000.0001)     ;
(PID.TID 0000.0001) eosType =  /* Type of Equation of State */
(PID.TID 0000.0001)               'JMD95Z'
(PID.TID 0000.0001)     ;
(PID.TID 0000.0001) selectP_inEOS_Zc = /* select pressure to use in EOS (0,1,2,3) */
(PID.TID 0000.0001)                       0
(PID.TID 0000.0001)     0= -g*rhoConst*z ; 1= pRef (from tRef,sRef); 2= Hyd P ; 3= Hyd+NH P
(PID.TID 0000.0001)     ;
(PID.TID 0000.0001) HeatCapacity_Cp =  /* Specific heat capacity ( J/kg/K ) */
(PID.TID 0000.0001)                 3.994000000000000E+03
(PID.TID 0000.0001)     ;
(PID.TID 0000.0001) celsius2K = /* 0 degree Celsius converted to Kelvin ( K ) */
(PID.TID 0000.0001)                 2.731500000000000E+02
(PID.TID 0000.0001)     ;
(PID.TID 0000.0001) rhoConst  = /* Reference density (Boussinesq)  ( kg/m^3 ) */
(PID.TID 0000.0001)                 1.029000000000000E+03
(PID.TID 0000.0001)     ;
(PID.TID 0000.0001) rhoFacC = /* normalized Reference density @ cell-Center (-) */
(PID.TID 0000.0001)    50 @  1.000000000000000E+00              /* K =  1: 50 */
(PID.TID 0000.0001)     ;
(PID.TID 0000.0001) rhoFacF = /* normalized Reference density @ W-Interface (-) */
(PID.TID 0000.0001)    51 @  1.000000000000000E+00              /* K =  1: 51 */
(PID.TID 0000.0001)     ;
(PID.TID 0000.0001) rhoConstFresh = /* Fresh-water reference density ( kg/m^3 ) */
(PID.TID 0000.0001)                 1.000000000000000E+03
(PID.TID 0000.0001)     ;
(PID.TID 0000.0001) gravity =   /* Gravitational acceleration ( m/s^2 ) */
(PID.TID 0000.0001)                 9.810000000000000E+00
(PID.TID 0000.0001)     ;
(PID.TID 0000.0001) gBaro =   /* Barotropic gravity ( m/s^2 ) */
(PID.TID 0000.0001)                 9.810000000000000E+00
(PID.TID 0000.0001)     ;
(PID.TID 0000.0001) gravFacC = /* gravity factor (vs surf.) @ cell-Center (-) */
(PID.TID 0000.0001)    50 @  1.000000000000000E+00              /* K =  1: 50 */
(PID.TID 0000.0001)     ;
(PID.TID 0000.0001) gravFacF = /* gravity factor (vs surf.) @ W-Interface (-) */
(PID.TID 0000.0001)    51 @  1.000000000000000E+00              /* K =  1: 51 */
(PID.TID 0000.0001)     ;
(PID.TID 0000.0001) rotationPeriod =   /* Rotation Period ( s ) */
(PID.TID 0000.0001)                 8.616400000000000E+04
(PID.TID 0000.0001)     ;
(PID.TID 0000.0001) omega =   /* Angular velocity ( rad/s ) */
(PID.TID 0000.0001)                 7.292123516990375E-05
(PID.TID 0000.0001)     ;
(PID.TID 0000.0001) f0 =   /* Reference coriolis parameter ( 1/s ) */
(PID.TID 0000.0001)                 1.000000000000000E-04
(PID.TID 0000.0001)     ;
(PID.TID 0000.0001) beta =   /* Beta ( 1/(m.s) ) */
(PID.TID 0000.0001)                 9.999999999999999E-12
(PID.TID 0000.0001)     ;
(PID.TID 0000.0001) fPrime =   /* Second coriolis parameter ( 1/s ) */
(PID.TID 0000.0001)                 0.000000000000000E+00
(PID.TID 0000.0001)     ;
(PID.TID 0000.0001) rigidLid =   /* Rigid lid on/off flag */
(PID.TID 0000.0001)                   F
(PID.TID 0000.0001)     ;
(PID.TID 0000.0001) implicitFreeSurface =   /* Implicit free surface on/off flag */
(PID.TID 0000.0001)                   T
(PID.TID 0000.0001)     ;
(PID.TID 0000.0001) freeSurfFac =   /* Implicit free surface factor */
(PID.TID 0000.0001)                 1.000000000000000E+00
(PID.TID 0000.0001)     ;
(PID.TID 0000.0001) implicSurfPress =  /* Surface Pressure implicit factor (0-1)*/
(PID.TID 0000.0001)                 1.000000000000000E+00
(PID.TID 0000.0001)     ;
(PID.TID 0000.0001) implicDiv2DFlow =  /* Barot. Flow Div. implicit factor (0-1)*/
(PID.TID 0000.0001)                 1.000000000000000E+00
(PID.TID 0000.0001)     ;
(PID.TID 0000.0001) uniformLin_PhiSurf = /* use uniform Bo_surf on/off flag*/
(PID.TID 0000.0001)                   T
(PID.TID 0000.0001)     ;
(PID.TID 0000.0001) uniformFreeSurfLev = /* free-surface level-index is uniform */
(PID.TID 0000.0001)                   T
(PID.TID 0000.0001)     ;
(PID.TID 0000.0001) hFacMin =   /* minimum partial cell factor (hFac) */
(PID.TID 0000.0001)                 2.000000000000000E-01
(PID.TID 0000.0001)     ;
(PID.TID 0000.0001) hFacMinDr = /* minimum partial cell thickness ( m) */
(PID.TID 0000.0001)                 5.000000000000000E+00
(PID.TID 0000.0001)     ;
(PID.TID 0000.0001) exactConserv =  /* Exact Volume Conservation on/off flag*/
(PID.TID 0000.0001)                   T
(PID.TID 0000.0001)     ;
(PID.TID 0000.0001) linFSConserveTr = /* Tracer correction for Lin Free Surface on/off flag*/
(PID.TID 0000.0001)                   F
(PID.TID 0000.0001)     ;
(PID.TID 0000.0001) nonlinFreeSurf = /* Non-linear Free Surf. options (-1,0,1,2,3)*/
(PID.TID 0000.0001)                       0
(PID.TID 0000.0001)      -1,0= Off ; 1,2,3= On, 2=+rescale gU,gV, 3=+update cg2d solv.
(PID.TID 0000.0001)     ;
(PID.TID 0000.0001) hFacInf =   /* lower threshold for hFac (nonlinFreeSurf only)*/
(PID.TID 0000.0001)                 2.000000000000000E-01
(PID.TID 0000.0001)     ;
(PID.TID 0000.0001) hFacSup =   /* upper threshold for hFac (nonlinFreeSurf only)*/
(PID.TID 0000.0001)                 2.000000000000000E+00
(PID.TID 0000.0001)     ;
(PID.TID 0000.0001) select_rStar = /* r* Vertical coord. options (=0 r coord.; >0 uses r*)*/
(PID.TID 0000.0001)                       0
(PID.TID 0000.0001)     ;
(PID.TID 0000.0001) useRealFreshWaterFlux = /* Real Fresh Water Flux on/off flag*/
(PID.TID 0000.0001)                   T
(PID.TID 0000.0001)     ;
(PID.TID 0000.0001) temp_EvPrRn = /* Temp. of Evap/Prec/R (UNSET=use local T)(oC)*/
(PID.TID 0000.0001)                 1.234567000000000E+05
(PID.TID 0000.0001)     ;
(PID.TID 0000.0001) salt_EvPrRn = /* Salin. of Evap/Prec/R (UNSET=use local S)(psu)*/
(PID.TID 0000.0001)                 0.000000000000000E+00
(PID.TID 0000.0001)     ;
(PID.TID 0000.0001) selectAddFluid = /* option for mass source/sink of fluid (=0: off) */
(PID.TID 0000.0001)                       0
(PID.TID 0000.0001)     ;
(PID.TID 0000.0001) temp_addMass = /* Temp. of addMass array (UNSET=use local T)(oC)*/
(PID.TID 0000.0001)                 1.234567000000000E+05
(PID.TID 0000.0001)     ;
(PID.TID 0000.0001) salt_addMass = /* Salin. of addMass array (UNSET=use local S)(psu)*/
(PID.TID 0000.0001)                 0.000000000000000E+00
(PID.TID 0000.0001)     ;
(PID.TID 0000.0001) convertFW2Salt = /* convert F.W. Flux to Salt Flux (-1=use local S)(psu)*/
(PID.TID 0000.0001)                -1.000000000000000E+00
(PID.TID 0000.0001)     ;
(PID.TID 0000.0001) use3Dsolver = /* use 3-D pressure solver on/off flag */
(PID.TID 0000.0001)                   F
(PID.TID 0000.0001)     ;
(PID.TID 0000.0001) nonHydrostatic =  /* Non-Hydrostatic on/off flag */
(PID.TID 0000.0001)                   F
(PID.TID 0000.0001)     ;
(PID.TID 0000.0001) nh_Am2 = /* Non-Hydrostatic terms scaling factor */
(PID.TID 0000.0001)                 1.000000000000000E+00
(PID.TID 0000.0001)     ;
(PID.TID 0000.0001) implicitNHPress = /* Non-Hyd Pressure implicit factor (0-1)*/
(PID.TID 0000.0001)                 1.000000000000000E+00
(PID.TID 0000.0001)     ;
(PID.TID 0000.0001) selectNHfreeSurf = /* Non-Hyd (free-)Surface option */
(PID.TID 0000.0001)                       0
(PID.TID 0000.0001)     ;
(PID.TID 0000.0001) quasiHydrostatic = /* Quasi-Hydrostatic on/off flag */
(PID.TID 0000.0001)                   F
(PID.TID 0000.0001)     ;
(PID.TID 0000.0001) calc_wVelocity = /* vertical velocity calculation on/off flag */
(PID.TID 0000.0001)                   T
(PID.TID 0000.0001)     ;
(PID.TID 0000.0001) momStepping =  /* Momentum equation on/off flag */
(PID.TID 0000.0001)                   T
(PID.TID 0000.0001)     ;
(PID.TID 0000.0001) vectorInvariantMomentum= /* Vector-Invariant Momentum on/off */
(PID.TID 0000.0001)                   T
(PID.TID 0000.0001)     ;
(PID.TID 0000.0001) momAdvection =  /* Momentum advection on/off flag */
(PID.TID 0000.0001)                   T
(PID.TID 0000.0001)     ;
(PID.TID 0000.0001) momViscosity =  /* Momentum viscosity on/off flag */
(PID.TID 0000.0001)                   T
(PID.TID 0000.0001)     ;
(PID.TID 0000.0001) momImplVertAdv= /* Momentum implicit vert. advection on/off*/
(PID.TID 0000.0001)                   F
(PID.TID 0000.0001)     ;
(PID.TID 0000.0001) implicitViscosity = /* Implicit viscosity on/off flag */
(PID.TID 0000.0001)                   T
(PID.TID 0000.0001)     ;
(PID.TID 0000.0001) selectImplicitDrag= /* Implicit bot Drag options (0,1,2)*/
(PID.TID 0000.0001)                       0
(PID.TID 0000.0001)     0= Expl. ; 1= Impl. on provis. Vel ; 2= Fully Impl (with surf.P)
(PID.TID 0000.0001)     ;
(PID.TID 0000.0001) metricTerms =  /* metric-Terms on/off flag */
(PID.TID 0000.0001)                   F
(PID.TID 0000.0001)     ;
(PID.TID 0000.0001) useNHMTerms = /* Non-Hydrostatic Metric-Terms on/off */
(PID.TID 0000.0001)                   F
(PID.TID 0000.0001)     ;
(PID.TID 0000.0001) selectCoriMap = /* Coriolis Map options (0,1,2,3)*/
(PID.TID 0000.0001)                       2
(PID.TID 0000.0001)     0= f-Plane ; 1= Beta-Plane ; 2= Spherical ; 3= read from file
(PID.TID 0000.0001)     ;
(PID.TID 0000.0001) use3dCoriolis = /* 3-D Coriolis on/off flag */
(PID.TID 0000.0001)                   F
(PID.TID 0000.0001)     ;
(PID.TID 0000.0001) useCoriolis =  /* Coriolis on/off flag */
(PID.TID 0000.0001)                   T
(PID.TID 0000.0001)     ;
(PID.TID 0000.0001) useCDscheme =  /* CD scheme on/off flag */
(PID.TID 0000.0001)                   F
(PID.TID 0000.0001)     ;
(PID.TID 0000.0001) useEnergyConservingCoriolis= /* Flx-Form Coriolis scheme flag */
(PID.TID 0000.0001)                   F
(PID.TID 0000.0001)     ;
(PID.TID 0000.0001) useJamartWetPoints= /* Coriolis WetPoints method flag */
(PID.TID 0000.0001)                   T
(PID.TID 0000.0001)     ;
(PID.TID 0000.0001) useJamartMomAdv= /* V.I Non-linear terms Jamart flag */
(PID.TID 0000.0001)                   F
(PID.TID 0000.0001)     ;
(PID.TID 0000.0001) useAbsVorticity= /* V.I Works with f+zeta in Coriolis */
(PID.TID 0000.0001)                   F
(PID.TID 0000.0001)     ;
(PID.TID 0000.0001) selectVortScheme= /* V.I Scheme selector for Vorticity-Term */
(PID.TID 0000.0001)                       1
(PID.TID 0000.0001)    = 0 : enstrophy (Shallow-Water Eq.) conserving scheme by Sadourny, JAS 75
(PID.TID 0000.0001)    = 1 : same as 0 with modified hFac
(PID.TID 0000.0001)    = 2 : energy conserving scheme (used by Sadourny in JAS 75 paper)
(PID.TID 0000.0001)    = 3 : energy (general) and enstrophy (2D, nonDiv.) conserving scheme
(PID.TID 0000.0001)          from Sadourny (Burridge & Haseler, ECMWF Rep.4, 1977)
(PID.TID 0000.0001)     ;
(PID.TID 0000.0001) upwindVorticity= /* V.I Upwind bias vorticity flag */
(PID.TID 0000.0001)                   F
(PID.TID 0000.0001)     ;
(PID.TID 0000.0001) highOrderVorticity= /* V.I High order vort. advect. flag */
(PID.TID 0000.0001)                   F
(PID.TID 0000.0001)     ;
(PID.TID 0000.0001) upwindShear= /* V.I Upwind vertical Shear advection flag */
(PID.TID 0000.0001)                   F
(PID.TID 0000.0001)     ;
(PID.TID 0000.0001) selectKEscheme= /* V.I Kinetic Energy scheme selector */
(PID.TID 0000.0001)                       0
(PID.TID 0000.0001)     ;
(PID.TID 0000.0001) momForcing =  /* Momentum forcing on/off flag */
(PID.TID 0000.0001)                   T
(PID.TID 0000.0001)     ;
(PID.TID 0000.0001) momPressureForcing =  /* Momentum pressure term on/off flag */
(PID.TID 0000.0001)                   T
(PID.TID 0000.0001)     ;
(PID.TID 0000.0001) implicitIntGravWave= /* Implicit Internal Gravity Wave flag */
(PID.TID 0000.0001)                   F
(PID.TID 0000.0001)     ;
(PID.TID 0000.0001) staggerTimeStep =    /* Stagger time stepping on/off flag */
(PID.TID 0000.0001)                   T
(PID.TID 0000.0001)     ;
(PID.TID 0000.0001) doResetHFactors = /* reset thickness factors @ each time-step */
(PID.TID 0000.0001)                   F
(PID.TID 0000.0001)     ;
(PID.TID 0000.0001) multiDimAdvection =  /* enable/disable Multi-Dim Advection */
(PID.TID 0000.0001)                   T
(PID.TID 0000.0001)     ;
(PID.TID 0000.0001) useMultiDimAdvec =   /* Multi-Dim Advection is/is-not used */
(PID.TID 0000.0001)                   T
(PID.TID 0000.0001)     ;
(PID.TID 0000.0001) implicitDiffusion = /* Implicit Diffusion on/off flag */
(PID.TID 0000.0001)                   T
(PID.TID 0000.0001)     ;
(PID.TID 0000.0001) tempStepping =  /* Temperature equation on/off flag */
(PID.TID 0000.0001)                   T
(PID.TID 0000.0001)     ;
(PID.TID 0000.0001) tempAdvection = /* Temperature advection on/off flag */
(PID.TID 0000.0001)                   T
(PID.TID 0000.0001)     ;
(PID.TID 0000.0001) tempImplVertAdv = /* Temp. implicit vert. advection on/off */
(PID.TID 0000.0001)                   F
(PID.TID 0000.0001)     ;
(PID.TID 0000.0001) tempForcing  =  /* Temperature forcing on/off flag */
(PID.TID 0000.0001)                   T
(PID.TID 0000.0001)     ;
(PID.TID 0000.0001) doThetaClimRelax = /* apply SST relaxation on/off flag */
(PID.TID 0000.0001)                   F
(PID.TID 0000.0001)     ;
(PID.TID 0000.0001) tempIsActiveTr = /* Temp. is a dynamically Active Tracer */
(PID.TID 0000.0001)                   T
(PID.TID 0000.0001)     ;
(PID.TID 0000.0001) saltStepping =  /* Salinity equation on/off flag */
(PID.TID 0000.0001)                   T
(PID.TID 0000.0001)     ;
(PID.TID 0000.0001) saltAdvection = /* Salinity advection on/off flag */
(PID.TID 0000.0001)                   T
(PID.TID 0000.0001)     ;
(PID.TID 0000.0001) saltImplVertAdv = /* Sali. implicit vert. advection on/off */
(PID.TID 0000.0001)                   F
(PID.TID 0000.0001)     ;
(PID.TID 0000.0001) saltForcing  =  /* Salinity forcing on/off flag */
(PID.TID 0000.0001)                   T
(PID.TID 0000.0001)     ;
(PID.TID 0000.0001) doSaltClimRelax = /* apply SSS relaxation on/off flag */
(PID.TID 0000.0001)                   F
(PID.TID 0000.0001)     ;
(PID.TID 0000.0001) saltIsActiveTr = /* Salt  is a dynamically Active Tracer */
(PID.TID 0000.0001)                   T
(PID.TID 0000.0001)     ;
(PID.TID 0000.0001)  readBinaryPrec = /* Precision used for reading binary files */
(PID.TID 0000.0001)                      32
(PID.TID 0000.0001)     ;
(PID.TID 0000.0001) writeBinaryPrec = /* Precision used for writing binary files */
(PID.TID 0000.0001)                      64
(PID.TID 0000.0001)     ;
(PID.TID 0000.0001)  rwSuffixType =   /* select format of mds file suffix */
(PID.TID 0000.0001)                       0
(PID.TID 0000.0001)    = 0 : myIter (I10.10) ;   = 1 : 100*myTime (100th sec) ;
(PID.TID 0000.0001)    = 2 : myTime (seconds);   = 3 : myTime/360 (10th of hr);
(PID.TID 0000.0001)    = 4 : myTime/3600 (hours)
(PID.TID 0000.0001)     ;
(PID.TID 0000.0001)  globalFiles = /* write "global" (=not per tile) files */
(PID.TID 0000.0001)                   F
(PID.TID 0000.0001)     ;
(PID.TID 0000.0001)  useSingleCpuIO = /* only master MPI process does I/O */
(PID.TID 0000.0001)                   T
(PID.TID 0000.0001)     ;
(PID.TID 0000.0001)  useSingleCpuInput = /* only master process reads input */
(PID.TID 0000.0001)                   T
(PID.TID 0000.0001)     ;
(PID.TID 0000.0001) /* debLev[*]  : level of debug & auxiliary message printing */
(PID.TID 0000.0001) debLevZero =  0 ; /* level of disabled aux. msg printing */
(PID.TID 0000.0001)    debLevA =  1 ; /* level of minimum  aux. msg printing */
(PID.TID 0000.0001)    debLevB =  2 ; /* level of low aux. print (report read-file opening)*/
(PID.TID 0000.0001)    debLevC =  3 ; /* level of moderate debug prt (most pkgs debug msg) */
(PID.TID 0000.0001)    debLevD =  4 ; /* level of enhanced debug prt (add DEBUG_STATS prt) */
(PID.TID 0000.0001)    debLevE =  5 ; /* level of extensive debug printing */
(PID.TID 0000.0001) debugLevel =  /* select debug printing level */
(PID.TID 0000.0001)                       1
(PID.TID 0000.0001)     ;
(PID.TID 0000.0001)  plotLevel =  /* select PLOT_FIELD printing level */
(PID.TID 0000.0001)                       1
(PID.TID 0000.0001)     ;
(PID.TID 0000.0001) //
(PID.TID 0000.0001) // Elliptic solver(s) paramters ( PARM02 in namelist )
(PID.TID 0000.0001) //
(PID.TID 0000.0001) cg2dMaxIters =   /* Upper limit on 2d con. grad iterations  */
(PID.TID 0000.0001)                     300
(PID.TID 0000.0001)     ;
(PID.TID 0000.0001) cg2dChkResFreq =   /* 2d con. grad convergence test frequency */
(PID.TID 0000.0001)                       1
(PID.TID 0000.0001)     ;
(PID.TID 0000.0001) cg2dUseMinResSol= /* use cg2d last-iter(=0) / min-resid.(=1) solution */
(PID.TID 0000.0001)                       0
(PID.TID 0000.0001)     ;
(PID.TID 0000.0001) cg2dTargetResidual =   /* 2d con. grad target residual  */
(PID.TID 0000.0001)                 1.000000000000000E-07
(PID.TID 0000.0001)     ;
(PID.TID 0000.0001) cg2dTargetResWunit =   /* CG2d target residual [W units] */
(PID.TID 0000.0001)                 1.000000000000000E-12
(PID.TID 0000.0001)     ;
(PID.TID 0000.0001) cg2dPreCondFreq =   /* Freq. for updating cg2d preconditioner */
(PID.TID 0000.0001)                       1
(PID.TID 0000.0001)     ;
(PID.TID 0000.0001) useSRCGSolver =  /* use single reduction CG solver(s) */
(PID.TID 0000.0001)                   F
(PID.TID 0000.0001)     ;
(PID.TID 0000.0001) printResidualFreq = /* Freq. for printing CG residual */
(PID.TID 0000.0001)                       0
(PID.TID 0000.0001)     ;
(PID.TID 0000.0001) //
(PID.TID 0000.0001) // Time stepping paramters ( PARM03 in namelist )
(PID.TID 0000.0001) //
(PID.TID 0000.0001) deltaTMom =   /* Momentum equation timestep ( s ) */
(PID.TID 0000.0001)                 9.000000000000000E+02
(PID.TID 0000.0001)     ;
(PID.TID 0000.0001) deltaTFreeSurf = /* FreeSurface equation timestep ( s ) */
(PID.TID 0000.0001)                 9.000000000000000E+02
(PID.TID 0000.0001)     ;
(PID.TID 0000.0001) dTtracerLev =  /* Tracer equation timestep ( s ) */
(PID.TID 0000.0001)    50 @  9.000000000000000E+02              /* K =  1: 50 */
(PID.TID 0000.0001)     ;
(PID.TID 0000.0001) deltaTClock  =   /* Model clock timestep ( s ) */
(PID.TID 0000.0001)                 9.000000000000000E+02
(PID.TID 0000.0001)     ;
(PID.TID 0000.0001) cAdjFreq =   /* Convective adjustment interval ( s ) */
(PID.TID 0000.0001)                 0.000000000000000E+00
(PID.TID 0000.0001)     ;
(PID.TID 0000.0001) momForcingOutAB = /* =1: take Momentum Forcing out of Adams-Bash. stepping */
(PID.TID 0000.0001)                       1
(PID.TID 0000.0001)     ;
(PID.TID 0000.0001) tracForcingOutAB = /* =1: take T,S,pTr Forcing out of Adams-Bash. stepping */
(PID.TID 0000.0001)                       1
(PID.TID 0000.0001)     ;
(PID.TID 0000.0001) momDissip_In_AB = /* put Dissipation Tendency in Adams-Bash. stepping */
(PID.TID 0000.0001)                   F
(PID.TID 0000.0001)     ;
(PID.TID 0000.0001) doAB_onGtGs = /* apply AB on Tendencies (rather than on T,S)*/
(PID.TID 0000.0001)                   F
(PID.TID 0000.0001)     ;
(PID.TID 0000.0001) abEps =   /* Adams-Bashforth-2 stabilizing weight */
(PID.TID 0000.0001)                 1.000000000000000E-02
(PID.TID 0000.0001)     ;
(PID.TID 0000.0001) applyExchUV_early = /* Apply EXCH to U,V earlier in time-step */
(PID.TID 0000.0001)                   F
(PID.TID 0000.0001)     ;
(PID.TID 0000.0001) pickupStrictlyMatch= /* stop if pickup do not strictly match */
(PID.TID 0000.0001)                   F
(PID.TID 0000.0001)     ;
(PID.TID 0000.0001) nIter0   =   /* Run starting timestep number */
(PID.TID 0000.0001)                       0
(PID.TID 0000.0001)     ;
(PID.TID 0000.0001) nTimeSteps = /* Number of timesteps */
(PID.TID 0000.0001)                       0
(PID.TID 0000.0001)     ;
(PID.TID 0000.0001) nEndIter =   /* Run ending timestep number */
(PID.TID 0000.0001)                       0
(PID.TID 0000.0001)     ;
(PID.TID 0000.0001) baseTime =   /* Model base time ( s ) */
(PID.TID 0000.0001)                 0.000000000000000E+00
(PID.TID 0000.0001)     ;
(PID.TID 0000.0001) startTime =  /* Run start time ( s ) */
(PID.TID 0000.0001)                 0.000000000000000E+00
(PID.TID 0000.0001)     ;
(PID.TID 0000.0001) endTime  =   /* Integration ending time ( s ) */
(PID.TID 0000.0001)                 0.000000000000000E+00
(PID.TID 0000.0001)     ;
(PID.TID 0000.0001) pChkPtFreq = /* Permanent restart/pickup file interval ( s ) */
(PID.TID 0000.0001)                 3.153600000000000E+07
(PID.TID 0000.0001)     ;
(PID.TID 0000.0001) chkPtFreq  = /* Rolling restart/pickup file interval ( s ) */
(PID.TID 0000.0001)                 3.153600000000000E+07
(PID.TID 0000.0001)     ;
(PID.TID 0000.0001) pickup_write_mdsio =   /* Model IO flag. */
(PID.TID 0000.0001)                   T
(PID.TID 0000.0001)     ;
(PID.TID 0000.0001) pickup_read_mdsio =   /* Model IO flag. */
(PID.TID 0000.0001)                   T
(PID.TID 0000.0001)     ;
(PID.TID 0000.0001) writePickupAtEnd =   /* Model IO flag. */
(PID.TID 0000.0001)                   T
(PID.TID 0000.0001)     ;
(PID.TID 0000.0001) dumpFreq =   /* Model state write out interval ( s ). */
(PID.TID 0000.0001)                 0.000000000000000E+00
(PID.TID 0000.0001)     ;
(PID.TID 0000.0001) dumpInitAndLast= /* write out Initial & Last iter. model state */
(PID.TID 0000.0001)                   F
(PID.TID 0000.0001)     ;
(PID.TID 0000.0001) snapshot_mdsio =   /* Model IO flag. */
(PID.TID 0000.0001)                   T
(PID.TID 0000.0001)     ;
(PID.TID 0000.0001) monitorFreq =   /* Monitor output interval ( s ). */
(PID.TID 0000.0001)                 3.600000000000000E+03
(PID.TID 0000.0001)     ;
(PID.TID 0000.0001) monitorSelect = /* select group of variables to monitor */
(PID.TID 0000.0001)                       3
(PID.TID 0000.0001)     ;
(PID.TID 0000.0001) monitor_stdio =   /* Model IO flag. */
(PID.TID 0000.0001)                   T
(PID.TID 0000.0001)     ;
(PID.TID 0000.0001) externForcingPeriod =   /* forcing period (s) */
(PID.TID 0000.0001)                 0.000000000000000E+00
(PID.TID 0000.0001)     ;
(PID.TID 0000.0001) externForcingCycle =   /* period of the cyle (s). */
(PID.TID 0000.0001)                 0.000000000000000E+00
(PID.TID 0000.0001)     ;
(PID.TID 0000.0001) tauThetaClimRelax =   /* relaxation time scale (s) */
(PID.TID 0000.0001)                 0.000000000000000E+00
(PID.TID 0000.0001)     ;
(PID.TID 0000.0001) tauSaltClimRelax =   /* relaxation time scale (s) */
(PID.TID 0000.0001)                 0.000000000000000E+00
(PID.TID 0000.0001)     ;
(PID.TID 0000.0001) latBandClimRelax =   /* max. Lat. where relaxation */
(PID.TID 0000.0001)                 1.800000000000000E+02
(PID.TID 0000.0001)     ;
(PID.TID 0000.0001) //
(PID.TID 0000.0001) // Gridding paramters ( PARM04 in namelist )
(PID.TID 0000.0001) //
(PID.TID 0000.0001) usingCartesianGrid = /* Cartesian coordinates flag ( True/False ) */
(PID.TID 0000.0001)                   F
(PID.TID 0000.0001)     ;
(PID.TID 0000.0001) usingCylindricalGrid = /* Cylindrical coordinates flag ( True/False ) */
(PID.TID 0000.0001)                   F
(PID.TID 0000.0001)     ;
(PID.TID 0000.0001) usingSphericalPolarGrid = /* Spherical coordinates flag ( True/False ) */
(PID.TID 0000.0001)                   F
(PID.TID 0000.0001)     ;
(PID.TID 0000.0001) usingCurvilinearGrid = /* Curvilinear coordinates flag ( True/False ) */
(PID.TID 0000.0001)                   T
(PID.TID 0000.0001)     ;
(PID.TID 0000.0001) useMin4hFacEdges = /* set hFacW,S as minimum of adjacent hFacC factor */
(PID.TID 0000.0001)                   F
(PID.TID 0000.0001)     ;
(PID.TID 0000.0001) selectSigmaCoord = /* Hybrid-Sigma Vert. Coordinate option */
(PID.TID 0000.0001)                       0
(PID.TID 0000.0001)     ;
(PID.TID 0000.0001) rSigmaBnd = /* r/sigma transition ( units of r ==  m ) */
(PID.TID 0000.0001)                 1.234567000000000E+05
(PID.TID 0000.0001)     ;
(PID.TID 0000.0001) rkSign =   /* index orientation relative to vertical coordinate */
(PID.TID 0000.0001)                -1.000000000000000E+00
(PID.TID 0000.0001)     ;
(PID.TID 0000.0001) gravitySign = /* gravity orientation relative to vertical coordinate */
(PID.TID 0000.0001)                -1.000000000000000E+00
(PID.TID 0000.0001)     ;
(PID.TID 0000.0001) seaLev_Z =  /* reference height of sea-level [m] */
(PID.TID 0000.0001)                 0.000000000000000E+00
(PID.TID 0000.0001)     ;
(PID.TID 0000.0001) top_Pres =  /* reference pressure at the top [Pa] */
(PID.TID 0000.0001)                 0.000000000000000E+00
(PID.TID 0000.0001)     ;
(PID.TID 0000.0001) mass2rUnit = /* convert mass per unit area [kg/m2] to r-units [m] */
(PID.TID 0000.0001)                 9.718172983479105E-04
(PID.TID 0000.0001)     ;
(PID.TID 0000.0001) rUnit2mass = /* convert r-units [m] to mass per unit area [kg/m2] */
(PID.TID 0000.0001)                 1.029000000000000E+03
(PID.TID 0000.0001)     ;
(PID.TID 0000.0001) drC =   /* C spacing ( units of r ) */
(PID.TID 0000.0001)                 5.000000000000000E+00,      /* K =  1 */
(PID.TID 0000.0001)     6 @  1.000000000000000E+01,             /* K =  2:  7 */
(PID.TID 0000.0001)                 1.000500000000000E+01,      /* K =  8 */
(PID.TID 0000.0001)                 1.002000000000000E+01,      /* K =  9 */
(PID.TID 0000.0001)                 1.007000000000000E+01,      /* K = 10 */
(PID.TID 0000.0001)                 1.021500000000000E+01,      /* K = 11 */
(PID.TID 0000.0001)                 1.056000000000000E+01,      /* K = 12 */
(PID.TID 0000.0001)                 1.128000000000000E+01,      /* K = 13 */
(PID.TID 0000.0001)                 1.259000000000000E+01,      /* K = 14 */
(PID.TID 0000.0001)                 1.473000000000000E+01,      /* K = 15 */
(PID.TID 0000.0001)                 1.793000000000000E+01,      /* K = 16 */
(PID.TID 0000.0001)                 2.233500000000000E+01,      /* K = 17 */
(PID.TID 0000.0001)                 2.797500000000000E+01,      /* K = 18 */
(PID.TID 0000.0001)                 3.476000000000001E+01,      /* K = 19 */
(PID.TID 0000.0001)                 4.246000000000000E+01,      /* K = 20 */
(PID.TID 0000.0001)                 5.075000000000000E+01,      /* K = 21 */
(PID.TID 0000.0001)                 5.925000000000000E+01,      /* K = 22 */
(PID.TID 0000.0001)                 6.753999999999999E+01,      /* K = 23 */
(PID.TID 0000.0001)                 7.524000000000001E+01,      /* K = 24 */
(PID.TID 0000.0001)                 8.202500000000001E+01,      /* K = 25 */
(PID.TID 0000.0001)                 8.766500000000001E+01,      /* K = 26 */
(PID.TID 0000.0001)                 9.206999999999999E+01,      /* K = 27 */
(PID.TID 0000.0001)                 9.527000000000000E+01,      /* K = 28 */
(PID.TID 0000.0001)                 9.741499999999999E+01,      /* K = 29 */
(PID.TID 0000.0001)                 9.875000000000000E+01,      /* K = 30 */
(PID.TID 0000.0001)                 9.963000000000000E+01,      /* K = 31 */
(PID.TID 0000.0001)                 1.006700000000000E+02,      /* K = 32 */
(PID.TID 0000.0001)                 1.029450000000000E+02,      /* K = 33 */
(PID.TID 0000.0001)                 1.079450000000000E+02,      /* K = 34 */
(PID.TID 0000.0001)                 1.170800000000000E+02,      /* K = 35 */
(PID.TID 0000.0001)                 1.309600000000000E+02,      /* K = 36 */
(PID.TID 0000.0001)                 1.490150000000000E+02,      /* K = 37 */
(PID.TID 0000.0001)                 1.698850000000000E+02,      /* K = 38 */
(PID.TID 0000.0001)                 1.921900000000000E+02,      /* K = 39 */
(PID.TID 0000.0001)                 2.150250000000000E+02,      /* K = 40 */
(PID.TID 0000.0001)                 2.380000000000000E+02,      /* K = 41 */
(PID.TID 0000.0001)                 2.610000000000000E+02,      /* K = 42 */
(PID.TID 0000.0001)                 2.840000000000000E+02,      /* K = 43 */
(PID.TID 0000.0001)                 3.070000000000000E+02,      /* K = 44 */
(PID.TID 0000.0001)                 3.300000000000000E+02,      /* K = 45 */
(PID.TID 0000.0001)                 3.530000000000000E+02,      /* K = 46 */
(PID.TID 0000.0001)                 3.760000000000000E+02,      /* K = 47 */
(PID.TID 0000.0001)                 3.990000000000000E+02,      /* K = 48 */
(PID.TID 0000.0001)                 4.220000000000000E+02,      /* K = 49 */
(PID.TID 0000.0001)                 4.450000000000000E+02,      /* K = 50 */
(PID.TID 0000.0001)                 2.282500000000000E+02       /* K = 51 */
(PID.TID 0000.0001)     ;
(PID.TID 0000.0001) drF =   /* W spacing ( units of r ) */
(PID.TID 0000.0001)     7 @  1.000000000000000E+01,             /* K =  1:  7 */
(PID.TID 0000.0001)                 1.001000000000000E+01,      /* K =  8 */
(PID.TID 0000.0001)                 1.003000000000000E+01,      /* K =  9 */
(PID.TID 0000.0001)                 1.011000000000000E+01,      /* K = 10 */
(PID.TID 0000.0001)                 1.032000000000000E+01,      /* K = 11 */
(PID.TID 0000.0001)                 1.080000000000000E+01,      /* K = 12 */
(PID.TID 0000.0001)                 1.176000000000000E+01,      /* K = 13 */
(PID.TID 0000.0001)                 1.342000000000000E+01,      /* K = 14 */
(PID.TID 0000.0001)                 1.604000000000000E+01,      /* K = 15 */
(PID.TID 0000.0001)                 1.982000000000000E+01,      /* K = 16 */
(PID.TID 0000.0001)                 2.485000000000000E+01,      /* K = 17 */
(PID.TID 0000.0001)                 3.110000000000000E+01,      /* K = 18 */
(PID.TID 0000.0001)                 3.842000000000000E+01,      /* K = 19 */
(PID.TID 0000.0001)                 4.650000000000000E+01,      /* K = 20 */
(PID.TID 0000.0001)                 5.500000000000000E+01,      /* K = 21 */
(PID.TID 0000.0001)                 6.350000000000000E+01,      /* K = 22 */
(PID.TID 0000.0001)                 7.158000000000000E+01,      /* K = 23 */
(PID.TID 0000.0001)                 7.890000000000001E+01,      /* K = 24 */
(PID.TID 0000.0001)                 8.515000000000001E+01,      /* K = 25 */
(PID.TID 0000.0001)                 9.018000000000001E+01,      /* K = 26 */
(PID.TID 0000.0001)                 9.395999999999999E+01,      /* K = 27 */
(PID.TID 0000.0001)                 9.658000000000000E+01,      /* K = 28 */
(PID.TID 0000.0001)                 9.825000000000000E+01,      /* K = 29 */
(PID.TID 0000.0001)                 9.925000000000000E+01,      /* K = 30 */
(PID.TID 0000.0001)                 1.000100000000000E+02,      /* K = 31 */
(PID.TID 0000.0001)                 1.013300000000000E+02,      /* K = 32 */
(PID.TID 0000.0001)                 1.045600000000000E+02,      /* K = 33 */
(PID.TID 0000.0001)                 1.113300000000000E+02,      /* K = 34 */
(PID.TID 0000.0001)                 1.228300000000000E+02,      /* K = 35 */
(PID.TID 0000.0001)                 1.390900000000000E+02,      /* K = 36 */
(PID.TID 0000.0001)                 1.589400000000000E+02,      /* K = 37 */
(PID.TID 0000.0001)                 1.808300000000000E+02,      /* K = 38 */
(PID.TID 0000.0001)                 2.035500000000000E+02,      /* K = 39 */
(PID.TID 0000.0001)                 2.265000000000000E+02,      /* K = 40 */
(PID.TID 0000.0001)                 2.495000000000000E+02,      /* K = 41 */
(PID.TID 0000.0001)                 2.725000000000000E+02,      /* K = 42 */
(PID.TID 0000.0001)                 2.955000000000000E+02,      /* K = 43 */
(PID.TID 0000.0001)                 3.185000000000000E+02,      /* K = 44 */
(PID.TID 0000.0001)                 3.415000000000000E+02,      /* K = 45 */
(PID.TID 0000.0001)                 3.645000000000000E+02,      /* K = 46 */
(PID.TID 0000.0001)                 3.875000000000000E+02,      /* K = 47 */
(PID.TID 0000.0001)                 4.105000000000000E+02,      /* K = 48 */
(PID.TID 0000.0001)                 4.335000000000000E+02,      /* K = 49 */
(PID.TID 0000.0001)                 4.565000000000000E+02       /* K = 50 */
(PID.TID 0000.0001)     ;
(PID.TID 0000.0001) radius_fromHorizGrid = /* sphere Radius of input horiz. grid */
(PID.TID 0000.0001)                 6.370000000000000E+06
(PID.TID 0000.0001)     ;
(PID.TID 0000.0001) rSphere =  /* Radius ( ignored - cartesian, m - spherical ) */
(PID.TID 0000.0001)                 6.370000000000000E+06
(PID.TID 0000.0001)     ;
(PID.TID 0000.0001) deepAtmosphere = /* Deep/Shallow Atmosphere flag (True/False) */
(PID.TID 0000.0001)                   F
(PID.TID 0000.0001)     ;
(PID.TID 0000.0001) xC =  /* xC(:,1,:,1) : P-point X coord ( deg. or m if cartesian) */
(PID.TID 0000.0001)                -4.081468768806280E+01,      /* I =  1 */
(PID.TID 0000.0001)                -3.957104986057077E+01,      /* I =  2 */
(PID.TID 0000.0001)                -3.832217028656162E+01,      /* I =  3 */
(PID.TID 0000.0001)                -3.706844413107324E+01,      /* I =  4 */
(PID.TID 0000.0001)                -3.581028225779612E+01,      /* I =  5 */
(PID.TID 0000.0001)                -3.454811012006861E+01,      /* I =  6 */
(PID.TID 0000.0001)                -3.328236654497336E+01,      /* I =  7 */
(PID.TID 0000.0001)                -3.201350241727823E+01,      /* I =  8 */
(PID.TID 0000.0001)                -3.074197927113779E+01,      /* I =  9 */
(PID.TID 0000.0001)                -2.946826779826338E+01,      /* I = 10 */
(PID.TID 0000.0001)                -2.819284628214859E+01,      /* I = 11 */
(PID.TID 0000.0001)                -2.691619896217756E+01,      /* I = 12 */
(PID.TID 0000.0001)                -2.563881425705264E+01,      /* I = 13 */
(PID.TID 0000.0001)                -2.436118574294736E+01,      /* I = 14 */
(PID.TID 0000.0001)                -2.308380103782244E+01,      /* I = 15 */
(PID.TID 0000.0001)                -2.180715371785141E+01,      /* I = 16 */
(PID.TID 0000.0001)                -2.053173220173662E+01,      /* I = 17 */
(PID.TID 0000.0001)                -1.925802072886221E+01,      /* I = 18 */
(PID.TID 0000.0001)                -1.798649758272177E+01,      /* I = 19 */
(PID.TID 0000.0001)                -1.671763345502664E+01,      /* I = 20 */
(PID.TID 0000.0001)                -1.545188987993139E+01,      /* I = 21 */
(PID.TID 0000.0001)                -1.418971774220388E+01,      /* I = 22 */
(PID.TID 0000.0001)                -1.293155586892676E+01,      /* I = 23 */
(PID.TID 0000.0001)                -1.167782971343838E+01,      /* I = 24 */
(PID.TID 0000.0001)                -1.042895013942923E+01,      /* I = 25 */
(PID.TID 0000.0001)                -9.185312311937196E+00,      /* I = 26 */
(PID.TID 0000.0001)                -7.947294700425999E+00,      /* I = 27 */
(PID.TID 0000.0001)                -6.715258197621779E+00,      /* I = 28 */
(PID.TID 0000.0001)                -5.489545357070952E+00,      /* I = 29 */
(PID.TID 0000.0001)                -4.270479749729759E+00       /* I = 30 */
(PID.TID 0000.0001)     ;
(PID.TID 0000.0001) yC =  /* yC(1,:,1,:) : P-point Y coord ( deg. or m if cartesian) */
(PID.TID 0000.0001)                -8.146222940368236E+01,      /* J =  1 */
(PID.TID 0000.0001)                -8.113083815286421E+01,      /* J =  2 */
(PID.TID 0000.0001)                -8.079504828233755E+01,      /* J =  3 */
(PID.TID 0000.0001)                -8.045491317322768E+01,      /* J =  4 */
(PID.TID 0000.0001)                -8.011048280590389E+01,      /* J =  5 */
(PID.TID 0000.0001)                -7.976180430515704E+01,      /* J =  6 */
(PID.TID 0000.0001)                -7.940892240526760E+01,      /* J =  7 */
(PID.TID 0000.0001)                -7.905187984845006E+01,      /* J =  8 */
(PID.TID 0000.0001)                -7.869071772754813E+01,      /* J =  9 */
(PID.TID 0000.0001)                -7.832547578199167E+01,      /* J = 10 */
(PID.TID 0000.0001)                -7.795619265432416E+01,      /* J = 11 */
(PID.TID 0000.0001)                -7.758290611340497E+01,      /* J = 12 */
(PID.TID 0000.0001)                -7.720565324926896E+01,      /* J = 13 */
(PID.TID 0000.0001)                -7.682447064385434E+01,      /* J = 14 */
(PID.TID 0000.0001)                -7.643939452107085E+01,      /* J = 15 */
(PID.TID 0000.0001)                -7.605046087901695E+01,      /* J = 16 */
(PID.TID 0000.0001)                -7.565770560699295E+01,      /* J = 17 */
(PID.TID 0000.0001)                -7.526116458910658E+01,      /* J = 18 */
(PID.TID 0000.0001)                -7.486087379640449E+01,      /* J = 19 */
(PID.TID 0000.0001)                -7.445686936886233E+01,      /* J = 20 */
(PID.TID 0000.0001)                -7.404918768854837E+01,      /* J = 21 */
(PID.TID 0000.0001)                -7.363786544493549E+01,      /* J = 22 */
(PID.TID 0000.0001)                -7.322293969328220E+01,      /* J = 23 */
(PID.TID 0000.0001)                -7.280444790682334E+01,      /* J = 24 */
(PID.TID 0000.0001)                -7.238242802328044E+01,      /* J = 25 */
(PID.TID 0000.0001)                -7.195691848614972E+01,      /* J = 26 */
(PID.TID 0000.0001)                -7.152795828082729E+01,      /* J = 27 */
(PID.TID 0000.0001)                -7.109558696482472E+01,      /* J = 28 */
(PID.TID 0000.0001)                -7.065984468855757E+01,      /* J = 29 */
(PID.TID 0000.0001)                -7.022077218177122E+01       /* J = 30 */
(PID.TID 0000.0001)     ;
(PID.TID 0000.0001) rcoord = /* P-point R coordinate (  units of r ) */
(PID.TID 0000.0001)                -5.000000000000000E+00,      /* K =  1 */
(PID.TID 0000.0001)                -1.500000000000000E+01,      /* K =  2 */
(PID.TID 0000.0001)                -2.500000000000000E+01,      /* K =  3 */
(PID.TID 0000.0001)                -3.500000000000000E+01,      /* K =  4 */
(PID.TID 0000.0001)                -4.500000000000000E+01,      /* K =  5 */
(PID.TID 0000.0001)                -5.500000000000000E+01,      /* K =  6 */
(PID.TID 0000.0001)                -6.500000000000000E+01,      /* K =  7 */
(PID.TID 0000.0001)                -7.500500000000000E+01,      /* K =  8 */
(PID.TID 0000.0001)                -8.502499999999999E+01,      /* K =  9 */
(PID.TID 0000.0001)                -9.509500000000000E+01,      /* K = 10 */
(PID.TID 0000.0001)                -1.053100000000000E+02,      /* K = 11 */
(PID.TID 0000.0001)                -1.158700000000000E+02,      /* K = 12 */
(PID.TID 0000.0001)                -1.271500000000000E+02,      /* K = 13 */
(PID.TID 0000.0001)                -1.397400000000000E+02,      /* K = 14 */
(PID.TID 0000.0001)                -1.544700000000000E+02,      /* K = 15 */
(PID.TID 0000.0001)                -1.724000000000000E+02,      /* K = 16 */
(PID.TID 0000.0001)                -1.947350000000000E+02,      /* K = 17 */
(PID.TID 0000.0001)                -2.227100000000000E+02,      /* K = 18 */
(PID.TID 0000.0001)                -2.574700000000000E+02,      /* K = 19 */
(PID.TID 0000.0001)                -2.999300000000000E+02,      /* K = 20 */
(PID.TID 0000.0001)                -3.506800000000000E+02,      /* K = 21 */
(PID.TID 0000.0001)                -4.099300000000000E+02,      /* K = 22 */
(PID.TID 0000.0001)                -4.774700000000000E+02,      /* K = 23 */
(PID.TID 0000.0001)                -5.527100000000000E+02,      /* K = 24 */
(PID.TID 0000.0001)                -6.347350000000000E+02,      /* K = 25 */
(PID.TID 0000.0001)                -7.224000000000000E+02,      /* K = 26 */
(PID.TID 0000.0001)                -8.144700000000000E+02,      /* K = 27 */
(PID.TID 0000.0001)                -9.097400000000000E+02,      /* K = 28 */
(PID.TID 0000.0001)                -1.007155000000000E+03,      /* K = 29 */
(PID.TID 0000.0001)                -1.105905000000000E+03,      /* K = 30 */
(PID.TID 0000.0001)                -1.205535000000000E+03,      /* K = 31 */
(PID.TID 0000.0001)                -1.306205000000000E+03,      /* K = 32 */
(PID.TID 0000.0001)                -1.409150000000000E+03,      /* K = 33 */
(PID.TID 0000.0001)                -1.517095000000000E+03,      /* K = 34 */
(PID.TID 0000.0001)                -1.634175000000000E+03,      /* K = 35 */
(PID.TID 0000.0001)                -1.765135000000000E+03,      /* K = 36 */
(PID.TID 0000.0001)                -1.914150000000000E+03,      /* K = 37 */
(PID.TID 0000.0001)                -2.084035000000000E+03,      /* K = 38 */
(PID.TID 0000.0001)                -2.276225000000000E+03,      /* K = 39 */
(PID.TID 0000.0001)                -2.491250000000000E+03,      /* K = 40 */
(PID.TID 0000.0001)                -2.729250000000000E+03,      /* K = 41 */
(PID.TID 0000.0001)                -2.990250000000000E+03,      /* K = 42 */
(PID.TID 0000.0001)                -3.274250000000000E+03,      /* K = 43 */
(PID.TID 0000.0001)                -3.581250000000000E+03,      /* K = 44 */
(PID.TID 0000.0001)                -3.911250000000000E+03,      /* K = 45 */
(PID.TID 0000.0001)                -4.264250000000000E+03,      /* K = 46 */
(PID.TID 0000.0001)                -4.640250000000000E+03,      /* K = 47 */
(PID.TID 0000.0001)                -5.039250000000000E+03,      /* K = 48 */
(PID.TID 0000.0001)                -5.461250000000000E+03,      /* K = 49 */
(PID.TID 0000.0001)                -5.906250000000000E+03       /* K = 50 */
(PID.TID 0000.0001)     ;
(PID.TID 0000.0001) rF =   /* W-Interf. R coordinate (  units of r ) */
(PID.TID 0000.0001)                 0.000000000000000E+00,      /* K =  1 */
(PID.TID 0000.0001)                -1.000000000000000E+01,      /* K =  2 */
(PID.TID 0000.0001)                -2.000000000000000E+01,      /* K =  3 */
(PID.TID 0000.0001)                -3.000000000000000E+01,      /* K =  4 */
(PID.TID 0000.0001)                -4.000000000000000E+01,      /* K =  5 */
(PID.TID 0000.0001)                -5.000000000000000E+01,      /* K =  6 */
(PID.TID 0000.0001)                -6.000000000000000E+01,      /* K =  7 */
(PID.TID 0000.0001)                -7.000000000000000E+01,      /* K =  8 */
(PID.TID 0000.0001)                -8.001000000000001E+01,      /* K =  9 */
(PID.TID 0000.0001)                -9.004000000000001E+01,      /* K = 10 */
(PID.TID 0000.0001)                -1.001500000000000E+02,      /* K = 11 */
(PID.TID 0000.0001)                -1.104700000000000E+02,      /* K = 12 */
(PID.TID 0000.0001)                -1.212700000000000E+02,      /* K = 13 */
(PID.TID 0000.0001)                -1.330300000000000E+02,      /* K = 14 */
(PID.TID 0000.0001)                -1.464500000000000E+02,      /* K = 15 */
(PID.TID 0000.0001)                -1.624900000000000E+02,      /* K = 16 */
(PID.TID 0000.0001)                -1.823100000000000E+02,      /* K = 17 */
(PID.TID 0000.0001)                -2.071600000000000E+02,      /* K = 18 */
(PID.TID 0000.0001)                -2.382600000000000E+02,      /* K = 19 */
(PID.TID 0000.0001)                -2.766799999999999E+02,      /* K = 20 */
(PID.TID 0000.0001)                -3.231799999999999E+02,      /* K = 21 */
(PID.TID 0000.0001)                -3.781799999999999E+02,      /* K = 22 */
(PID.TID 0000.0001)                -4.416799999999999E+02,      /* K = 23 */
(PID.TID 0000.0001)                -5.132600000000000E+02,      /* K = 24 */
(PID.TID 0000.0001)                -5.921600000000000E+02,      /* K = 25 */
(PID.TID 0000.0001)                -6.773099999999999E+02,      /* K = 26 */
(PID.TID 0000.0001)                -7.674900000000000E+02,      /* K = 27 */
(PID.TID 0000.0001)                -8.614500000000000E+02,      /* K = 28 */
(PID.TID 0000.0001)                -9.580300000000001E+02,      /* K = 29 */
(PID.TID 0000.0001)                -1.056280000000000E+03,      /* K = 30 */
(PID.TID 0000.0001)                -1.155530000000000E+03,      /* K = 31 */
(PID.TID 0000.0001)                -1.255540000000000E+03,      /* K = 32 */
(PID.TID 0000.0001)                -1.356870000000000E+03,      /* K = 33 */
(PID.TID 0000.0001)                -1.461430000000000E+03,      /* K = 34 */
(PID.TID 0000.0001)                -1.572760000000000E+03,      /* K = 35 */
(PID.TID 0000.0001)                -1.695590000000000E+03,      /* K = 36 */
(PID.TID 0000.0001)                -1.834680000000000E+03,      /* K = 37 */
(PID.TID 0000.0001)                -1.993620000000000E+03,      /* K = 38 */
(PID.TID 0000.0001)                -2.174450000000000E+03,      /* K = 39 */
(PID.TID 0000.0001)                -2.378000000000000E+03,      /* K = 40 */
(PID.TID 0000.0001)                -2.604500000000000E+03,      /* K = 41 */
(PID.TID 0000.0001)                -2.854000000000000E+03,      /* K = 42 */
(PID.TID 0000.0001)                -3.126500000000000E+03,      /* K = 43 */
(PID.TID 0000.0001)                -3.422000000000000E+03,      /* K = 44 */
(PID.TID 0000.0001)                -3.740500000000000E+03,      /* K = 45 */
(PID.TID 0000.0001)                -4.082000000000000E+03,      /* K = 46 */
(PID.TID 0000.0001)                -4.446500000000000E+03,      /* K = 47 */
(PID.TID 0000.0001)                -4.834000000000000E+03,      /* K = 48 */
(PID.TID 0000.0001)                -5.244500000000000E+03,      /* K = 49 */
(PID.TID 0000.0001)                -5.678000000000000E+03,      /* K = 50 */
(PID.TID 0000.0001)                -6.134500000000000E+03       /* K = 51 */
(PID.TID 0000.0001)     ;
(PID.TID 0000.0001) deepFacC = /* deep-model grid factor @ cell-Center (-) */
(PID.TID 0000.0001)    50 @  1.000000000000000E+00              /* K =  1: 50 */
(PID.TID 0000.0001)     ;
(PID.TID 0000.0001) deepFacF = /* deep-model grid factor @ W-Interface (-) */
(PID.TID 0000.0001)    51 @  1.000000000000000E+00              /* K =  1: 51 */
(PID.TID 0000.0001)     ;
(PID.TID 0000.0001) rVel2wUnit = /* convert units: rVel -> wSpeed (=1 if z-coord)*/
(PID.TID 0000.0001)    51 @  1.000000000000000E+00              /* K =  1: 51 */
(PID.TID 0000.0001)     ;
(PID.TID 0000.0001) wUnit2rVel = /* convert units: wSpeed -> rVel (=1 if z-coord)*/
(PID.TID 0000.0001)    51 @  1.000000000000000E+00              /* K =  1: 51 */
(PID.TID 0000.0001)     ;
(PID.TID 0000.0001) dBdrRef = /* Vertical grad. of reference buoyancy [(m/s/r)^2] */
(PID.TID 0000.0001)     3 @  0.000000000000000E+00,             /* K =  1:  3 */
(PID.TID 0000.0001)                 2.706065538651213E-04,      /* K =  4 */
(PID.TID 0000.0001)     2 @  0.000000000000000E+00,             /* K =  5:  6 */
(PID.TID 0000.0001)                 2.632794562663490E-04,      /* K =  7 */
(PID.TID 0000.0001)                 2.554318021231947E-04,      /* K =  8 */
(PID.TID 0000.0001)                 0.000000000000000E+00,      /* K =  9 */
(PID.TID 0000.0001)                 2.461524232360561E-04,      /* K = 10 */
(PID.TID 0000.0001)                 2.348694431245364E-04,      /* K = 11 */
(PID.TID 0000.0001)                 0.000000000000000E+00,      /* K = 12 */
(PID.TID 0000.0001)                 2.056847859884566E-04,      /* K = 13 */
(PID.TID 0000.0001)                 1.777764506003336E-04,      /* K = 14 */
(PID.TID 0000.0001)                 0.000000000000000E+00,      /* K = 15 */
(PID.TID 0000.0001)                 1.203533867077665E-04,      /* K = 16 */
(PID.TID 0000.0001)                 9.288540355629585E-05,      /* K = 17 */
(PID.TID 0000.0001)                 7.115862770365155E-05,      /* K = 18 */
(PID.TID 0000.0001)                 5.484365820533800E-05,      /* K = 19 */
(PID.TID 0000.0001)                 4.290935507113214E-05,      /* K = 20 */
(PID.TID 0000.0001)                 6.658747741703880E-05,      /* K = 21 */
(PID.TID 0000.0001)                 0.000000000000000E+00,      /* K = 22 */
(PID.TID 0000.0001)                 2.323718420342036E-05,      /* K = 23 */
(PID.TID 0000.0001)                 1.974682037962757E-05,      /* K = 24 */
(PID.TID 0000.0001)                 1.709468932536602E-05,      /* K = 25 */
(PID.TID 0000.0001)                 0.000000000000000E+00,      /* K = 26 */
(PID.TID 0000.0001)                 1.455436545977052E-05,      /* K = 27 */
(PID.TID 0000.0001)                 0.000000000000000E+00,      /* K = 28 */
(PID.TID 0000.0001)                 1.315287111980149E-05,      /* K = 29 */
(PID.TID 0000.0001)     2 @  0.000000000000000E+00,             /* K = 30: 31 */
(PID.TID 0000.0001)                 1.240968507885233E-05,      /* K = 32 */
(PID.TID 0000.0001)     2 @  0.000000000000000E+00,             /* K = 33: 34 */
(PID.TID 0000.0001)                 1.045141607964570E-05,      /* K = 35 */
(PID.TID 0000.0001)     3 @  0.000000000000000E+00,             /* K = 36: 38 */
(PID.TID 0000.0001)                 6.628797113709505E-06,      /* K = 39 */
(PID.TID 0000.0001)    11 @  0.000000000000000E+00              /* K = 40: 50 */
(PID.TID 0000.0001)     ;
(PID.TID 0000.0001) rotateGrid = /* use rotated grid ( True/False ) */
(PID.TID 0000.0001)                   F
(PID.TID 0000.0001)     ;
(PID.TID 0000.0001) phiEuler = /* Euler angle, rotation about original z-coordinate [rad] */
(PID.TID 0000.0001)                 0.000000000000000E+00
(PID.TID 0000.0001)     ;
(PID.TID 0000.0001) thetaEuler = /* Euler angle, rotation about new x-coordinate [rad] */
(PID.TID 0000.0001)                 0.000000000000000E+00
(PID.TID 0000.0001)     ;
(PID.TID 0000.0001) psiEuler = /* Euler angle, rotation about new z-coordinate [rad] */
(PID.TID 0000.0001)                 0.000000000000000E+00
(PID.TID 0000.0001)     ;
(PID.TID 0000.0001) dxF =  /* dxF(:,1,:,1) ( units: m ) */
(PID.TID 0000.0001)                 2.071152825743187E+04,      /* I =  1 */
(PID.TID 0000.0001)                 2.070365142756831E+04,      /* I =  2 */
(PID.TID 0000.0001)                 2.069635296570141E+04,      /* I =  3 */
(PID.TID 0000.0001)                 2.068965358413176E+04,      /* I =  4 */
(PID.TID 0000.0001)                 2.068357195583360E+04,      /* I =  5 */
(PID.TID 0000.0001)                 2.067812475356784E+04,      /* I =  6 */
(PID.TID 0000.0001)                 2.067332670125947E+04,      /* I =  7 */
(PID.TID 0000.0001)                 2.066919060389092E+04,      /* I =  8 */
(PID.TID 0000.0001)                 2.066572738985245E+04,      /* I =  9 */
(PID.TID 0000.0001)                 2.066294615597989E+04,      /* I = 10 */
(PID.TID 0000.0001)                 2.066085425372315E+04,      /* I = 11 */
(PID.TID 0000.0001)                 2.065945771525925E+04,      /* I = 12 */
(PID.TID 0000.0001)                 2.065874381268158E+04,      /* I = 13 */
(PID.TID 0000.0001)                 2.065874381268158E+04,      /* I = 14 */
(PID.TID 0000.0001)                 2.065945771525925E+04,      /* I = 15 */
(PID.TID 0000.0001)                 2.066085425372316E+04,      /* I = 16 */
(PID.TID 0000.0001)                 2.066294615597989E+04,      /* I = 17 */
(PID.TID 0000.0001)                 2.066572738985245E+04,      /* I = 18 */
(PID.TID 0000.0001)                 2.066919060389088E+04,      /* I = 19 */
(PID.TID 0000.0001)                 2.067332670125956E+04,      /* I = 20 */
(PID.TID 0000.0001)                 2.067812475356780E+04,      /* I = 21 */
(PID.TID 0000.0001)                 2.068357195583360E+04,      /* I = 22 */
(PID.TID 0000.0001)                 2.068965358413182E+04,      /* I = 23 */
(PID.TID 0000.0001)                 2.069635296570133E+04,      /* I = 24 */
(PID.TID 0000.0001)                 2.070365142756836E+04,      /* I = 25 */
(PID.TID 0000.0001)                 2.071152825743182E+04,      /* I = 26 */
(PID.TID 0000.0001)                 2.071996065138743E+04,      /* I = 27 */
(PID.TID 0000.0001)                 2.072892365863983E+04,      /* I = 28 */
(PID.TID 0000.0001)                 2.073839012765668E+04,      /* I = 29 */
(PID.TID 0000.0001)                 2.074833063718403E+04       /* I = 30 */
(PID.TID 0000.0001)     ;
(PID.TID 0000.0001) dxF =  /* dxF(1,:,1,:) ( units: m ) */
(PID.TID 0000.0001)                 2.071152825743187E+04,      /* J =  1 */
(PID.TID 0000.0001)                 2.109117491456033E+04,      /* J =  2 */
(PID.TID 0000.0001)                 2.148525648961724E+04,      /* J =  3 */
(PID.TID 0000.0001)                 2.189377348588603E+04,      /* J =  4 */
(PID.TID 0000.0001)                 2.231672440915243E+04,      /* J =  5 */
(PID.TID 0000.0001)                 2.275410689480659E+04,      /* J =  6 */
(PID.TID 0000.0001)                 2.320591873318126E+04,      /* J =  7 */
(PID.TID 0000.0001)                 2.367215879054831E+04,      /* J =  8 */
(PID.TID 0000.0001)                 2.415282782538908E+04,      /* J =  9 */
(PID.TID 0000.0001)                 2.464792920101809E+04,      /* J = 10 */
(PID.TID 0000.0001)                 2.515746949702995E+04,      /* J = 11 */
(PID.TID 0000.0001)                 2.568145902315334E+04,      /* J = 12 */
(PID.TID 0000.0001)                 2.621991223981432E+04,      /* J = 13 */
(PID.TID 0000.0001)                 2.677284809033052E+04,      /* J = 14 */
(PID.TID 0000.0001)                 2.734029025013979E+04,      /* J = 15 */
(PID.TID 0000.0001)                 2.792226729855568E+04,      /* J = 16 */
(PID.TID 0000.0001)                 2.851881281852892E+04,      /* J = 17 */
(PID.TID 0000.0001)                 2.912996543046302E+04,      /* J = 18 */
(PID.TID 0000.0001)                 2.975576876502299E+04,      /* J = 19 */
(PID.TID 0000.0001)                 3.039627138062681E+04,      /* J = 20 */
(PID.TID 0000.0001)                 3.105152663065675E+04,      /* J = 21 */
(PID.TID 0000.0001)                 3.172159248542454E+04,      /* J = 22 */
(PID.TID 0000.0001)                 3.240653131349731E+04,      /* J = 23 */
(PID.TID 0000.0001)                 3.310640962675057E+04,      /* J = 24 */
(PID.TID 0000.0001)                 3.382129779388320E+04,      /* J = 25 */
(PID.TID 0000.0001)                 3.455126972555294E+04,      /* J = 26 */
(PID.TID 0000.0001)                 3.529640253603521E+04,      /* J = 27 */
(PID.TID 0000.0001)                 3.605677618612848E+04,      /* J = 28 */
(PID.TID 0000.0001)                 3.683247311866502E+04,      /* J = 29 */
(PID.TID 0000.0001)                 3.762357793548112E+04       /* J = 30 */
(PID.TID 0000.0001)     ;
(PID.TID 0000.0001) dyF =  /* dyF(:,1,:,1) ( units: m ) */
(PID.TID 0000.0001)                 3.700742300337598E+04,      /* I =  1 */
(PID.TID 0000.0001)                 3.707905556394973E+04,      /* I =  2 */
(PID.TID 0000.0001)                 3.714471828319018E+04,      /* I =  3 */
(PID.TID 0000.0001)                 3.720441078960103E+04,      /* I =  4 */
(PID.TID 0000.0001)                 3.725813297080282E+04,      /* I =  5 */
(PID.TID 0000.0001)                 3.730588490725751E+04,      /* I =  6 */
(PID.TID 0000.0001)                 3.734766681359038E+04,      /* I =  7 */
(PID.TID 0000.0001)                 3.738347898712025E+04,      /* I =  8 */
(PID.TID 0000.0001)                 3.741332176340629E+04,      /* I =  9 */
(PID.TID 0000.0001)                 3.743719547859261E+04,      /* I = 10 */
(PID.TID 0000.0001)                 3.745510043824806E+04,      /* I = 11 */
(PID.TID 0000.0001)                 3.746703689267323E+04,      /* I = 12 */
(PID.TID 0000.0001)     2 @  3.747300501832417E+04,             /* I = 13: 14 */
(PID.TID 0000.0001)                 3.746703689267323E+04,      /* I = 15 */
(PID.TID 0000.0001)                 3.745510043824806E+04,      /* I = 16 */
(PID.TID 0000.0001)                 3.743719547859261E+04,      /* I = 17 */
(PID.TID 0000.0001)                 3.741332176340628E+04,      /* I = 18 */
(PID.TID 0000.0001)                 3.738347898712024E+04,      /* I = 19 */
(PID.TID 0000.0001)                 3.734766681359040E+04,      /* I = 20 */
(PID.TID 0000.0001)                 3.730588490725750E+04,      /* I = 21 */
(PID.TID 0000.0001)                 3.725813297080281E+04,      /* I = 22 */
(PID.TID 0000.0001)                 3.720441078960103E+04,      /* I = 23 */
(PID.TID 0000.0001)                 3.714471828319017E+04,      /* I = 24 */
(PID.TID 0000.0001)                 3.707905556394973E+04,      /* I = 25 */
(PID.TID 0000.0001)                 3.700742300337599E+04,      /* I = 26 */
(PID.TID 0000.0001)                 3.692982130617692E+04,      /* I = 27 */
(PID.TID 0000.0001)                 3.684625159269555E+04,      /* I = 28 */
(PID.TID 0000.0001)                 3.675671548992459E+04,      /* I = 29 */
(PID.TID 0000.0001)                 3.666121523181524E+04       /* I = 30 */
(PID.TID 0000.0001)     ;
(PID.TID 0000.0001) dyF =  /* dyF(1,:,1,:) ( units: m ) */
(PID.TID 0000.0001)                 3.700742300337598E+04,      /* J =  1 */
(PID.TID 0000.0001)                 3.745555642044499E+04,      /* J =  2 */
(PID.TID 0000.0001)                 3.790206217653974E+04,      /* J =  3 */
(PID.TID 0000.0001)                 3.834684105117956E+04,      /* J =  4 */
(PID.TID 0000.0001)                 3.878979459357282E+04,      /* J =  5 */
(PID.TID 0000.0001)                 3.923082521328924E+04,      /* J =  6 */
(PID.TID 0000.0001)                 3.966983623246408E+04,      /* J =  7 */
(PID.TID 0000.0001)                 4.010673190475840E+04,      /* J =  8 */
(PID.TID 0000.0001)                 4.054141740950450E+04,      /* J =  9 */
(PID.TID 0000.0001)                 4.097379882434454E+04,      /* J = 10 */
(PID.TID 0000.0001)                 4.140378308084428E+04,      /* J = 11 */
(PID.TID 0000.0001)                 4.183127790875583E+04,      /* J = 12 */
(PID.TID 0000.0001)                 4.225619177206317E+04,      /* J = 13 */
(PID.TID 0000.0001)                 4.267843379867976E+04,      /* J = 14 */
(PID.TID 0000.0001)                 4.309791371221616E+04,      /* J = 15 */
(PID.TID 0000.0001)                 4.351454176087940E+04,      /* J = 16 */
(PID.TID 0000.0001)                 4.392822864881465E+04,      /* J = 17 */
(PID.TID 0000.0001)                 4.433888547805120E+04,      /* J = 18 */
(PID.TID 0000.0001)                 4.474642369096899E+04,      /* J = 19 */
(PID.TID 0000.0001)                 4.515075502217317E+04,      /* J = 20 */
(PID.TID 0000.0001)                 4.555179145554101E+04,      /* J = 21 */
(PID.TID 0000.0001)                 4.594944520275577E+04,      /* J = 22 */
(PID.TID 0000.0001)                 4.634362867401398E+04,      /* J = 23 */
(PID.TID 0000.0001)                 4.673425447947427E+04,      /* J = 24 */
(PID.TID 0000.0001)                 4.712123544873745E+04,      /* J = 25 */
(PID.TID 0000.0001)                 4.750448467975499E+04,      /* J = 26 */
(PID.TID 0000.0001)                 4.788391567392174E+04,      /* J = 27 */
(PID.TID 0000.0001)                 4.825944271092693E+04,      /* J = 28 */
(PID.TID 0000.0001)                 4.863098220111143E+04,      /* J = 29 */
(PID.TID 0000.0001)                 4.899845499569884E+04       /* J = 30 */
(PID.TID 0000.0001)     ;
(PID.TID 0000.0001) dxG =  /* dxG(:,1,:,1) ( units: m ) */
(PID.TID 0000.0001)                 2.052711702021451E+04,      /* I =  1 */
(PID.TID 0000.0001)                 2.051953983526162E+04,      /* I =  2 */
(PID.TID 0000.0001)                 2.051251425926268E+04,      /* I =  3 */
(PID.TID 0000.0001)                 2.050606148013825E+04,      /* I =  4 */
(PID.TID 0000.0001)                 2.050020059906299E+04,      /* I =  5 */
(PID.TID 0000.0001)                 2.049494867086169E+04,      /* I =  6 */
(PID.TID 0000.0001)                 2.049032075633103E+04,      /* I =  7 */
(PID.TID 0000.0001)                 2.048632995314923E+04,      /* I =  8 */
(PID.TID 0000.0001)                 2.048298743895549E+04,      /* I =  9 */
(PID.TID 0000.0001)                 2.048030251694177E+04,      /* I = 10 */
(PID.TID 0000.0001)                 2.047828270203973E+04,      /* I = 11 */
(PID.TID 0000.0001)                 2.047693414389448E+04,      /* I = 12 */
(PID.TID 0000.0001)     2 @  2.047624433858785E+04,             /* I = 13: 14 */
(PID.TID 0000.0001)                 2.047693414389443E+04,      /* I = 15 */
(PID.TID 0000.0001)                 2.047828270203978E+04,      /* I = 16 */
(PID.TID 0000.0001)                 2.048030251694177E+04,      /* I = 17 */
(PID.TID 0000.0001)                 2.048298743895548E+04,      /* I = 18 */
(PID.TID 0000.0001)                 2.048632995314927E+04,      /* I = 19 */
(PID.TID 0000.0001)                 2.049032075633093E+04,      /* I = 20 */
(PID.TID 0000.0001)                 2.049494867086174E+04,      /* I = 21 */
(PID.TID 0000.0001)                 2.050020059906297E+04,      /* I = 22 */
(PID.TID 0000.0001)                 2.050606148013830E+04,      /* I = 23 */
(PID.TID 0000.0001)                 2.051251425926268E+04,      /* I = 24 */
(PID.TID 0000.0001)                 2.051953983526163E+04,      /* I = 25 */
(PID.TID 0000.0001)                 2.052711702021443E+04,      /* I = 26 */
(PID.TID 0000.0001)                 2.053522248594683E+04,      /* I = 27 */
(PID.TID 0000.0001)                 2.054383070727552E+04,      /* I = 28 */
(PID.TID 0000.0001)                 2.055291390664790E+04,      /* I = 29 */
(PID.TID 0000.0001)                 2.056244198352907E+04       /* I = 30 */
(PID.TID 0000.0001)     ;
(PID.TID 0000.0001) dxG =  /* dxG(1,:,1,:) ( units: m ) */
(PID.TID 0000.0001)                 2.052711702021451E+04,      /* J =  1 */
(PID.TID 0000.0001)                 2.089954736357391E+04,      /* J =  2 */
(PID.TID 0000.0001)                 2.128641124518697E+04,      /* J =  3 */
(PID.TID 0000.0001)                 2.168771062037700E+04,      /* J =  4 */
(PID.TID 0000.0001)                 2.210344484655194E+04,      /* J =  5 */
(PID.TID 0000.0001)                 2.253361185972884E+04,      /* J =  6 */
(PID.TID 0000.0001)                 2.297820925105574E+04,      /* J =  7 */
(PID.TID 0000.0001)                 2.343723524028478E+04,      /* J =  8 */
(PID.TID 0000.0001)                 2.391068954427550E+04,      /* J =  9 */
(PID.TID 0000.0001)                 2.439857414125275E+04,      /* J = 10 */
(PID.TID 0000.0001)                 2.490089393241153E+04,      /* J = 11 */
(PID.TID 0000.0001)                 2.541765730414359E+04,      /* J = 12 */
(PID.TID 0000.0001)                 2.594887659459613E+04,      /* J = 13 */
(PID.TID 0000.0001)                 2.649456846940333E+04,      /* J = 14 */
(PID.TID 0000.0001)                 2.705475421181358E+04,      /* J = 15 */
(PID.TID 0000.0001)                 2.762945993231310E+04,      /* J = 16 */
(PID.TID 0000.0001)                 2.821871670385097E+04,      /* J = 17 */
(PID.TID 0000.0001)                 2.882256062780631E+04,      /* J = 18 */
(PID.TID 0000.0001)                 2.944103283669238E+04,      /* J = 19 */
(PID.TID 0000.0001)                 3.007417943861200E+04,      /* J = 20 */
(PID.TID 0000.0001)                 3.072205140902393E+04,      /* J = 21 */
(PID.TID 0000.0001)                 3.138470443467240E+04,      /* J = 22 */
(PID.TID 0000.0001)                 3.206219871470027E+04,      /* J = 23 */
(PID.TID 0000.0001)                 3.275459872326910E+04,      /* J = 24 */
(PID.TID 0000.0001)                 3.346197293831744E+04,      /* J = 25 */
(PID.TID 0000.0001)                 3.418439354048331E+04,      /* J = 26 */
(PID.TID 0000.0001)                 3.492193608585089E+04,      /* J = 27 */
(PID.TID 0000.0001)                 3.567467915738818E+04,      /* J = 28 */
(PID.TID 0000.0001)                 3.644270400216877E+04,      /* J = 29 */
(PID.TID 0000.0001)                 3.722609417427087E+04       /* J = 30 */
(PID.TID 0000.0001)     ;
(PID.TID 0000.0001) dyG =  /* dyG(:,1,:,1) ( units: m ) */
(PID.TID 0000.0001)                 3.696936823759973E+04,      /* I =  1 */
(PID.TID 0000.0001)                 3.704398547852144E+04,      /* I =  2 */
(PID.TID 0000.0001)                 3.711263318385338E+04,      /* I =  3 */
(PID.TID 0000.0001)                 3.717531082528212E+04,      /* I =  4 */
(PID.TID 0000.0001)                 3.723201816961422E+04,      /* I =  5 */
(PID.TID 0000.0001)                 3.728275520872145E+04,      /* I =  6 */
(PID.TID 0000.0001)                 3.732752209699158E+04,      /* I =  7 */
(PID.TID 0000.0001)                 3.736631909640826E+04,      /* I =  8 */
(PID.TID 0000.0001)                 3.739914652852553E+04,      /* I =  9 */
(PID.TID 0000.0001)                 3.742600473350589E+04,      /* I = 10 */
(PID.TID 0000.0001)                 3.744689403567852E+04,      /* I = 11 */
(PID.TID 0000.0001)                 3.746181471567877E+04,      /* I = 12 */
(PID.TID 0000.0001)                 3.747076698884368E+04,      /* I = 13 */
(PID.TID 0000.0001)                 3.747376174977726E+04,      /* I = 14 */
(PID.TID 0000.0001)                 3.747076698884368E+04,      /* I = 15 */
(PID.TID 0000.0001)                 3.746181471567877E+04,      /* I = 16 */
(PID.TID 0000.0001)                 3.744689403567852E+04,      /* I = 17 */
(PID.TID 0000.0001)                 3.742600473350589E+04,      /* I = 18 */
(PID.TID 0000.0001)                 3.739914652852552E+04,      /* I = 19 */
(PID.TID 0000.0001)                 3.736631909640826E+04,      /* I = 20 */
(PID.TID 0000.0001)                 3.732752209699157E+04,      /* I = 21 */
(PID.TID 0000.0001)                 3.728275520872146E+04,      /* I = 22 */
(PID.TID 0000.0001)                 3.723201816961422E+04,      /* I = 23 */
(PID.TID 0000.0001)                 3.717531082528211E+04,      /* I = 24 */
(PID.TID 0000.0001)                 3.711263318385338E+04,      /* I = 25 */
(PID.TID 0000.0001)                 3.704398547852145E+04,      /* I = 26 */
(PID.TID 0000.0001)                 3.696936823759972E+04,      /* I = 27 */
(PID.TID 0000.0001)                 3.688878236278851E+04,      /* I = 28 */
(PID.TID 0000.0001)                 3.680222921581766E+04,      /* I = 29 */
(PID.TID 0000.0001)                 3.670971071402137E+04       /* I = 30 */
(PID.TID 0000.0001)     ;
(PID.TID 0000.0001) dyG =  /* dyG(1,:,1,:) ( units: m ) */
(PID.TID 0000.0001)                 3.696936823759973E+04,      /* J =  1 */
(PID.TID 0000.0001)                 3.741746190559281E+04,      /* J =  2 */
(PID.TID 0000.0001)                 3.786390067184393E+04,      /* J =  3 */
(PID.TID 0000.0001)                 3.830858172733455E+04,      /* J =  4 */
(PID.TID 0000.0001)                 3.875140319955796E+04,      /* J =  5 */
(PID.TID 0000.0001)                 3.919226424948571E+04,      /* J =  6 */
(PID.TID 0000.0001)                 3.963106512715793E+04,      /* J =  7 */
(PID.TID 0000.0001)                 4.006770719102380E+04,      /* J =  8 */
(PID.TID 0000.0001)                 4.050209290047463E+04,      /* J =  9 */
(PID.TID 0000.0001)                 4.093412578484027E+04,      /* J = 10 */
(PID.TID 0000.0001)                 4.136371039407872E+04,      /* J = 11 */
(PID.TID 0000.0001)                 4.179075223673176E+04,      /* J = 12 */
(PID.TID 0000.0001)                 4.221515770920290E+04,      /* J = 13 */
(PID.TID 0000.0001)                 4.263683401805614E+04,      /* J = 14 */
(PID.TID 0000.0001)                 4.305568910412182E+04,      /* J = 15 */
(PID.TID 0000.0001)                 4.347163156363047E+04,      /* J = 16 */
(PID.TID 0000.0001)                 4.388457057225752E+04,      /* J = 17 */
(PID.TID 0000.0001)                 4.429441581934092E+04,      /* J = 18 */
(PID.TID 0000.0001)                 4.470107744374240E+04,      /* J = 19 */
(PID.TID 0000.0001)                 4.510446597891348E+04,      /* J = 20 */
(PID.TID 0000.0001)                 4.550449230395439E+04,      /* J = 21 */
(PID.TID 0000.0001)                 4.590106761654920E+04,      /* J = 22 */
(PID.TID 0000.0001)                 4.629410339849156E+04,      /* J = 23 */
(PID.TID 0000.0001)                 4.668351141269982E+04,      /* J = 24 */
(PID.TID 0000.0001)                 4.706920371856177E+04,      /* J = 25 */
(PID.TID 0000.0001)                 4.745109271730031E+04,      /* J = 26 */
(PID.TID 0000.0001)                 4.782909128417812E+04,      /* J = 27 */
(PID.TID 0000.0001)                 4.820311314005602E+04,      /* J = 28 */
(PID.TID 0000.0001)                 4.857307420014453E+04,      /* J = 29 */
(PID.TID 0000.0001)                 4.893889490827491E+04       /* J = 30 */
(PID.TID 0000.0001)     ;
(PID.TID 0000.0001) dxC =  /* dxC(:,1,:,1) ( units: m ) */
(PID.TID 0000.0001)                 2.071567651695695E+04,      /* I =  1 */
(PID.TID 0000.0001)                 2.070751892245589E+04,      /* I =  2 */
(PID.TID 0000.0001)                 2.069992855779408E+04,      /* I =  3 */
(PID.TID 0000.0001)                 2.069292717562287E+04,      /* I =  4 */
(PID.TID 0000.0001)                 2.068653446229046E+04,      /* I =  5 */
(PID.TID 0000.0001)                 2.068076808552306E+04,      /* I =  6 */
(PID.TID 0000.0001)                 2.067564373903614E+04,      /* I =  7 */
(PID.TID 0000.0001)                 2.067117518190149E+04,      /* I =  8 */
(PID.TID 0000.0001)                 2.066737427558298E+04,      /* I =  9 */
(PID.TID 0000.0001)                 2.066425102685107E+04,      /* I = 10 */
(PID.TID 0000.0001)                 2.066181364132844E+04,      /* I = 11 */
(PID.TID 0000.0001)                 2.066006869803818E+04,      /* I = 12 */
(PID.TID 0000.0001)                 2.065902266229015E+04,      /* I = 13 */
(PID.TID 0000.0001)                 2.065863826775786E+04,      /* I = 14 */
(PID.TID 0000.0001)                 2.065902266229016E+04,      /* I = 15 */
(PID.TID 0000.0001)                 2.066006869803813E+04,      /* I = 16 */
(PID.TID 0000.0001)                 2.066181364132850E+04,      /* I = 17 */
(PID.TID 0000.0001)                 2.066425102685108E+04,      /* I = 18 */
(PID.TID 0000.0001)                 2.066737427558298E+04,      /* I = 19 */
(PID.TID 0000.0001)                 2.067117518190149E+04,      /* I = 20 */
(PID.TID 0000.0001)                 2.067564373903615E+04,      /* I = 21 */
(PID.TID 0000.0001)                 2.068076808552304E+04,      /* I = 22 */
(PID.TID 0000.0001)                 2.068653446229045E+04,      /* I = 23 */
(PID.TID 0000.0001)                 2.069292717562287E+04,      /* I = 24 */
(PID.TID 0000.0001)                 2.069992855779413E+04,      /* I = 25 */
(PID.TID 0000.0001)                 2.070751892245584E+04,      /* I = 26 */
(PID.TID 0000.0001)                 2.071567651695691E+04,      /* I = 27 */
(PID.TID 0000.0001)                 2.072437747324421E+04,      /* I = 28 */
(PID.TID 0000.0001)                 2.073359574551806E+04,      /* I = 29 */
(PID.TID 0000.0001)                 2.074330305575613E+04       /* I = 30 */
(PID.TID 0000.0001)     ;
(PID.TID 0000.0001) dxC =  /* dxC(1,:,1,:) ( units: m ) */
(PID.TID 0000.0001)                 2.071567651695695E+04,      /* J =  1 */
(PID.TID 0000.0001)                 2.109563672137949E+04,      /* J =  2 */
(PID.TID 0000.0001)                 2.149002149497106E+04,      /* J =  3 */
(PID.TID 0000.0001)                 2.189882927482529E+04,      /* J =  4 */
(PID.TID 0000.0001)                 2.232205646389843E+04,      /* J =  5 */
(PID.TID 0000.0001)                 2.275969855854128E+04,      /* J =  6 */
(PID.TID 0000.0001)                 2.321175117362029E+04,      /* J =  7 */
(PID.TID 0000.0001)                 2.367821096276529E+04,      /* J =  8 */
(PID.TID 0000.0001)                 2.415907643347346E+04,      /* J =  9 */
(PID.TID 0000.0001)                 2.465434865814045E+04,      /* J = 10 */
(PID.TID 0000.0001)                 2.516403188365780E+04,      /* J = 11 */
(PID.TID 0000.0001)                 2.568813404310613E+04,      /* J = 12 */
(PID.TID 0000.0001)                 2.622666717399572E+04,      /* J = 13 */
(PID.TID 0000.0001)                 2.677964774799169E+04,      /* J = 14 */
(PID.TID 0000.0001)                 2.734709691757753E+04,      /* J = 15 */
(PID.TID 0000.0001)                 2.792904068517491E+04,      /* J = 16 */
(PID.TID 0000.0001)                 2.852551000032625E+04,      /* J = 17 */
(PID.TID 0000.0001)                 2.913654079081990E+04,      /* J = 18 */
(PID.TID 0000.0001)                 2.976217393306023E+04,      /* J = 19 */
(PID.TID 0000.0001)                 3.040245516699173E+04,      /* J = 20 */
(PID.TID 0000.0001)                 3.105743496108396E+04,      /* J = 21 */
(PID.TID 0000.0001)                 3.172716833208323E+04,      /* J = 22 */
(PID.TID 0000.0001)                 3.241171462422546E+04,      /* J = 23 */
(PID.TID 0000.0001)                 3.311113725244482E+04,      /* J = 24 */
(PID.TID 0000.0001)                 3.382550341391024E+04,      /* J = 25 */
(PID.TID 0000.0001)                 3.455488377140061E+04,      /* J = 26 */
(PID.TID 0000.0001)                 3.529935211332738E+04,      /* J = 27 */
(PID.TID 0000.0001)                 3.605898499520765E+04,      /* J = 28 */
(PID.TID 0000.0001)                 3.683386137397906E+04,      /* J = 29 */
(PID.TID 0000.0001)                 3.762406228407349E+04       /* J = 30 */
(PID.TID 0000.0001)     ;
(PID.TID 0000.0001) dyC =  /* dyC(:,1,:,1) ( units: m ) */
(PID.TID 0000.0001)                 3.678277710845771E+04,      /* I =  1 */
(PID.TID 0000.0001)                 3.685438685866048E+04,      /* I =  2 */
(PID.TID 0000.0001)                 3.692002588020908E+04,      /* I =  3 */
(PID.TID 0000.0001)                 3.697969453541307E+04,      /* I =  4 */
(PID.TID 0000.0001)                 3.703339337607873E+04,      /* I =  5 */
(PID.TID 0000.0001)                 3.708112307814123E+04,      /* I =  6 */
(PID.TID 0000.0001)                 3.712288438364359E+04,      /* I =  7 */
(PID.TID 0000.0001)                 3.715867804995441E+04,      /* I =  8 */
(PID.TID 0000.0001)                 3.718850480589901E+04,      /* I =  9 */
(PID.TID 0000.0001)                 3.721236531452968E+04,      /* I = 10 */
(PID.TID 0000.0001)                 3.723026014246432E+04,      /* I = 11 */
(PID.TID 0000.0001)                 3.724218973548726E+04,      /* I = 12 */
(PID.TID 0000.0001)     2 @  3.724815440020872E+04,             /* I = 13: 14 */
(PID.TID 0000.0001)                 3.724218973548726E+04,      /* I = 15 */
(PID.TID 0000.0001)                 3.723026014246432E+04,      /* I = 16 */
(PID.TID 0000.0001)                 3.721236531452968E+04,      /* I = 17 */
(PID.TID 0000.0001)                 3.718850480589901E+04,      /* I = 18 */
(PID.TID 0000.0001)                 3.715867804995440E+04,      /* I = 19 */
(PID.TID 0000.0001)                 3.712288438364359E+04,      /* I = 20 */
(PID.TID 0000.0001)                 3.708112307814122E+04,      /* I = 21 */
(PID.TID 0000.0001)                 3.703339337607873E+04,      /* I = 22 */
(PID.TID 0000.0001)                 3.697969453541307E+04,      /* I = 23 */
(PID.TID 0000.0001)                 3.692002588020908E+04,      /* I = 24 */
(PID.TID 0000.0001)                 3.685438685866047E+04,      /* I = 25 */
(PID.TID 0000.0001)                 3.678277710845772E+04,      /* I = 26 */
(PID.TID 0000.0001)                 3.670519653011381E+04,      /* I = 27 */
(PID.TID 0000.0001)                 3.662164536844059E+04,      /* I = 28 */
(PID.TID 0000.0001)                 3.653212430257830E+04,      /* I = 29 */
(PID.TID 0000.0001)                 3.643663454523116E+04       /* I = 30 */
(PID.TID 0000.0001)     ;
(PID.TID 0000.0001) dyC =  /* dyC(1,:,1,:) ( units: m ) */
(PID.TID 0000.0001)                 3.678277710845771E+04,      /* J =  1 */
(PID.TID 0000.0001)                 3.723168694115569E+04,      /* J =  2 */
(PID.TID 0000.0001)                 3.767901897410101E+04,      /* J =  3 */
(PID.TID 0000.0001)                 3.812467364657602E+04,      /* J =  4 */
(PID.TID 0000.0001)                 3.856855210935249E+04,      /* J =  5 */
(PID.TID 0000.0001)                 3.901055633269680E+04,      /* J =  6 */
(PID.TID 0000.0001)                 3.945058917911859E+04,      /* J =  7 */
(PID.TID 0000.0001)                 3.988855443472220E+04,      /* J =  8 */
(PID.TID 0000.0001)                 4.032435681898361E+04,      /* J =  9 */
(PID.TID 0000.0001)                 4.075790196435841E+04,      /* J = 10 */
(PID.TID 0000.0001)                 4.118909638222960E+04,      /* J = 11 */
(PID.TID 0000.0001)                 4.161784741043697E+04,      /* J = 12 */
(PID.TID 0000.0001)                 4.204406315499045E+04,      /* J = 13 */
(PID.TID 0000.0001)                 4.246765242091182E+04,      /* J = 14 */
(PID.TID 0000.0001)                 4.288852464034393E+04,      /* J = 15 */
(PID.TID 0000.0001)                 4.330658981118225E+04,      /* J = 16 */
(PID.TID 0000.0001)                 4.372175841431943E+04,      /* J = 17 */
(PID.TID 0000.0001)                 4.413394136293020E+04,      /* J = 18 */
(PID.TID 0000.0001)                 4.454304993440304E+04,      /* J = 19 */
(PID.TID 0000.0001)                 4.494899572325061E+04,      /* J = 20 */
(PID.TID 0000.0001)                 4.535169059286820E+04,      /* J = 21 */
(PID.TID 0000.0001)                 4.575104664412256E+04,      /* J = 22 */
(PID.TID 0000.0001)                 4.614697618947234E+04,      /* J = 23 */
(PID.TID 0000.0001)                 4.653939173844085E+04,      /* J = 24 */
(PID.TID 0000.0001)                 4.692820600744408E+04,      /* J = 25 */
(PID.TID 0000.0001)                 4.731333194957835E+04,      /* J = 26 */
(PID.TID 0000.0001)                 4.769468283927006E+04,      /* J = 27 */
(PID.TID 0000.0001)                 4.807217249390641E+04,      /* J = 28 */
(PID.TID 0000.0001)                 4.844571593362943E+04,      /* J = 29 */
(PID.TID 0000.0001)                 4.881523285497380E+04       /* J = 30 */
(PID.TID 0000.0001)     ;
(PID.TID 0000.0001) dxV =  /* dxV(:,1,:,1) ( units: m ) */
(PID.TID 0000.0001)                 2.053110526075532E+04,      /* I =  1 */
(PID.TID 0000.0001)                 2.052326088418283E+04,      /* I =  2 */
(PID.TID 0000.0001)                 2.051595672244828E+04,      /* I =  3 */
(PID.TID 0000.0001)                 2.050921502797681E+04,      /* I =  4 */
(PID.TID 0000.0001)                 2.050305593886370E+04,      /* I =  5 */
(PID.TID 0000.0001)                 2.049749752783181E+04,      /* I =  6 */
(PID.TID 0000.0001)                 2.049255584793284E+04,      /* I =  7 */
(PID.TID 0000.0001)                 2.048824497292525E+04,      /* I =  8 */
(PID.TID 0000.0001)                 2.048457703515834E+04,      /* I =  9 */
(PID.TID 0000.0001)                 2.048156226915133E+04,      /* I = 10 */
(PID.TID 0000.0001)                 2.047920906551970E+04,      /* I = 11 */
(PID.TID 0000.0001)                 2.047752414469434E+04,      /* I = 12 */
(PID.TID 0000.0001)                 2.047651405696554E+04,      /* I = 13 */
(PID.TID 0000.0001)                 2.047614194664622E+04,      /* I = 14 */
(PID.TID 0000.0001)                 2.047651405696559E+04,      /* I = 15 */
(PID.TID 0000.0001)                 2.047752414469430E+04,      /* I = 16 */
(PID.TID 0000.0001)                 2.047920906551971E+04,      /* I = 17 */
(PID.TID 0000.0001)                 2.048156226915138E+04,      /* I = 18 */
(PID.TID 0000.0001)                 2.048457703515829E+04,      /* I = 19 */
(PID.TID 0000.0001)                 2.048824497292535E+04,      /* I = 20 */
(PID.TID 0000.0001)                 2.049255584793274E+04,      /* I = 21 */
(PID.TID 0000.0001)                 2.049749752783187E+04,      /* I = 22 */
(PID.TID 0000.0001)                 2.050305593886373E+04,      /* I = 23 */
(PID.TID 0000.0001)                 2.050921502797675E+04,      /* I = 24 */
(PID.TID 0000.0001)                 2.051595672244826E+04,      /* I = 25 */
(PID.TID 0000.0001)                 2.052326088418290E+04,      /* I = 26 */
(PID.TID 0000.0001)                 2.053110526075532E+04,      /* I = 27 */
(PID.TID 0000.0001)                 2.053946543494557E+04,      /* I = 28 */
(PID.TID 0000.0001)                 2.054831476098181E+04,      /* I = 29 */
(PID.TID 0000.0001)                 2.055762430839241E+04       /* I = 30 */
(PID.TID 0000.0001)     ;
(PID.TID 0000.0001) dxV =  /* dxV(1,:,1,:) ( units: m ) */
(PID.TID 0000.0001)                 2.053110526075532E+04,      /* J =  1 */
(PID.TID 0000.0001)                 2.090385356266093E+04,      /* J =  2 */
(PID.TID 0000.0001)                 2.129102607314009E+04,      /* J =  3 */
(PID.TID 0000.0001)                 2.169262269996662E+04,      /* J =  4 */
(PID.TID 0000.0001)                 2.210864071595607E+04,      /* J =  5 */
(PID.TID 0000.0001)                 2.253907593617405E+04,      /* J =  6 */
(PID.TID 0000.0001)                 2.298392379458377E+04,      /* J =  7 */
(PID.TID 0000.0001)                 2.344318031700113E+04,      /* J =  8 */
(PID.TID 0000.0001)                 2.391684298864163E+04,      /* J =  9 */
(PID.TID 0000.0001)                 2.440491151699962E+04,      /* J = 10 */
(PID.TID 0000.0001)                 2.490738849171163E+04,      /* J = 11 */
(PID.TID 0000.0001)                 2.542427994477456E+04,      /* J = 12 */
(PID.TID 0000.0001)                 2.595559581485789E+04,      /* J = 13 */
(PID.TID 0000.0001)                 2.650135032062733E+04,      /* J = 14 */
(PID.TID 0000.0001)                 2.706156224833991E+04,      /* J = 15 */
(PID.TID 0000.0001)                 2.763625515890197E+04,      /* J = 16 */
(PID.TID 0000.0001)                 2.822545752042790E+04,      /* J = 17 */
(PID.TID 0000.0001)                 2.882920277162976E+04,      /* J = 18 */
(PID.TID 0000.0001)                 2.944752932187136E+04,      /* J = 19 */
(PID.TID 0000.0001)                 3.008048049319959E+04,      /* J = 20 */
(PID.TID 0000.0001)                 3.072810440966728E+04,      /* J = 21 */
(PID.TID 0000.0001)                 3.139045383903842E+04,      /* J = 22 */
(PID.TID 0000.0001)                 3.206758599174654E+04,      /* J = 23 */
(PID.TID 0000.0001)                 3.275956228156967E+04,      /* J = 24 */
(PID.TID 0000.0001)                 3.346644805244220E+04,      /* J = 25 */
(PID.TID 0000.0001)                 3.418831227550044E+04,      /* J = 26 */
(PID.TID 0000.0001)                 3.492522722017510E+04,      /* J = 27 */
(PID.TID 0000.0001)                 3.567726810399632E+04,      /* J = 28 */
(PID.TID 0000.0001)                 3.644451272859776E+04,      /* J = 29 */
(PID.TID 0000.0001)                 3.722704112152557E+04       /* J = 30 */
(PID.TID 0000.0001)     ;
(PID.TID 0000.0001) dyU =  /* dyU(:,1,:,1) ( units: m ) */
(PID.TID 0000.0001)                 3.674473316658630E+04,      /* I =  1 */
(PID.TID 0000.0001)                 3.681932833792822E+04,      /* I =  2 */
(PID.TID 0000.0001)                 3.688795269313092E+04,      /* I =  3 */
(PID.TID 0000.0001)                 3.695060647275718E+04,      /* I =  4 */
(PID.TID 0000.0001)                 3.700729014250917E+04,      /* I =  5 */
(PID.TID 0000.0001)                 3.705800432398131E+04,      /* I =  6 */
(PID.TID 0000.0001)                 3.710274973294064E+04,      /* I =  7 */
(PID.TID 0000.0001)                 3.714152712500728E+04,      /* I =  8 */
(PID.TID 0000.0001)                 3.717433724834998E+04,      /* I =  9 */
(PID.TID 0000.0001)                 3.720118080314009E+04,      /* I = 10 */
(PID.TID 0000.0001)                 3.722205840764935E+04,      /* I = 11 */
(PID.TID 0000.0001)                 3.723697057073888E+04,      /* I = 12 */
(PID.TID 0000.0001)                 3.724591767054543E+04,      /* I = 13 */
(PID.TID 0000.0001)                 3.724891083990022E+04,      /* I = 14 */
(PID.TID 0000.0001)                 3.724591767054542E+04,      /* I = 15 */
(PID.TID 0000.0001)                 3.723697057073889E+04,      /* I = 16 */
(PID.TID 0000.0001)                 3.722205840764935E+04,      /* I = 17 */
(PID.TID 0000.0001)                 3.720118080314008E+04,      /* I = 18 */
(PID.TID 0000.0001)                 3.717433724834998E+04,      /* I = 19 */
(PID.TID 0000.0001)                 3.714152712500728E+04,      /* I = 20 */
(PID.TID 0000.0001)                 3.710274973294063E+04,      /* I = 21 */
(PID.TID 0000.0001)                 3.705800432398131E+04,      /* I = 22 */
(PID.TID 0000.0001)                 3.700729014250917E+04,      /* I = 23 */
(PID.TID 0000.0001)                 3.695060647275716E+04,      /* I = 24 */
(PID.TID 0000.0001)                 3.688795269313094E+04,      /* I = 25 */
(PID.TID 0000.0001)                 3.681932833792821E+04,      /* I = 26 */
(PID.TID 0000.0001)                 3.674473316658630E+04,      /* I = 27 */
(PID.TID 0000.0001)                 3.666416724104654E+04,      /* I = 28 */
(PID.TID 0000.0001)                 3.657763101146962E+04,      /* I = 29 */
(PID.TID 0000.0001)                 3.648512541079492E+04       /* I = 30 */
(PID.TID 0000.0001)     ;
(PID.TID 0000.0001) dyU =  /* dyU(1,:,1,:) ( units: m ) */
(PID.TID 0000.0001)                 3.674473316658630E+04,      /* J =  1 */
(PID.TID 0000.0001)                 3.719361547538896E+04,      /* J =  2 */
(PID.TID 0000.0001)                 3.764089459751266E+04,      /* J =  3 */
(PID.TID 0000.0001)                 3.808646730382765E+04,      /* J =  4 */
(PID.TID 0000.0001)                 3.853023123895088E+04,      /* J =  5 */
(PID.TID 0000.0001)                 3.897208503739593E+04,      /* J =  6 */
(PID.TID 0000.0001)                 3.941192840112046E+04,      /* J =  7 */
(PID.TID 0000.0001)                 3.984966213263487E+04,      /* J =  8 */
(PID.TID 0000.0001)                 4.028518814419441E+04,      /* J =  9 */
(PID.TID 0000.0001)                 4.071840943468107E+04,      /* J = 10 */
(PID.TID 0000.0001)                 4.114923005120406E+04,      /* J = 11 */
(PID.TID 0000.0001)                 4.157755503103340E+04,      /* J = 12 */
(PID.TID 0000.0001)                 4.200329033666767E+04,      /* J = 13 */
(PID.TID 0000.0001)                 4.242634277960793E+04,      /* J = 14 */
(PID.TID 0000.0001)                 4.284661994092684E+04,      /* J = 15 */
(PID.TID 0000.0001)                 4.326403010205203E+04,      /* J = 16 */
(PID.TID 0000.0001)                 4.367848215462093E+04,      /* J = 17 */
(PID.TID 0000.0001)                 4.408988554208750E+04,      /* J = 18 */
(PID.TID 0000.0001)                 4.449815018464295E+04,      /* J = 19 */
(PID.TID 0000.0001)                 4.490318642518511E+04,      /* J = 20 */
(PID.TID 0000.0001)                 4.530490497491705E+04,      /* J = 21 */
(PID.TID 0000.0001)                 4.570321687598708E+04,      /* J = 22 */
(PID.TID 0000.0001)                 4.609803347024994E+04,      /* J = 23 */
(PID.TID 0000.0001)                 4.648926637992392E+04,      /* J = 24 */
(PID.TID 0000.0001)                 4.687682751321772E+04,      /* J = 25 */
(PID.TID 0000.0001)                 4.726062909013533E+04,      /* J = 26 */
(PID.TID 0000.0001)                 4.764058372401170E+04,      /* J = 27 */
(PID.TID 0000.0001)                 4.801660464021451E+04,      /* J = 28 */
(PID.TID 0000.0001)                 4.838860633247659E+04,      /* J = 29 */
(PID.TID 0000.0001)                 4.875650803021456E+04       /* J = 30 */
(PID.TID 0000.0001)     ;
(PID.TID 0000.0001) rA  =  /* rA (:,1,:,1) ( units: m^2 ) */
(PID.TID 0000.0001)                 7.665113621396177E+08,      /* I =  1 */
(PID.TID 0000.0001)                 7.677029697239892E+08,      /* I =  2 */
(PID.TID 0000.0001)                 7.687913877455838E+08,      /* I =  3 */
(PID.TID 0000.0001)                 7.697775979751738E+08,      /* I =  4 */
(PID.TID 0000.0001)                 7.706625466485583E+08,      /* I =  5 */
(PID.TID 0000.0001)                 7.714470546020026E+08,      /* I =  6 */
(PID.TID 0000.0001)                 7.721318586456149E+08,      /* I =  7 */
(PID.TID 0000.0001)                 7.727176271684608E+08,      /* I =  8 */
(PID.TID 0000.0001)                 7.732049082776864E+08,      /* I =  9 */
(PID.TID 0000.0001)                 7.735941717305043E+08,      /* I = 10 */
(PID.TID 0000.0001)                 7.738858051500469E+08,      /* I = 11 */
(PID.TID 0000.0001)                 7.740801100790358E+08,      /* I = 12 */
(PID.TID 0000.0001)                 7.741766386182301E+08,      /* I = 13 */
(PID.TID 0000.0001)                 7.741766369784317E+08,      /* I = 14 */
(PID.TID 0000.0001)                 7.740801094843833E+08,      /* I = 15 */
(PID.TID 0000.0001)                 7.738858062852919E+08,      /* I = 16 */
(PID.TID 0000.0001)                 7.735941726495122E+08,      /* I = 17 */
(PID.TID 0000.0001)                 7.732049061873938E+08,      /* I = 18 */
(PID.TID 0000.0001)                 7.727176277450933E+08,      /* I = 19 */
(PID.TID 0000.0001)                 7.721318658895597E+08,      /* I = 20 */
(PID.TID 0000.0001)                 7.714470531424019E+08,      /* I = 21 */
(PID.TID 0000.0001)                 7.706625470810328E+08,      /* I = 22 */
(PID.TID 0000.0001)                 7.697776024260553E+08,      /* I = 23 */
(PID.TID 0000.0001)                 7.687913844659867E+08,      /* I = 24 */
(PID.TID 0000.0001)                 7.677029712196296E+08,      /* I = 25 */
(PID.TID 0000.0001)                 7.665113646083255E+08,      /* I = 26 */
(PID.TID 0000.0001)                 7.652154604170089E+08,      /* I = 27 */
(PID.TID 0000.0001)                 7.638140926048064E+08,      /* I = 28 */
(PID.TID 0000.0001)                 7.623059927966076E+08,      /* I = 29 */
(PID.TID 0000.0001)                 7.606898330980235E+08       /* I = 30 */
(PID.TID 0000.0001)     ;
(PID.TID 0000.0001) rA  =  /* rA (1,:,1,:) ( units: m^2 ) */
(PID.TID 0000.0001)                 7.665113621396177E+08,      /* J =  1 */
(PID.TID 0000.0001)                 7.900134359449342E+08,      /* J =  2 */
(PID.TID 0000.0001)                 8.143679155417176E+08,      /* J =  3 */
(PID.TID 0000.0001)                 8.395900636155584E+08,      /* J =  4 */
(PID.TID 0000.0001)                 8.656947784023314E+08,      /* J =  5 */
(PID.TID 0000.0001)                 8.926966010402582E+08,      /* J =  6 */
(PID.TID 0000.0001)                 9.206097737377057E+08,      /* J =  7 */
(PID.TID 0000.0001)                 9.494482582794807E+08,      /* J =  8 */
(PID.TID 0000.0001)                 9.792257431806778E+08,      /* J =  9 */
(PID.TID 0000.0001)                 1.009955679131553E+09,      /* J = 10 */
(PID.TID 0000.0001)                 1.041651296044221E+09,      /* J = 11 */
(PID.TID 0000.0001)                 1.074325614369065E+09,      /* J = 12 */
(PID.TID 0000.0001)                 1.107991467925779E+09,      /* J = 13 */
(PID.TID 0000.0001)                 1.142661498173082E+09,      /* J = 14 */
(PID.TID 0000.0001)                 1.178348167164929E+09,      /* J = 15 */
(PID.TID 0000.0001)                 1.215063762235644E+09,      /* J = 16 */
(PID.TID 0000.0001)                 1.252820414073754E+09,      /* J = 17 */
(PID.TID 0000.0001)                 1.291630043617734E+09,      /* J = 18 */
(PID.TID 0000.0001)                 1.331504416619858E+09,      /* J = 19 */
(PID.TID 0000.0001)                 1.372455096362339E+09,      /* J = 20 */
(PID.TID 0000.0001)                 1.414493440828222E+09,      /* J = 21 */
(PID.TID 0000.0001)                 1.457630613639386E+09,      /* J = 22 */
(PID.TID 0000.0001)                 1.501877517761831E+09,      /* J = 23 */
(PID.TID 0000.0001)                 1.547244834049951E+09,      /* J = 24 */
(PID.TID 0000.0001)                 1.593742963439136E+09,      /* J = 25 */
(PID.TID 0000.0001)                 1.641382020566774E+09,      /* J = 26 */
(PID.TID 0000.0001)                 1.690171807481416E+09,      /* J = 27 */
(PID.TID 0000.0001)                 1.740121820832662E+09,      /* J = 28 */
(PID.TID 0000.0001)                 1.791241246411172E+09,      /* J = 29 */
(PID.TID 0000.0001)                 1.843539059771026E+09       /* J = 30 */
(PID.TID 0000.0001)     ;
(PID.TID 0000.0001) rAw =  /* rAw(:,1,:,1) ( units: m^2 ) */
(PID.TID 0000.0001)                 7.658765213139513E+08,      /* I =  1 */
(PID.TID 0000.0001)                 7.671201328724998E+08,      /* I =  2 */
(PID.TID 0000.0001)                 7.682600121490355E+08,      /* I =  3 */
(PID.TID 0000.0001)                 7.692972101823016E+08,      /* I =  4 */
(PID.TID 0000.0001)                 7.702326756407654E+08,      /* I =  5 */
(PID.TID 0000.0001)                 7.710673044850856E+08,      /* I =  6 */
(PID.TID 0000.0001)                 7.718018764844863E+08,      /* I =  7 */
(PID.TID 0000.0001)                 7.724370884091616E+08,      /* I =  8 */
(PID.TID 0000.0001)                 7.729735468223690E+08,      /* I =  9 */
(PID.TID 0000.0001)                 7.734117650170708E+08,      /* I = 10 */
(PID.TID 0000.0001)                 7.737521718456172E+08,      /* I = 11 */
(PID.TID 0000.0001)                 7.739951054308500E+08,      /* I = 12 */
(PID.TID 0000.0001)                 7.741408739107244E+08,      /* I = 13 */
(PID.TID 0000.0001)                 7.741880730050739E+08,      /* I = 14 */
(PID.TID 0000.0001)                 7.741408710636016E+08,      /* I = 15 */
(PID.TID 0000.0001)                 7.739951071427275E+08,      /* I = 16 */
(PID.TID 0000.0001)                 7.737521718095777E+08,      /* I = 17 */
(PID.TID 0000.0001)                 7.734117675938969E+08,      /* I = 18 */
(PID.TID 0000.0001)                 7.729735457051437E+08,      /* I = 19 */
(PID.TID 0000.0001)                 7.724370889497546E+08,      /* I = 20 */
(PID.TID 0000.0001)                 7.718018793856685E+08,      /* I = 21 */
(PID.TID 0000.0001)                 7.710673053320146E+08,      /* I = 22 */
(PID.TID 0000.0001)                 7.702326816053071E+08,      /* I = 23 */
(PID.TID 0000.0001)                 7.692972065242898E+08,      /* I = 24 */
(PID.TID 0000.0001)                 7.682600115363635E+08,      /* I = 25 */
(PID.TID 0000.0001)                 7.671201363863536E+08,      /* I = 26 */
(PID.TID 0000.0001)                 7.658765213499908E+08,      /* I = 27 */
(PID.TID 0000.0001)                 7.645280345158333E+08,      /* I = 28 */
(PID.TID 0000.0001)                 7.630734673343852E+08,      /* I = 29 */
(PID.TID 0000.0001)                 7.615115062009304E+08       /* I = 30 */
(PID.TID 0000.0001)     ;
(PID.TID 0000.0001) rAw =  /* rAw(1,:,1,:) ( units: m^2 ) */
(PID.TID 0000.0001)                 7.658765213139513E+08,      /* J =  1 */
(PID.TID 0000.0001)                 7.893768970448780E+08,      /* J =  2 */
(PID.TID 0000.0001)                 8.137283914516071E+08,      /* J =  3 */
(PID.TID 0000.0001)                 8.389460603348250E+08,      /* J =  4 */
(PID.TID 0000.0001)                 8.650445848102766E+08,      /* J =  5 */
(PID.TID 0000.0001)                 8.920382782103341E+08,      /* J =  6 */
(PID.TID 0000.0001)                 9.199411445401106E+08,      /* J =  7 */
(PID.TID 0000.0001)                 9.487668893433769E+08,      /* J =  8 */
(PID.TID 0000.0001)                 9.785289545527842E+08,      /* J =  9 */
(PID.TID 0000.0001)                 1.009240515336406E+09,      /* J = 10 */
(PID.TID 0000.0001)                 1.040914522930714E+09,      /* J = 11 */
(PID.TID 0000.0001)                 1.073563715488477E+09,      /* J = 12 */
(PID.TID 0000.0001)                 1.107200612276400E+09,      /* J = 13 */
(PID.TID 0000.0001)                 1.141837554111466E+09,      /* J = 14 */
(PID.TID 0000.0001)                 1.177486672294872E+09,      /* J = 15 */
(PID.TID 0000.0001)                 1.214159933192917E+09,      /* J = 16 */
(PID.TID 0000.0001)                 1.251869095602249E+09,      /* J = 17 */
(PID.TID 0000.0001)                 1.290625742284441E+09,      /* J = 18 */
(PID.TID 0000.0001)                 1.330441258846839E+09,      /* J = 19 */
(PID.TID 0000.0001)                 1.371326820624166E+09,      /* J = 20 */
(PID.TID 0000.0001)                 1.413293399742275E+09,      /* J = 21 */
(PID.TID 0000.0001)                 1.456351737475827E+09,      /* J = 22 */
(PID.TID 0000.0001)                 1.500512320083793E+09,      /* J = 23 */
(PID.TID 0000.0001)                 1.545785394792978E+09,      /* J = 24 */
(PID.TID 0000.0001)                 1.592180902277974E+09,      /* J = 25 */
(PID.TID 0000.0001)                 1.639708504465653E+09,      /* J = 26 */
(PID.TID 0000.0001)                 1.688377519501836E+09,      /* J = 27 */
(PID.TID 0000.0001)                 1.738196956421325E+09,      /* J = 28 */
(PID.TID 0000.0001)                 1.789175499722981E+09,      /* J = 29 */
(PID.TID 0000.0001)                 1.841321602441802E+09       /* J = 30 */
(PID.TID 0000.0001)     ;
(PID.TID 0000.0001) rAs =  /* rAs(:,1,:,1) ( units: m^2 ) */
(PID.TID 0000.0001)                 7.550751050606852E+08,      /* I =  1 */
(PID.TID 0000.0001)                 7.562658447772087E+08,      /* I =  2 */
(PID.TID 0000.0001)                 7.573533970032284E+08,      /* I =  3 */
(PID.TID 0000.0001)                 7.583387692957978E+08,      /* I =  4 */
(PID.TID 0000.0001)                 7.592229121974397E+08,      /* I =  5 */
(PID.TID 0000.0001)                 7.600066705467438E+08,      /* I =  6 */
(PID.TID 0000.0001)                 7.606907923080522E+08,      /* I =  7 */
(PID.TID 0000.0001)                 7.612759532224941E+08,      /* I =  8 */
(PID.TID 0000.0001)                 7.617627129118443E+08,      /* I =  9 */
(PID.TID 0000.0001)                 7.621515550445726E+08,      /* I = 10 */
(PID.TID 0000.0001)                 7.624428588466020E+08,      /* I = 11 */
(PID.TID 0000.0001)                 7.626369483673384E+08,      /* I = 12 */
(PID.TID 0000.0001)                 7.627333738515058E+08,      /* I = 13 */
(PID.TID 0000.0001)                 7.627333728604188E+08,      /* I = 14 */
(PID.TID 0000.0001)                 7.626369508901051E+08,      /* I = 15 */
(PID.TID 0000.0001)                 7.624428655319341E+08,      /* I = 16 */
(PID.TID 0000.0001)                 7.621515526659639E+08,      /* I = 17 */
(PID.TID 0000.0001)                 7.617627197953936E+08,      /* I = 18 */
(PID.TID 0000.0001)                 7.612759510961621E+08,      /* I = 19 */
(PID.TID 0000.0001)                 7.606907969030919E+08,      /* I = 20 */
(PID.TID 0000.0001)                 7.600066694295187E+08,      /* I = 21 */
(PID.TID 0000.0001)                 7.592229103594238E+08,      /* I = 22 */
(PID.TID 0000.0001)                 7.583387684488690E+08,      /* I = 23 */
(PID.TID 0000.0001)                 7.573533915792797E+08,      /* I = 24 */
(PID.TID 0000.0001)                 7.562658465071062E+08,      /* I = 25 */
(PID.TID 0000.0001)                 7.550751079979067E+08,      /* I = 26 */
(PID.TID 0000.0001)                 7.537800585200102E+08,      /* I = 27 */
(PID.TID 0000.0001)                 7.523795064624999E+08,      /* I = 28 */
(PID.TID 0000.0001)                 7.508721675027735E+08,      /* I = 29 */
(PID.TID 0000.0001)                 7.492566800675046E+08       /* I = 30 */
(PID.TID 0000.0001)     ;
(PID.TID 0000.0001) rAs =  /* rAs(1,:,1,:) ( units: m^2 ) */
(PID.TID 0000.0001)                 7.550751050606852E+08,      /* J =  1 */
(PID.TID 0000.0001)                 7.781568160584769E+08,      /* J =  2 */
(PID.TID 0000.0001)                 8.020831616625657E+08,      /* J =  3 */
(PID.TID 0000.0001)                 8.268695937660589E+08,      /* J =  4 */
(PID.TID 0000.0001)                 8.525311818286231E+08,      /* J =  5 */
(PID.TID 0000.0001)                 8.790826547724357E+08,      /* J =  6 */
(PID.TID 0000.0001)                 9.065383887828039E+08,      /* J =  7 */
(PID.TID 0000.0001)                 9.349124897125442E+08,      /* J =  8 */
(PID.TID 0000.0001)                 9.642187819277472E+08,      /* J =  9 */
(PID.TID 0000.0001)                 9.944708240750725E+08,      /* J = 10 */
(PID.TID 0000.0001)                 1.025681954725808E+09,      /* J = 11 */
(PID.TID 0000.0001)                 1.057865313008499E+09,      /* J = 12 */
(PID.TID 0000.0001)                 1.091033805921100E+09,      /* J = 13 */
(PID.TID 0000.0001)                 1.125200178247652E+09,      /* J = 14 */
(PID.TID 0000.0001)                 1.160376979600140E+09,      /* J = 15 */
(PID.TID 0000.0001)                 1.196576586510721E+09,      /* J = 16 */
(PID.TID 0000.0001)                 1.233811208089928E+09,      /* J = 17 */
(PID.TID 0000.0001)                 1.272092866313053E+09,      /* J = 18 */
(PID.TID 0000.0001)                 1.311433405822894E+09,      /* J = 19 */
(PID.TID 0000.0001)                 1.351844507714875E+09,      /* J = 20 */
(PID.TID 0000.0001)                 1.393337606051485E+09,      /* J = 21 */
(PID.TID 0000.0001)                 1.435923987908001E+09,      /* J = 22 */
(PID.TID 0000.0001)                 1.479614675036705E+09,      /* J = 23 */
(PID.TID 0000.0001)                 1.524420466465598E+09,      /* J = 24 */
(PID.TID 0000.0001)                 1.570351910729954E+09,      /* J = 25 */
(PID.TID 0000.0001)                 1.617419255741331E+09,      /* J = 26 */
(PID.TID 0000.0001)                 1.665632470339211E+09,      /* J = 27 */
(PID.TID 0000.0001)                 1.715001205152071E+09,      /* J = 28 */
(PID.TID 0000.0001)                 1.765534790867491E+09,      /* J = 29 */
(PID.TID 0000.0001)                 1.817242347954489E+09       /* J = 30 */
(PID.TID 0000.0001)     ;
(PID.TID 0000.0001) globalArea = /* Integrated horizontal Area (m^2) */
(PID.TID 0000.0001)                 3.580138611494435E+14
(PID.TID 0000.0001)     ;
(PID.TID 0000.0001) hasWetCSCorners = /* Domain contains CS corners (True/False) */
(PID.TID 0000.0001)                   F
(PID.TID 0000.0001)     ;
(PID.TID 0000.0001) // =======================================================
(PID.TID 0000.0001) // End of Model config. summary
(PID.TID 0000.0001) // =======================================================
(PID.TID 0000.0001) 
(PID.TID 0000.0001) == Packages configuration : Check & print summary ==
(PID.TID 0000.0001) 
(PID.TID 0000.0001) GAD_CHECK: #define ALLOW_GENERIC_ADVDIFF
(PID.TID 0000.0001) // =======================================================
(PID.TID 0000.0001) // Check Model config. (CONFIG_CHECK):
(PID.TID 0000.0001) // CONFIG_CHECK : Normal End
(PID.TID 0000.0001) // =======================================================
(PID.TID 0000.0001) 
(PID.TID 0000.0001) Start initial hydrostatic pressure computation
(PID.TID 0000.0001) Pressure is predetermined for buoyancyRelation OCEANIC
(PID.TID 0000.0001) 
(PID.TID 0000.0001) // =======================================================
(PID.TID 0000.0001) // Model current state
(PID.TID 0000.0001) // =======================================================
(PID.TID 0000.0001) 
(PID.TID 0000.0001) // =======================================================
(PID.TID 0000.0001) // Begin MONITOR dynamic field statistics
(PID.TID 0000.0001) // =======================================================
(PID.TID 0000.0001) %MON time_tsnumber                =                     0
(PID.TID 0000.0001) %MON time_secondsf                =   0.0000000000000E+00
(PID.TID 0000.0001) %MON dynstat_eta_max              =   0.0000000000000E+00
(PID.TID 0000.0001) %MON dynstat_eta_min              =   0.0000000000000E+00
(PID.TID 0000.0001) %MON dynstat_eta_mean             =   0.0000000000000E+00
(PID.TID 0000.0001) %MON dynstat_eta_sd               =   0.0000000000000E+00
(PID.TID 0000.0001) %MON dynstat_eta_del2             =   0.0000000000000E+00
(PID.TID 0000.0001) %MON dynstat_uvel_max             =   0.0000000000000E+00
(PID.TID 0000.0001) %MON dynstat_uvel_min             =   0.0000000000000E+00
(PID.TID 0000.0001) %MON dynstat_uvel_mean            =   0.0000000000000E+00
(PID.TID 0000.0001) %MON dynstat_uvel_sd              =   0.0000000000000E+00
(PID.TID 0000.0001) %MON dynstat_uvel_del2            =   0.0000000000000E+00
(PID.TID 0000.0001) %MON dynstat_vvel_max             =   0.0000000000000E+00
(PID.TID 0000.0001) %MON dynstat_vvel_min             =   0.0000000000000E+00
(PID.TID 0000.0001) %MON dynstat_vvel_mean            =   0.0000000000000E+00
(PID.TID 0000.0001) %MON dynstat_vvel_sd              =   0.0000000000000E+00
(PID.TID 0000.0001) %MON dynstat_vvel_del2            =   0.0000000000000E+00
(PID.TID 0000.0001) %MON dynstat_wvel_max             =   0.0000000000000E+00
(PID.TID 0000.0001) %MON dynstat_wvel_min             =   0.0000000000000E+00
(PID.TID 0000.0001) %MON dynstat_wvel_mean            =   0.0000000000000E+00
(PID.TID 0000.0001) %MON dynstat_wvel_sd              =   0.0000000000000E+00
(PID.TID 0000.0001) %MON dynstat_wvel_del2            =   0.0000000000000E+00
(PID.TID 0000.0001) %MON dynstat_theta_max            =   3.2662113189697E+01
(PID.TID 0000.0001) %MON dynstat_theta_min            =  -2.0421380996704E+00
(PID.TID 0000.0001) %MON dynstat_theta_mean           =   3.5902412996509E+00
(PID.TID 0000.0001) %MON dynstat_theta_sd             =   4.4363109209123E+00
(PID.TID 0000.0001) %MON dynstat_theta_del2           =   1.0906365137767E-04
(PID.TID 0000.0001) %MON dynstat_salt_max             =   3.4500000000000E+01
(PID.TID 0000.0001) %MON dynstat_salt_min             =   3.4500000000000E+01
(PID.TID 0000.0001) %MON dynstat_salt_mean            =   3.4500000000000E+01
(PID.TID 0000.0001) %MON dynstat_salt_sd              =   1.4210854715202E-14
(PID.TID 0000.0001) %MON dynstat_salt_del2            =   0.0000000000000E+00
(PID.TID 0000.0001) %MON dynstat_sst_max              =   3.2662113189697E+01
(PID.TID 0000.0001) %MON dynstat_sst_min              =  -1.9609075784683E+00
(PID.TID 0000.0001) %MON dynstat_sst_mean             =   1.8513592276754E+01
(PID.TID 0000.0001) %MON dynstat_sst_sd               =   1.0087201515756E+01
(PID.TID 0000.0001) %MON dynstat_sst_del2             =   8.7893000712207E-04
(PID.TID 0000.0001) %MON dynstat_sss_max              =   3.4500000000000E+01
(PID.TID 0000.0001) %MON dynstat_sss_min              =   3.4500000000000E+01
(PID.TID 0000.0001) %MON dynstat_sss_mean             =   3.4500000000000E+01
(PID.TID 0000.0001) %MON dynstat_sss_sd               =   7.1054273576010E-15
(PID.TID 0000.0001) %MON dynstat_sss_del2             =   0.0000000000000E+00
(PID.TID 0000.0001) %MON forcing_qnet_max             =   0.0000000000000E+00
(PID.TID 0000.0001) %MON forcing_qnet_min             =   0.0000000000000E+00
(PID.TID 0000.0001) %MON forcing_qnet_mean            =   0.0000000000000E+00
(PID.TID 0000.0001) %MON forcing_qnet_sd              =   0.0000000000000E+00
(PID.TID 0000.0001) %MON forcing_qnet_del2            =   0.0000000000000E+00
(PID.TID 0000.0001) %MON forcing_qsw_max              =   0.0000000000000E+00
(PID.TID 0000.0001) %MON forcing_qsw_min              =   0.0000000000000E+00
(PID.TID 0000.0001) %MON forcing_qsw_mean             =   0.0000000000000E+00
(PID.TID 0000.0001) %MON forcing_qsw_sd               =   0.0000000000000E+00
(PID.TID 0000.0001) %MON forcing_qsw_del2             =   0.0000000000000E+00
(PID.TID 0000.0001) %MON forcing_empmr_max            =   0.0000000000000E+00
(PID.TID 0000.0001) %MON forcing_empmr_min            =   0.0000000000000E+00
(PID.TID 0000.0001) %MON forcing_empmr_mean           =   0.0000000000000E+00
(PID.TID 0000.0001) %MON forcing_empmr_sd             =   0.0000000000000E+00
(PID.TID 0000.0001) %MON forcing_empmr_del2           =   0.0000000000000E+00
(PID.TID 0000.0001) %MON forcing_fu_max               =   0.0000000000000E+00
(PID.TID 0000.0001) %MON forcing_fu_min               =   0.0000000000000E+00
(PID.TID 0000.0001) %MON forcing_fu_mean              =   0.0000000000000E+00
(PID.TID 0000.0001) %MON forcing_fu_sd                =   0.0000000000000E+00
(PID.TID 0000.0001) %MON forcing_fu_del2              =   0.0000000000000E+00
(PID.TID 0000.0001) %MON forcing_fv_max               =   0.0000000000000E+00
(PID.TID 0000.0001) %MON forcing_fv_min               =   0.0000000000000E+00
(PID.TID 0000.0001) %MON forcing_fv_mean              =   0.0000000000000E+00
(PID.TID 0000.0001) %MON forcing_fv_sd                =   0.0000000000000E+00
(PID.TID 0000.0001) %MON forcing_fv_del2              =   0.0000000000000E+00
(PID.TID 0000.0001) %MON trAdv_CFL_u_max              =   0.0000000000000E+00
(PID.TID 0000.0001) %MON trAdv_CFL_v_max              =   0.0000000000000E+00
(PID.TID 0000.0001) %MON trAdv_CFL_w_max              =   0.0000000000000E+00
(PID.TID 0000.0001) %MON advcfl_uvel_max              =   0.0000000000000E+00
(PID.TID 0000.0001) %MON advcfl_vvel_max              =   0.0000000000000E+00
(PID.TID 0000.0001) %MON advcfl_wvel_max              =   0.0000000000000E+00
(PID.TID 0000.0001) %MON advcfl_W_hf_max              =   0.0000000000000E+00
(PID.TID 0000.0001) %MON pe_b_mean                    =   0.0000000000000E+00
(PID.TID 0000.0001) %MON ke_max                       =   0.0000000000000E+00
(PID.TID 0000.0001) %MON ke_mean                      =   0.0000000000000E+00
(PID.TID 0000.0001) %MON ke_vol                       =   1.3349978769393E+18
(PID.TID 0000.0001) %MON vort_r_min                   =   0.0000000000000E+00
(PID.TID 0000.0001) %MON vort_r_max                   =   0.0000000000000E+00
(PID.TID 0000.0001) %MON vort_a_mean                  =  -1.9727864647440E-05
(PID.TID 0000.0001) %MON vort_a_sd                    =   7.4542458072371E-05
(PID.TID 0000.0001) %MON vort_p_mean                  =  -2.1760527755546E-05
(PID.TID 0000.0001) %MON vort_p_sd                    =   9.7245654528830E-05
(PID.TID 0000.0001) %MON surfExpan_theta_mean         =   0.0000000000000E+00
(PID.TID 0000.0001) %MON surfExpan_salt_mean          =   0.0000000000000E+00
(PID.TID 0000.0001) // =======================================================
(PID.TID 0000.0001) // End MONITOR dynamic field statistics
(PID.TID 0000.0001) // =======================================================
(PID.TID 0000.0001) SOLVE_FOR_PRESSURE: putPmEinXvector =    F
 cg2d: Sum(rhs),rhsMax =  -9.03700359256834E-01  2.85754380536764E-02
 cg2d: Sum(rhs),rhsMax =  -6.93462471669801E-01  2.95605020110304E-02
 cg2d: Sum(rhs),rhsMax =  -1.07816645745763E+00  2.70661805798063E-02
 cg2d: Sum(rhs),rhsMax =  -1.43027876911181E+00  2.54987793519042E-02
(PID.TID 0000.0001)      cg2d_init_res =   6.45860816366308E+00
(PID.TID 0000.0001)      cg2d_iters(min,last) =      -1      41
(PID.TID 0000.0001)      cg2d_last_res =   2.14280880922636E-05
(PID.TID 0000.0001) // =======================================================
(PID.TID 0000.0001) // Begin MONITOR dynamic field statistics
(PID.TID 0000.0001) // =======================================================
(PID.TID 0000.0001) %MON time_tsnumber                =                     4
(PID.TID 0000.0001) %MON time_secondsf                =   3.6000000000000E+03
(PID.TID 0000.0001) %MON dynstat_eta_max              =   7.4211168483407E-01
(PID.TID 0000.0001) %MON dynstat_eta_min              =  -1.2573076651598E+00
(PID.TID 0000.0001) %MON dynstat_eta_mean             =   4.5244285474295E-05
(PID.TID 0000.0001) %MON dynstat_eta_sd               =   1.3346427654114E-01
(PID.TID 0000.0001) %MON dynstat_eta_del2             =   1.2379016378406E-04
(PID.TID 0000.0001) %MON dynstat_uvel_max             =   4.0661686666664E-01
(PID.TID 0000.0001) %MON dynstat_uvel_min             =  -4.5753442624782E-01
(PID.TID 0000.0001) %MON dynstat_uvel_mean            =  -7.7578227073969E-04
(PID.TID 0000.0001) %MON dynstat_uvel_sd              =   8.9122736610991E-03
(PID.TID 0000.0001) %MON dynstat_uvel_del2            =   4.1495483025977E-06
(PID.TID 0000.0001) %MON dynstat_vvel_max             =   2.7936752245525E-01
(PID.TID 0000.0001) %MON dynstat_vvel_min             =  -2.4604943791016E-01
(PID.TID 0000.0001) %MON dynstat_vvel_mean            =   1.3813650828014E-03
(PID.TID 0000.0001) %MON dynstat_vvel_sd              =   8.7638947914996E-03
(PID.TID 0000.0001) %MON dynstat_vvel_del2            =   3.5911929346851E-06
(PID.TID 0000.0001) %MON dynstat_wvel_max             =   9.7659786589671E-04
(PID.TID 0000.0001) %MON dynstat_wvel_min             =  -1.1049857671301E-03
(PID.TID 0000.0001) %MON dynstat_wvel_mean            =   2.6377043698906E-21
(PID.TID 0000.0001) %MON dynstat_wvel_sd              =   5.0771101127277E-05
(PID.TID 0000.0001) %MON dynstat_wvel_del2            =   3.3664776959875E-08
(PID.TID 0000.0001) %MON dynstat_theta_max            =   3.2662086657139E+01
(PID.TID 0000.0001) %MON dynstat_theta_min            =  -2.0421363429163E+00
(PID.TID 0000.0001) %MON dynstat_theta_mean           =   3.5900936074534E+00
(PID.TID 0000.0001) %MON dynstat_theta_sd             =   4.4349866369140E+00
(PID.TID 0000.0001) %MON dynstat_theta_del2           =   1.2546285564842E-04
(PID.TID 0000.0001) %MON dynstat_salt_max             =   3.4515514884726E+01
(PID.TID 0000.0001) %MON dynstat_salt_min             =   3.2804139031747E+01
(PID.TID 0000.0001) %MON dynstat_salt_mean            =   3.4499999619716E+01
(PID.TID 0000.0001) %MON dynstat_salt_sd              =   3.7155467028381E-04
(PID.TID 0000.0001) %MON dynstat_salt_del2            =   1.0443160127169E-06
(PID.TID 0000.0001) %MON dynstat_sst_max              =   3.2647533079009E+01
(PID.TID 0000.0001) %MON dynstat_sst_min              =  -1.9569960535756E+00
(PID.TID 0000.0001) %MON dynstat_sst_mean             =   1.8557202219356E+01
(PID.TID 0000.0001) %MON dynstat_sst_sd               =   1.0009043572118E+01
(PID.TID 0000.0001) %MON dynstat_sst_del2             =   1.1580596454520E-03
(PID.TID 0000.0001) %MON dynstat_sss_max              =   3.4515514884726E+01
(PID.TID 0000.0001) %MON dynstat_sss_min              =   3.2804139031747E+01
(PID.TID 0000.0001) %MON dynstat_sss_mean             =   3.4499593503529E+01
(PID.TID 0000.0001) %MON dynstat_sss_sd               =   6.7206913600474E-03
(PID.TID 0000.0001) %MON dynstat_sss_del2             =   3.9279643210198E-05
(PID.TID 0000.0001) %MON forcing_qnet_max             =   1.1357199218750E+04
(PID.TID 0000.0001) %MON forcing_qnet_min             =  -1.2895169677734E+03
(PID.TID 0000.0001) %MON forcing_qnet_mean            =   1.7033323299514E+02
(PID.TID 0000.0001) %MON forcing_qnet_sd              =   4.2452889701309E+02
(PID.TID 0000.0001) %MON forcing_qnet_del2            =   4.0727238670855E+00
(PID.TID 0000.0001) %MON forcing_qsw_max              =   0.0000000000000E+00
(PID.TID 0000.0001) %MON forcing_qsw_min              =   0.0000000000000E+00
(PID.TID 0000.0001) %MON forcing_qsw_mean             =   0.0000000000000E+00
(PID.TID 0000.0001) %MON forcing_qsw_sd               =   0.0000000000000E+00
(PID.TID 0000.0001) %MON forcing_qsw_del2             =   0.0000000000000E+00
(PID.TID 0000.0001) %MON forcing_empmr_max            =   3.1700304243714E-03
(PID.TID 0000.0001) %MON forcing_empmr_min            =  -1.2432494759560E-01
(PID.TID 0000.0001) %MON forcing_empmr_mean           =  -1.2734946291584E-05
(PID.TID 0000.0001) %MON forcing_empmr_sd             =   5.4686912838634E-04
(PID.TID 0000.0001) %MON forcing_empmr_del2           =   3.1433376520357E-06
(PID.TID 0000.0001) %MON forcing_fu_max               =   1.2674515843391E+00
(PID.TID 0000.0001) %MON forcing_fu_min               =  -1.2944539189339E+00
(PID.TID 0000.0001) %MON forcing_fu_mean              =   1.3051838069009E-02
(PID.TID 0000.0001) %MON forcing_fu_sd                =   1.1684011122318E-01
(PID.TID 0000.0001) %MON forcing_fu_del2              =   1.7076296647865E-04
(PID.TID 0000.0001) %MON forcing_fv_max               =   8.7946981191635E-01
(PID.TID 0000.0001) %MON forcing_fv_min               =  -7.2893140689881E-01
(PID.TID 0000.0001) %MON forcing_fv_mean              =  -5.5606972647517E-03
(PID.TID 0000.0001) %MON forcing_fv_sd                =   1.1520446310689E-01
(PID.TID 0000.0001) %MON forcing_fv_del2              =   1.3763757106621E-04
(PID.TID 0000.0001) %MON trAdv_CFL_u_max              =   9.1314557574122E-03
(PID.TID 0000.0001) %MON trAdv_CFL_v_max              =   5.1051651751326E-03
(PID.TID 0000.0001) %MON trAdv_CFL_w_max              =   6.8819101647842E-02
(PID.TID 0000.0001) %MON advcfl_uvel_max              =   9.1316885805604E-03
(PID.TID 0000.0001) %MON advcfl_vvel_max              =   5.0299539916309E-03
(PID.TID 0000.0001) %MON advcfl_wvel_max              =   6.8359164126765E-02
(PID.TID 0000.0001) %MON advcfl_W_hf_max              =   6.8819101647842E-02
(PID.TID 0000.0001) %MON pe_b_mean                    =   2.3430869292896E-05
(PID.TID 0000.0001) %MON ke_max                       =   1.0424798540181E-01
(PID.TID 0000.0001) %MON ke_mean                      =   7.6544539893870E-05
(PID.TID 0000.0001) %MON ke_vol                       =   1.3349978769393E+18
(PID.TID 0000.0001) %MON vort_r_min                   =  -6.0292370638486E-06
(PID.TID 0000.0001) %MON vort_r_max                   =   9.8393920164573E-06
(PID.TID 0000.0001) %MON vort_a_mean                  =  -1.9727864647440E-05
(PID.TID 0000.0001) %MON vort_a_sd                    =   7.4542071334572E-05
(PID.TID 0000.0001) %MON vort_p_mean                  =  -2.1760527755546E-05
(PID.TID 0000.0001) %MON vort_p_sd                    =   9.7244995898831E-05
(PID.TID 0000.0001) %MON surfExpan_theta_mean         =   1.5910222370967E-04
(PID.TID 0000.0001) %MON surfExpan_salt_mean          =   7.5641274900646E-09
(PID.TID 0000.0001) // =======================================================
(PID.TID 0000.0001) // End MONITOR dynamic field statistics
(PID.TID 0000.0001) // =======================================================
 cg2d: Sum(rhs),rhsMax =  -1.68074828619477E+00  2.52838034471004E-02
 cg2d: Sum(rhs),rhsMax =  -1.87780459145980E+00  2.67228102398173E-02
 cg2d: Sum(rhs),rhsMax =  -2.02357080838843E+00  2.99673450262747E-02
 cg2d: Sum(rhs),rhsMax =  -2.14323856553904E+00  3.50586929039801E-02
(PID.TID 0000.0001)      cg2d_init_res =   5.73270272064557E+00
(PID.TID 0000.0001)      cg2d_iters(min,last) =      -1      41
(PID.TID 0000.0001)      cg2d_last_res =   2.71071343115713E-05
(PID.TID 0000.0001) // =======================================================
(PID.TID 0000.0001) // Begin MONITOR dynamic field statistics
(PID.TID 0000.0001) // =======================================================
(PID.TID 0000.0001) %MON time_tsnumber                =                     8
(PID.TID 0000.0001) %MON time_secondsf                =   7.2000000000000E+03
(PID.TID 0000.0001) %MON dynstat_eta_max              =   1.2406789563162E+00
(PID.TID 0000.0001) %MON dynstat_eta_min              =  -1.4669484879601E+00
(PID.TID 0000.0001) %MON dynstat_eta_mean             =   6.7797480877819E-05
(PID.TID 0000.0001) %MON dynstat_eta_sd               =   2.5473372225893E-01
(PID.TID 0000.0001) %MON dynstat_eta_del2             =   1.0454470279673E-04
(PID.TID 0000.0001) %MON dynstat_uvel_max             =   7.9991196626893E-01
(PID.TID 0000.0001) %MON dynstat_uvel_min             =  -8.4958526137688E-01
(PID.TID 0000.0001) %MON dynstat_uvel_mean            =  -2.3170660383441E-03
(PID.TID 0000.0001) %MON dynstat_uvel_sd              =   1.4535529996873E-02
(PID.TID 0000.0001) %MON dynstat_uvel_del2            =   6.3700127932474E-06
(PID.TID 0000.0001) %MON dynstat_vvel_max             =   5.8159194716905E-01
(PID.TID 0000.0001) %MON dynstat_vvel_min             =  -4.3785041399220E-01
(PID.TID 0000.0001) %MON dynstat_vvel_mean            =   1.2516483253156E-03
(PID.TID 0000.0001) %MON dynstat_vvel_sd              =   1.5125005238187E-02
(PID.TID 0000.0001) %MON dynstat_vvel_del2            =   5.6442982569265E-06
(PID.TID 0000.0001) %MON dynstat_wvel_max             =   1.5705222137822E-03
(PID.TID 0000.0001) %MON dynstat_wvel_min             =  -1.7612612666194E-03
(PID.TID 0000.0001) %MON dynstat_wvel_mean            =   7.0074820787432E-21
(PID.TID 0000.0001) %MON dynstat_wvel_sd              =   7.4243876242015E-05
(PID.TID 0000.0001) %MON dynstat_wvel_del2            =   5.8451336393594E-08
(PID.TID 0000.0001) %MON dynstat_theta_max            =   3.2646831842672E+01
(PID.TID 0000.0001) %MON dynstat_theta_min            =  -2.0421343740439E+00
(PID.TID 0000.0001) %MON dynstat_theta_mean           =   3.5898832974119E+00
(PID.TID 0000.0001) %MON dynstat_theta_sd             =   4.4343577501392E+00
(PID.TID 0000.0001) %MON dynstat_theta_del2           =   1.1890491049406E-04
(PID.TID 0000.0001) %MON dynstat_salt_max             =   3.4530027363045E+01
(PID.TID 0000.0001) %MON dynstat_salt_min             =   3.1964928977360E+01
(PID.TID 0000.0001) %MON dynstat_salt_mean            =   3.4499999467389E+01
(PID.TID 0000.0001) %MON dynstat_salt_sd              =   5.5401157371506E-04
(PID.TID 0000.0001) %MON dynstat_salt_del2            =   1.5218078521990E-06
(PID.TID 0000.0001) %MON dynstat_sst_max              =   3.2646812090496E+01
(PID.TID 0000.0001) %MON dynstat_sst_min              =  -1.9539063467863E+00
(PID.TID 0000.0001) %MON dynstat_sst_mean             =   1.8582557134249E+01
(PID.TID 0000.0001) %MON dynstat_sst_sd               =   9.9687884182890E+00
(PID.TID 0000.0001) %MON dynstat_sst_del2             =   1.1252666781506E-03
(PID.TID 0000.0001) %MON dynstat_sss_max              =   3.4530027363045E+01
(PID.TID 0000.0001) %MON dynstat_sss_min              =   3.1964928977360E+01
(PID.TID 0000.0001) %MON dynstat_sss_mean             =   3.4499467878786E+01
(PID.TID 0000.0001) %MON dynstat_sss_sd               =   1.0203500519898E-02
(PID.TID 0000.0001) %MON dynstat_sss_del2             =   5.8494871315066E-05
(PID.TID 0000.0001) %MON forcing_qnet_max             =   1.4196372070312E+04
(PID.TID 0000.0001) %MON forcing_qnet_min             =  -1.1411750445508E+03
(PID.TID 0000.0001) %MON forcing_qnet_mean            =   3.4419446137711E+01
(PID.TID 0000.0001) %MON forcing_qnet_sd              =   5.6244372950922E+02
(PID.TID 0000.0001) %MON forcing_qnet_del2            =   6.4968890034323E+00
(PID.TID 0000.0001) %MON forcing_qsw_max              =   0.0000000000000E+00
(PID.TID 0000.0001) %MON forcing_qsw_min              =  -4.3857583918569E+02
(PID.TID 0000.0001) %MON forcing_qsw_mean             =  -8.9699795563646E+01
(PID.TID 0000.0001) %MON forcing_qsw_sd               =   1.2223464554453E+02
(PID.TID 0000.0001) %MON forcing_qsw_del2             =   2.0212052623645E-01
(PID.TID 0000.0001) %MON forcing_empmr_max            =   3.1689454335719E-03
(PID.TID 0000.0001) %MON forcing_empmr_min            =  -7.8872010111809E-02
(PID.TID 0000.0001) %MON forcing_empmr_mean           =  -4.3280578659438E-06
(PID.TID 0000.0001) %MON forcing_empmr_sd             =   3.9499969054219E-04
(PID.TID 0000.0001) %MON forcing_empmr_del2           =   2.2398968013176E-06
(PID.TID 0000.0001) %MON forcing_fu_max               =   1.3440774679184E+00
(PID.TID 0000.0001) %MON forcing_fu_min               =  -1.2983303070068E+00
(PID.TID 0000.0001) %MON forcing_fu_mean              =   1.3355314056108E-02
(PID.TID 0000.0001) %MON forcing_fu_sd                =   1.1919605073861E-01
(PID.TID 0000.0001) %MON forcing_fu_del2              =   1.7379086832358E-04
(PID.TID 0000.0001) %MON forcing_fv_max               =   8.8010531663895E-01
(PID.TID 0000.0001) %MON forcing_fv_min               =  -8.3179727196693E-01
(PID.TID 0000.0001) %MON forcing_fv_mean              =  -5.2947487780144E-03
(PID.TID 0000.0001) %MON forcing_fv_sd                =   1.1474090205901E-01
(PID.TID 0000.0001) %MON forcing_fv_del2              =   1.3860570827582E-04
(PID.TID 0000.0001) %MON trAdv_CFL_u_max              =   1.6955992339274E-02
(PID.TID 0000.0001) %MON trAdv_CFL_v_max              =   8.7386029341579E-03
(PID.TID 0000.0001) %MON trAdv_CFL_w_max              =   6.6376378516130E-02
(PID.TID 0000.0001) %MON advcfl_uvel_max              =   1.6956424663279E-02
(PID.TID 0000.0001) %MON advcfl_vvel_max              =   8.7388257496509E-03
(PID.TID 0000.0001) %MON advcfl_wvel_max              =   6.5694095623894E-02
(PID.TID 0000.0001) %MON advcfl_W_hf_max              =   6.6376378516130E-02
(PID.TID 0000.0001) %MON pe_b_mean                    =   8.5355437422960E-05
(PID.TID 0000.0001) %MON ke_max                       =   3.8119501404235E-01
(PID.TID 0000.0001) %MON ke_mean                      =   2.1553045133550E-04
(PID.TID 0000.0001) %MON ke_vol                       =   1.3349978769393E+18
(PID.TID 0000.0001) %MON vort_r_min                   =  -1.0643099429175E-05
(PID.TID 0000.0001) %MON vort_r_max                   =   1.8243274376453E-05
(PID.TID 0000.0001) %MON vort_a_mean                  =  -1.9727864647440E-05
(PID.TID 0000.0001) %MON vort_a_sd                    =   7.4541390049260E-05
(PID.TID 0000.0001) %MON vort_p_mean                  =  -2.1760527755546E-05
(PID.TID 0000.0001) %MON vort_p_sd                    =   9.7241988171255E-05
(PID.TID 0000.0001) %MON surfExpan_theta_mean         =   2.3143846681348E-04
(PID.TID 0000.0001) %MON surfExpan_salt_mean          =   1.3637863431567E-08
(PID.TID 0000.0001) // =======================================================
(PID.TID 0000.0001) // End MONITOR dynamic field statistics
(PID.TID 0000.0001) // =======================================================
 cg2d: Sum(rhs),rhsMax =  -2.18490748910620E+00  4.18363931955555E-02
 cg2d: Sum(rhs),rhsMax =  -2.21632413440903E+00  5.12253833225948E-02
 cg2d: Sum(rhs),rhsMax =  -2.24044241708117E+00  6.43761562442796E-02
 cg2d: Sum(rhs),rhsMax =  -2.26366136864494E+00  7.97079152077427E-02
(PID.TID 0000.0001)      cg2d_init_res =   5.09336638125875E+00
(PID.TID 0000.0001)      cg2d_iters(min,last) =      -1      42
(PID.TID 0000.0001)      cg2d_last_res =   2.23752679690809E-05
(PID.TID 0000.0001) // =======================================================
(PID.TID 0000.0001) // Begin MONITOR dynamic field statistics
(PID.TID 0000.0001) // =======================================================
(PID.TID 0000.0001) %MON time_tsnumber                =                    12
(PID.TID 0000.0001) %MON time_secondsf                =   1.0800000000000E+04
(PID.TID 0000.0001) %MON dynstat_eta_max              =   1.5289211963636E+00
(PID.TID 0000.0001) %MON dynstat_eta_min              =  -1.5704990397029E+00
(PID.TID 0000.0001) %MON dynstat_eta_mean             =   7.1606838745010E-05
(PID.TID 0000.0001) %MON dynstat_eta_sd               =   3.6057343349479E-01
(PID.TID 0000.0001) %MON dynstat_eta_del2             =   1.1385524882640E-04
(PID.TID 0000.0001) %MON dynstat_uvel_max             =   1.0953277978701E+00
(PID.TID 0000.0001) %MON dynstat_uvel_min             =  -1.0916649499141E+00
(PID.TID 0000.0001) %MON dynstat_uvel_mean            =  -3.9980731249073E-03
(PID.TID 0000.0001) %MON dynstat_uvel_sd              =   1.8869248746956E-02
(PID.TID 0000.0001) %MON dynstat_uvel_del2            =   8.0829889544876E-06
(PID.TID 0000.0001) %MON dynstat_vvel_max             =   8.4614038578060E-01
(PID.TID 0000.0001) %MON dynstat_vvel_min             =  -6.7194193840264E-01
(PID.TID 0000.0001) %MON dynstat_vvel_mean            =   7.3239422938839E-05
(PID.TID 0000.0001) %MON dynstat_vvel_sd              =   1.9592426642098E-02
(PID.TID 0000.0001) %MON dynstat_vvel_del2            =   7.3764209425491E-06
(PID.TID 0000.0001) %MON dynstat_wvel_max             =   2.1491867909292E-03
(PID.TID 0000.0001) %MON dynstat_wvel_min             =  -1.9802164970698E-03
(PID.TID 0000.0001) %MON dynstat_wvel_mean            =   8.2039516919414E-21
(PID.TID 0000.0001) %MON dynstat_wvel_sd              =   9.2809685182718E-05
(PID.TID 0000.0001) %MON dynstat_wvel_del2            =   7.7508357465346E-08
(PID.TID 0000.0001) %MON dynstat_theta_max            =   3.2642357687972E+01
(PID.TID 0000.0001) %MON dynstat_theta_min            =  -2.0421310158183E+00
(PID.TID 0000.0001) %MON dynstat_theta_mean           =   3.5896489719864E+00
(PID.TID 0000.0001) %MON dynstat_theta_sd             =   4.4337646104843E+00
(PID.TID 0000.0001) %MON dynstat_theta_del2           =   1.1985972504747E-04
(PID.TID 0000.0001) %MON dynstat_salt_max             =   3.4540336188038E+01
(PID.TID 0000.0001) %MON dynstat_salt_min             =   3.1325501966996E+01
(PID.TID 0000.0001) %MON dynstat_salt_mean            =   3.4499999446137E+01
(PID.TID 0000.0001) %MON dynstat_salt_sd              =   7.0172445073510E-04
(PID.TID 0000.0001) %MON dynstat_salt_del2            =   1.9005851256653E-06
(PID.TID 0000.0001) %MON dynstat_sst_max              =   3.2642346165800E+01
(PID.TID 0000.0001) %MON dynstat_sst_min              =  -1.9508572303308E+00
(PID.TID 0000.0001) %MON dynstat_sst_mean             =   1.8595016191659E+01
(PID.TID 0000.0001) %MON dynstat_sst_sd               =   9.9538610888406E+00
(PID.TID 0000.0001) %MON dynstat_sst_del2             =   1.1029843051565E-03
(PID.TID 0000.0001) %MON dynstat_sss_max              =   3.4540336188038E+01
(PID.TID 0000.0001) %MON dynstat_sss_min              =   3.1325501966996E+01
(PID.TID 0000.0001) %MON dynstat_sss_mean             =   3.4499381031493E+01
(PID.TID 0000.0001) %MON dynstat_sss_sd               =   1.2966131404047E-02
(PID.TID 0000.0001) %MON dynstat_sss_del2             =   7.3460488823948E-05
(PID.TID 0000.0001) %MON forcing_qnet_max             =   8.9874882812500E+03
(PID.TID 0000.0001) %MON forcing_qnet_min             =  -1.0090120678402E+03
(PID.TID 0000.0001) %MON forcing_qnet_mean            =  -2.9582734935307E+00
(PID.TID 0000.0001) %MON forcing_qnet_sd              =   2.6083936874233E+02
(PID.TID 0000.0001) %MON forcing_qnet_del2            =   1.4021314835672E+00
(PID.TID 0000.0001) %MON forcing_qsw_max              =   0.0000000000000E+00
(PID.TID 0000.0001) %MON forcing_qsw_min              =  -4.4231240104785E+02
(PID.TID 0000.0001) %MON forcing_qsw_mean             =  -8.8970390504349E+01
(PID.TID 0000.0001) %MON forcing_qsw_sd               =   1.2315705235111E+02
(PID.TID 0000.0001) %MON forcing_qsw_del2             =   2.0024749744375E-01
(PID.TID 0000.0001) %MON forcing_empmr_max            =   3.1564671080559E-03
(PID.TID 0000.0001) %MON forcing_empmr_min            =  -6.6666595637798E-02
(PID.TID 0000.0001) %MON forcing_empmr_mean           =  -8.3976643626974E-07
(PID.TID 0000.0001) %MON forcing_empmr_sd             =   3.3641805880440E-04
(PID.TID 0000.0001) %MON forcing_empmr_del2           =   1.9162641108287E-06
(PID.TID 0000.0001) %MON forcing_fu_max               =   1.2687280178070E+00
(PID.TID 0000.0001) %MON forcing_fu_min               =  -1.2379608154297E+00
(PID.TID 0000.0001) %MON forcing_fu_mean              =   1.3179187363965E-02
(PID.TID 0000.0001) %MON forcing_fu_sd                =   1.1749121007657E-01
(PID.TID 0000.0001) %MON forcing_fu_del2              =   1.6996833129618E-04
(PID.TID 0000.0001) %MON forcing_fv_max               =   8.0578756332397E-01
(PID.TID 0000.0001) %MON forcing_fv_min               =  -8.0850312113762E-01
(PID.TID 0000.0001) %MON forcing_fv_mean              =  -4.9681653910371E-03
(PID.TID 0000.0001) %MON forcing_fv_sd                =   1.1164601501534E-01
(PID.TID 0000.0001) %MON forcing_fv_del2              =   1.3479145585520E-04
(PID.TID 0000.0001) %MON trAdv_CFL_u_max              =   2.1787410127382E-02
(PID.TID 0000.0001) %MON trAdv_CFL_v_max              =   1.3530510593837E-02
(PID.TID 0000.0001) %MON trAdv_CFL_w_max              =   4.9728988738436E-02
(PID.TID 0000.0001) %MON advcfl_uvel_max              =   2.1787965637211E-02
(PID.TID 0000.0001) %MON advcfl_vvel_max              =   1.3410935164008E-02
(PID.TID 0000.0001) %MON advcfl_wvel_max              =   4.8598784448926E-02
(PID.TID 0000.0001) %MON advcfl_W_hf_max              =   4.9728988738436E-02
(PID.TID 0000.0001) %MON pe_b_mean                    =   1.7101954477238E-04
(PID.TID 0000.0001) %MON ke_max                       =   7.5756996231699E-01
(PID.TID 0000.0001) %MON ke_mean                      =   3.6448705377969E-04
(PID.TID 0000.0001) %MON ke_vol                       =   1.3349978769393E+18
(PID.TID 0000.0001) %MON vort_r_min                   =  -1.3797487289523E-05
(PID.TID 0000.0001) %MON vort_r_max                   =   2.6545273846840E-05
(PID.TID 0000.0001) %MON vort_a_mean                  =  -1.9727864647440E-05
(PID.TID 0000.0001) %MON vort_a_sd                    =   7.4540649426201E-05
(PID.TID 0000.0001) %MON vort_p_mean                  =  -2.1760527755546E-05
(PID.TID 0000.0001) %MON vort_p_sd                    =   9.7237305066337E-05
(PID.TID 0000.0001) %MON surfExpan_theta_mean         =   2.4117062847755E-04
(PID.TID 0000.0001) %MON surfExpan_salt_mean          =   1.6603445218137E-08
(PID.TID 0000.0001) // =======================================================
(PID.TID 0000.0001) // End MONITOR dynamic field statistics
(PID.TID 0000.0001) // =======================================================
 cg2d: Sum(rhs),rhsMax =  -2.29314670101278E+00  9.70109608812997E-02
 cg2d: Sum(rhs),rhsMax =  -2.32817870366467E+00  1.15760845145105E-01
 cg2d: Sum(rhs),rhsMax =  -2.37193131506864E+00  1.35192501051051E-01
 cg2d: Sum(rhs),rhsMax =  -2.42531418239664E+00  1.54385657846499E-01
(PID.TID 0000.0001)      cg2d_init_res =   4.68314698791753E+00
(PID.TID 0000.0001)      cg2d_iters(min,last) =      -1      41
(PID.TID 0000.0001)      cg2d_last_res =   2.83053133035108E-05
(PID.TID 0000.0001) // =======================================================
(PID.TID 0000.0001) // Begin MONITOR dynamic field statistics
(PID.TID 0000.0001) // =======================================================
(PID.TID 0000.0001) %MON time_tsnumber                =                    16
(PID.TID 0000.0001) %MON time_secondsf                =   1.4400000000000E+04
(PID.TID 0000.0001) %MON dynstat_eta_max              =   1.8182270896336E+00
(PID.TID 0000.0001) %MON dynstat_eta_min              =  -1.8030134260008E+00
(PID.TID 0000.0001) %MON dynstat_eta_mean             =   7.6720433528712E-05
(PID.TID 0000.0001) %MON dynstat_eta_sd               =   4.4736469467509E-01
(PID.TID 0000.0001) %MON dynstat_eta_del2             =   1.1507425768160E-04
(PID.TID 0000.0001) %MON dynstat_uvel_max             =   1.2259243887577E+00
(PID.TID 0000.0001) %MON dynstat_uvel_min             =  -1.1424020117702E+00
(PID.TID 0000.0001) %MON dynstat_uvel_mean            =  -5.2428773922749E-03
(PID.TID 0000.0001) %MON dynstat_uvel_sd              =   2.2276399003961E-02
(PID.TID 0000.0001) %MON dynstat_uvel_del2            =   9.6855560223689E-06
(PID.TID 0000.0001) %MON dynstat_vvel_max             =   1.1712668187388E+00
(PID.TID 0000.0001) %MON dynstat_vvel_min             =  -1.0066850966547E+00
(PID.TID 0000.0001) %MON dynstat_vvel_mean            =  -1.6078776710859E-03
(PID.TID 0000.0001) %MON dynstat_vvel_sd              =   2.2598868683462E-02
(PID.TID 0000.0001) %MON dynstat_vvel_del2            =   9.0588362351123E-06
(PID.TID 0000.0001) %MON dynstat_wvel_max             =   2.5576608859420E-03
(PID.TID 0000.0001) %MON dynstat_wvel_min             =  -2.2519470114016E-03
(PID.TID 0000.0001) %MON dynstat_wvel_mean            =   1.5722560982099E-21
(PID.TID 0000.0001) %MON dynstat_wvel_sd              =   1.0248158820084E-04
(PID.TID 0000.0001) %MON dynstat_wvel_del2            =   8.9346794085562E-08
(PID.TID 0000.0001) %MON dynstat_theta_max            =   3.2641179903001E+01
(PID.TID 0000.0001) %MON dynstat_theta_min            =  -2.0421250922206E+00
(PID.TID 0000.0001) %MON dynstat_theta_mean           =   3.5894323601560E+00
(PID.TID 0000.0001) %MON dynstat_theta_sd             =   4.4331943365398E+00
(PID.TID 0000.0001) %MON dynstat_theta_del2           =   1.2072884247848E-04
(PID.TID 0000.0001) %MON dynstat_salt_max             =   3.4547384227158E+01
(PID.TID 0000.0001) %MON dynstat_salt_min             =   3.0744268101413E+01
(PID.TID 0000.0001) %MON dynstat_salt_mean            =   3.4499999423675E+01
(PID.TID 0000.0001) %MON dynstat_salt_sd              =   8.3678865423765E-04
(PID.TID 0000.0001) %MON dynstat_salt_del2            =   2.2520308050144E-06
(PID.TID 0000.0001) %MON dynstat_sst_max              =   3.2641176473907E+01
(PID.TID 0000.0001) %MON dynstat_sst_min              =  -1.9478641545625E+00
(PID.TID 0000.0001) %MON dynstat_sst_mean             =   1.8601619592138E+01
(PID.TID 0000.0001) %MON dynstat_sst_sd               =   9.9489092509627E+00
(PID.TID 0000.0001) %MON dynstat_sst_del2             =   1.1170943059357E-03
(PID.TID 0000.0001) %MON dynstat_sss_max              =   3.4547384227158E+01
(PID.TID 0000.0001) %MON dynstat_sss_min              =   3.0744268101413E+01
(PID.TID 0000.0001) %MON dynstat_sss_mean             =   3.4499281329510E+01
(PID.TID 0000.0001) %MON dynstat_sss_sd               =   1.5502687576430E-02
(PID.TID 0000.0001) %MON dynstat_sss_del2             =   8.7318423611204E-05
(PID.TID 0000.0001) %MON forcing_qnet_max             =   1.8248276105972E+03
(PID.TID 0000.0001) %MON forcing_qnet_min             =  -8.9276604274392E+02
(PID.TID 0000.0001) %MON forcing_qnet_mean            =  -2.6138822875346E+00
(PID.TID 0000.0001) %MON forcing_qnet_sd              =   2.2944644284032E+02
(PID.TID 0000.0001) %MON forcing_qnet_del2            =   5.1910908470252E-01
(PID.TID 0000.0001) %MON forcing_qsw_max              =   0.0000000000000E+00
(PID.TID 0000.0001) %MON forcing_qsw_min              =  -4.4620125467373E+02
(PID.TID 0000.0001) %MON forcing_qsw_mean             =  -8.5088188625046E+01
(PID.TID 0000.0001) %MON forcing_qsw_sd               =   1.2023571135553E+02
(PID.TID 0000.0001) %MON forcing_qsw_del2             =   1.9627330182016E-01
(PID.TID 0000.0001) %MON forcing_empmr_max            =   3.0326317064464E-03
(PID.TID 0000.0001) %MON forcing_empmr_min            =  -6.3195131719112E-02
(PID.TID 0000.0001) %MON forcing_empmr_mean           =  -1.9307133712377E-06
(PID.TID 0000.0001) %MON forcing_empmr_sd             =   3.0862448358599E-04
(PID.TID 0000.0001) %MON forcing_empmr_del2           =   1.7896778282637E-06
(PID.TID 0000.0001) %MON forcing_fu_max               =   1.2095575928688E+00
(PID.TID 0000.0001) %MON forcing_fu_min               =  -1.1748740077019E+00
(PID.TID 0000.0001) %MON forcing_fu_mean              =   1.3057967544291E-02
(PID.TID 0000.0001) %MON forcing_fu_sd                =   1.1480675926165E-01
(PID.TID 0000.0001) %MON forcing_fu_del2              =   1.6527349764436E-04
(PID.TID 0000.0001) %MON forcing_fv_max               =   7.7133232355118E-01
(PID.TID 0000.0001) %MON forcing_fv_min               =  -7.2361674904823E-01
(PID.TID 0000.0001) %MON forcing_fv_mean              =  -4.9623372681998E-03
(PID.TID 0000.0001) %MON forcing_fv_sd                =   1.0914597501002E-01
(PID.TID 0000.0001) %MON forcing_fv_del2              =   1.3170782980933E-04
(PID.TID 0000.0001) %MON trAdv_CFL_u_max              =   2.2800018597961E-02
(PID.TID 0000.0001) %MON trAdv_CFL_v_max              =   1.9870211509364E-02
(PID.TID 0000.0001) %MON trAdv_CFL_w_max              =   6.3321869917648E-02
(PID.TID 0000.0001) %MON advcfl_uvel_max              =   2.2800599926093E-02
(PID.TID 0000.0001) %MON advcfl_vvel_max              =   2.0168653165489E-02
(PID.TID 0000.0001) %MON advcfl_wvel_max              =   6.0741248675461E-02
(PID.TID 0000.0001) %MON advcfl_W_hf_max              =   6.3321869917648E-02
(PID.TID 0000.0001) %MON pe_b_mean                    =   2.6325807750438E-04
(PID.TID 0000.0001) %MON ke_max                       =   1.1891913862673E+00
(PID.TID 0000.0001) %MON ke_mean                      =   5.0003730808733E-04
(PID.TID 0000.0001) %MON ke_vol                       =   1.3349978769393E+18
(PID.TID 0000.0001) %MON vort_r_min                   =  -1.6509090523275E-05
(PID.TID 0000.0001) %MON vort_r_max                   =   3.2158398165951E-05
(PID.TID 0000.0001) %MON vort_a_mean                  =  -1.9727864647440E-05
(PID.TID 0000.0001) %MON vort_a_sd                    =   7.4540022810179E-05
(PID.TID 0000.0001) %MON vort_p_mean                  =  -2.1760527755546E-05
(PID.TID 0000.0001) %MON vort_p_sd                    =   9.7231937995300E-05
(PID.TID 0000.0001) %MON surfExpan_theta_mean         =   2.1253585304724E-04
(PID.TID 0000.0001) %MON surfExpan_salt_mean          =   1.6445545660127E-08
(PID.TID 0000.0001) // =======================================================
(PID.TID 0000.0001) // End MONITOR dynamic field statistics
(PID.TID 0000.0001) // =======================================================
 cg2d: Sum(rhs),rhsMax =  -2.49112156551722E+00  1.72387717553412E-01
 cg2d: Sum(rhs),rhsMax =  -2.56360257413482E+00  1.88308465360867E-01
 cg2d: Sum(rhs),rhsMax =  -2.64370476216822E+00  2.01488238389250E-01
 cg2d: Sum(rhs),rhsMax =  -2.73192489797900E+00  2.11453046719217E-01
(PID.TID 0000.0001)      cg2d_init_res =   4.21895313617061E+00
(PID.TID 0000.0001)      cg2d_iters(min,last) =      -1      40
(PID.TID 0000.0001)      cg2d_last_res =   2.67729632058530E-05
(PID.TID 0000.0001) // =======================================================
(PID.TID 0000.0001) // Begin MONITOR dynamic field statistics
(PID.TID 0000.0001) // =======================================================
(PID.TID 0000.0001) %MON time_tsnumber                =                    20
(PID.TID 0000.0001) %MON time_secondsf                =   1.8000000000000E+04
(PID.TID 0000.0001) %MON dynstat_eta_max              =   2.0471205557628E+00
(PID.TID 0000.0001) %MON dynstat_eta_min              =  -1.8672260565557E+00
(PID.TID 0000.0001) %MON dynstat_eta_mean             =   8.6419509712358E-05
(PID.TID 0000.0001) %MON dynstat_eta_sd               =   5.1221353169424E-01
(PID.TID 0000.0001) %MON dynstat_eta_del2             =   1.1461560503950E-04
(PID.TID 0000.0001) %MON dynstat_uvel_max             =   1.1524116117757E+00
(PID.TID 0000.0001) %MON dynstat_uvel_min             =  -1.0338391553716E+00
(PID.TID 0000.0001) %MON dynstat_uvel_mean            =  -5.7278277841265E-03
(PID.TID 0000.0001) %MON dynstat_uvel_sd              =   2.4777363801049E-02
(PID.TID 0000.0001) %MON dynstat_uvel_del2            =   1.0844628409583E-05
(PID.TID 0000.0001) %MON dynstat_vvel_max             =   1.5007553084358E+00
(PID.TID 0000.0001) %MON dynstat_vvel_min             =  -1.3977847079888E+00
(PID.TID 0000.0001) %MON dynstat_vvel_mean            =  -3.1644052240144E-03
(PID.TID 0000.0001) %MON dynstat_vvel_sd              =   2.4846084749978E-02
(PID.TID 0000.0001) %MON dynstat_vvel_del2            =   1.0417518540421E-05
(PID.TID 0000.0001) %MON dynstat_wvel_max             =   2.7137165514175E-03
(PID.TID 0000.0001) %MON dynstat_wvel_min             =  -2.3843428796762E-03
(PID.TID 0000.0001) %MON dynstat_wvel_mean            =   1.1172808903030E-21
(PID.TID 0000.0001) %MON dynstat_wvel_sd              =   1.0399560065183E-04
(PID.TID 0000.0001) %MON dynstat_wvel_del2            =   9.4809785944929E-08
(PID.TID 0000.0001) %MON dynstat_theta_max            =   3.2643448361221E+01
(PID.TID 0000.0001) %MON dynstat_theta_min            =  -2.0421167905175E+00
(PID.TID 0000.0001) %MON dynstat_theta_mean           =   3.5892533420904E+00
(PID.TID 0000.0001) %MON dynstat_theta_sd             =   4.4326715399794E+00
(PID.TID 0000.0001) %MON dynstat_theta_del2           =   1.2106317388757E-04
(PID.TID 0000.0001) %MON dynstat_salt_max             =   3.4552200797680E+01
(PID.TID 0000.0001) %MON dynstat_salt_min             =   3.0183691177991E+01
(PID.TID 0000.0001) %MON dynstat_salt_mean            =   3.4499999377300E+01
(PID.TID 0000.0001) %MON dynstat_salt_sd              =   9.6609583374633E-04
(PID.TID 0000.0001) %MON dynstat_salt_del2            =   2.5923601225009E-06
(PID.TID 0000.0001) %MON dynstat_sst_max              =   3.2643448361221E+01
(PID.TID 0000.0001) %MON dynstat_sst_min              =  -1.9449258128624E+00
(PID.TID 0000.0001) %MON dynstat_sst_mean             =   1.8605790736946E+01
(PID.TID 0000.0001) %MON dynstat_sst_sd               =   9.9467604067779E+00
(PID.TID 0000.0001) %MON dynstat_sst_del2             =   1.1258758768798E-03
(PID.TID 0000.0001) %MON dynstat_sss_max              =   3.4552200797680E+01
(PID.TID 0000.0001) %MON dynstat_sss_min              =   3.0183691177991E+01
(PID.TID 0000.0001) %MON dynstat_sss_mean             =   3.4499168568790E+01
(PID.TID 0000.0001) %MON dynstat_sss_sd               =   1.7945923715116E-02
(PID.TID 0000.0001) %MON dynstat_sss_del2             =   1.0072956354556E-04
(PID.TID 0000.0001) %MON forcing_qnet_max             =   1.1314114990234E+03
(PID.TID 0000.0001) %MON forcing_qnet_min             =  -7.9028166112724E+02
(PID.TID 0000.0001) %MON forcing_qnet_mean            =   6.0000084885470E+00
(PID.TID 0000.0001) %MON forcing_qnet_sd              =   2.1836491379464E+02
(PID.TID 0000.0001) %MON forcing_qnet_del2            =   4.4852913678066E-01
(PID.TID 0000.0001) %MON forcing_qsw_max              =   0.0000000000000E+00
(PID.TID 0000.0001) %MON forcing_qsw_min              =  -4.5149488049668E+02
(PID.TID 0000.0001) %MON forcing_qsw_mean             =  -7.9424715545279E+01
(PID.TID 0000.0001) %MON forcing_qsw_sd               =   1.1474573519982E+02
(PID.TID 0000.0001) %MON forcing_qsw_del2             =   1.9036079557469E-01
(PID.TID 0000.0001) %MON forcing_empmr_max            =   2.6837051846087E-03
(PID.TID 0000.0001) %MON forcing_empmr_min            =  -6.3175380229950E-02
(PID.TID 0000.0001) %MON forcing_empmr_mean           =  -3.1906827856406E-06
(PID.TID 0000.0001) %MON forcing_empmr_sd             =   2.9692475956430E-04
(PID.TID 0000.0001) %MON forcing_empmr_del2           =   1.7748801083480E-06
(PID.TID 0000.0001) %MON forcing_fu_max               =   1.1530026197433E+00
(PID.TID 0000.0001) %MON forcing_fu_min               =  -1.0838786959648E+00
(PID.TID 0000.0001) %MON forcing_fu_mean              =   1.3043579637464E-02
(PID.TID 0000.0001) %MON forcing_fu_sd                =   1.1250493151745E-01
(PID.TID 0000.0001) %MON forcing_fu_del2              =   1.6155567429944E-04
(PID.TID 0000.0001) %MON forcing_fv_max               =   7.5287482142448E-01
(PID.TID 0000.0001) %MON forcing_fv_min               =  -6.8244157995070E-01
(PID.TID 0000.0001) %MON forcing_fv_mean              =  -5.2789197039200E-03
(PID.TID 0000.0001) %MON forcing_fv_sd                =   1.0739656776944E-01
(PID.TID 0000.0001) %MON forcing_fv_del2              =   1.2951147177656E-04
(PID.TID 0000.0001) %MON trAdv_CFL_u_max              =   1.9628421814400E-02
(PID.TID 0000.0001) %MON trAdv_CFL_v_max              =   2.7589837064827E-02
(PID.TID 0000.0001) %MON trAdv_CFL_w_max              =   6.6254082234988E-02
(PID.TID 0000.0001) %MON advcfl_uvel_max              =   1.9628922262633E-02
(PID.TID 0000.0001) %MON advcfl_vvel_max              =   2.8004224031065E-02
(PID.TID 0000.0001) %MON advcfl_wvel_max              =   6.3916679229066E-02
(PID.TID 0000.0001) %MON advcfl_W_hf_max              =   6.6254082234988E-02
(PID.TID 0000.0001) %MON pe_b_mean                    =   3.4511225823563E-04
(PID.TID 0000.0001) %MON ke_max                       =   1.5292378507248E+00
(PID.TID 0000.0001) %MON ke_mean                      =   6.1433839792437E-04
(PID.TID 0000.0001) %MON ke_vol                       =   1.3349978769393E+18
(PID.TID 0000.0001) %MON vort_r_min                   =  -1.7482273654570E-05
(PID.TID 0000.0001) %MON vort_r_max                   =   3.6952842198343E-05
(PID.TID 0000.0001) %MON vort_a_mean                  =  -1.9727864647440E-05
(PID.TID 0000.0001) %MON vort_a_sd                    =   7.4539638213624E-05
(PID.TID 0000.0001) %MON vort_p_mean                  =  -2.1760527755546E-05
(PID.TID 0000.0001) %MON vort_p_sd                    =   9.7227275402456E-05
(PID.TID 0000.0001) %MON surfExpan_theta_mean         =   1.6666762626176E-04
(PID.TID 0000.0001) %MON surfExpan_salt_mean          =   8.1251633999185E-09
(PID.TID 0000.0001) // =======================================================
(PID.TID 0000.0001) // End MONITOR dynamic field statistics
(PID.TID 0000.0001) // =======================================================
 cg2d: Sum(rhs),rhsMax =  -2.82947317211912E+00  2.17983269099565E-01
 cg2d: Sum(rhs),rhsMax =  -2.93842999598004E+00  2.21106339218391E-01
 cg2d: Sum(rhs),rhsMax =  -3.05454229779725E+00  2.21076200438155E-01
 cg2d: Sum(rhs),rhsMax =  -3.18043747711241E+00  2.18327196393792E-01
(PID.TID 0000.0001)      cg2d_init_res =   4.09291648143124E+00
(PID.TID 0000.0001)      cg2d_iters(min,last) =      -1      39
(PID.TID 0000.0001)      cg2d_last_res =   2.43090291100843E-05
(PID.TID 0000.0001) // =======================================================
(PID.TID 0000.0001) // Begin MONITOR dynamic field statistics
(PID.TID 0000.0001) // =======================================================
(PID.TID 0000.0001) %MON time_tsnumber                =                    24
(PID.TID 0000.0001) %MON time_secondsf                =   2.1600000000000E+04
(PID.TID 0000.0001) %MON dynstat_eta_max              =   2.4601944696726E+00
(PID.TID 0000.0001) %MON dynstat_eta_min              =  -1.7951865624420E+00
(PID.TID 0000.0001) %MON dynstat_eta_mean             =   1.0060739504443E-04
(PID.TID 0000.0001) %MON dynstat_eta_sd               =   5.5374496790648E-01
(PID.TID 0000.0001) %MON dynstat_eta_del2             =   1.1953367018111E-04
(PID.TID 0000.0001) %MON dynstat_uvel_max             =   1.2476214679780E+00
(PID.TID 0000.0001) %MON dynstat_uvel_min             =  -1.2584541333523E+00
(PID.TID 0000.0001) %MON dynstat_uvel_mean            =  -5.5186245893611E-03
(PID.TID 0000.0001) %MON dynstat_uvel_sd              =   2.6593934757810E-02
(PID.TID 0000.0001) %MON dynstat_uvel_del2            =   1.1834458689374E-05
(PID.TID 0000.0001) %MON dynstat_vvel_max             =   1.7881147431965E+00
(PID.TID 0000.0001) %MON dynstat_vvel_min             =  -1.6277555348868E+00
(PID.TID 0000.0001) %MON dynstat_vvel_mean            =  -4.0846530262423E-03
(PID.TID 0000.0001) %MON dynstat_vvel_sd              =   2.6746687287131E-02
(PID.TID 0000.0001) %MON dynstat_vvel_del2            =   1.1493395579479E-05
(PID.TID 0000.0001) %MON dynstat_wvel_max             =   2.6318948537612E-03
(PID.TID 0000.0001) %MON dynstat_wvel_min             =  -2.4343394321007E-03
(PID.TID 0000.0001) %MON dynstat_wvel_mean            =  -2.7068145280537E-21
(PID.TID 0000.0001) %MON dynstat_wvel_sd              =   1.0139979722084E-04
(PID.TID 0000.0001) %MON dynstat_wvel_del2            =   9.7287143859259E-08
(PID.TID 0000.0001) %MON dynstat_theta_max            =   3.2649726453583E+01
(PID.TID 0000.0001) %MON dynstat_theta_min            =  -2.0421095500554E+00
(PID.TID 0000.0001) %MON dynstat_theta_mean           =   3.5891208332445E+00
(PID.TID 0000.0001) %MON dynstat_theta_sd             =   4.4322260141488E+00
(PID.TID 0000.0001) %MON dynstat_theta_del2           =   1.2109485058709E-04
(PID.TID 0000.0001) %MON dynstat_salt_max             =   3.4555527185583E+01
(PID.TID 0000.0001) %MON dynstat_salt_min             =   2.9620687823504E+01
(PID.TID 0000.0001) %MON dynstat_salt_mean            =   3.4499999313714E+01
(PID.TID 0000.0001) %MON dynstat_salt_sd              =   1.0943362405760E-03
(PID.TID 0000.0001) %MON dynstat_salt_del2            =   2.9299416322250E-06
(PID.TID 0000.0001) %MON dynstat_sst_max              =   3.2649726453583E+01
(PID.TID 0000.0001) %MON dynstat_sst_min              =  -1.9420363379977E+00
(PID.TID 0000.0001) %MON dynstat_sst_mean             =   1.8608270571189E+01
(PID.TID 0000.0001) %MON dynstat_sst_sd               =   9.9458926759050E+00
(PID.TID 0000.0001) %MON dynstat_sst_del2             =   1.1306670698995E-03
(PID.TID 0000.0001) %MON dynstat_sss_max              =   3.4555527185583E+01
(PID.TID 0000.0001) %MON dynstat_sss_min              =   2.9620687823504E+01
(PID.TID 0000.0001) %MON dynstat_sss_mean             =   3.4499042535999E+01
(PID.TID 0000.0001) %MON dynstat_sss_sd               =   2.0377542770187E-02
(PID.TID 0000.0001) %MON dynstat_sss_del2             =   1.1400691553151E-04
(PID.TID 0000.0001) %MON forcing_qnet_max             =   1.1178796386719E+03
(PID.TID 0000.0001) %MON forcing_qnet_min             =  -6.9912340665276E+02
(PID.TID 0000.0001) %MON forcing_qnet_mean            =   1.5396510687967E+01
(PID.TID 0000.0001) %MON forcing_qnet_sd              =   2.0827902644601E+02
(PID.TID 0000.0001) %MON forcing_qnet_del2            =   4.1814257504498E-01
(PID.TID 0000.0001) %MON forcing_qsw_max              =   0.0000000000000E+00
(PID.TID 0000.0001) %MON forcing_qsw_min              =  -4.5173558116246E+02
(PID.TID 0000.0001) %MON forcing_qsw_mean             =  -7.3982287982380E+01
(PID.TID 0000.0001) %MON forcing_qsw_sd               =   1.0848857803897E+02
(PID.TID 0000.0001) %MON forcing_qsw_del2             =   1.8405802437901E-01
(PID.TID 0000.0001) %MON forcing_empmr_max            =   2.3749151732773E-03
(PID.TID 0000.0001) %MON forcing_empmr_min            =  -6.5216466784477E-02
(PID.TID 0000.0001) %MON forcing_empmr_mean           =  -4.5532868175881E-06
(PID.TID 0000.0001) %MON forcing_empmr_sd             =   2.9829137381370E-04
(PID.TID 0000.0001) %MON forcing_empmr_del2           =   1.8690592146056E-06
(PID.TID 0000.0001) %MON forcing_fu_max               =   1.1099671721458E+00
(PID.TID 0000.0001) %MON forcing_fu_min               =  -1.0302309989929E+00
(PID.TID 0000.0001) %MON forcing_fu_mean              =   1.3140991125323E-02
(PID.TID 0000.0001) %MON forcing_fu_sd                =   1.1096480369590E-01
(PID.TID 0000.0001) %MON forcing_fu_del2              =   1.5891619676444E-04
(PID.TID 0000.0001) %MON forcing_fv_max               =   7.5417831540108E-01
(PID.TID 0000.0001) %MON forcing_fv_min               =  -6.9727420370238E-01
(PID.TID 0000.0001) %MON forcing_fv_mean              =  -5.7688311210690E-03
(PID.TID 0000.0001) %MON forcing_fv_sd                =   1.0631239021902E-01
(PID.TID 0000.0001) %MON forcing_fv_del2              =   1.2751835567243E-04
(PID.TID 0000.0001) %MON trAdv_CFL_u_max              =   1.7412214982975E-02
(PID.TID 0000.0001) %MON trAdv_CFL_v_max              =   3.2129060877490E-02
(PID.TID 0000.0001) %MON trAdv_CFL_w_max              =   6.4415600645572E-02
(PID.TID 0000.0001) %MON advcfl_uvel_max              =   1.7412614114596E-02
(PID.TID 0000.0001) %MON advcfl_vvel_max              =   3.2611624956438E-02
(PID.TID 0000.0001) %MON advcfl_wvel_max              =   7.4833429920627E-02
(PID.TID 0000.0001) %MON advcfl_W_hf_max              =   6.4415600645572E-02
(PID.TID 0000.0001) %MON pe_b_mean                    =   4.0334611459416E-04
(PID.TID 0000.0001) %MON ke_max                       =   1.7120071387616E+00
(PID.TID 0000.0001) %MON ke_mean                      =   7.0870177235143E-04
(PID.TID 0000.0001) %MON ke_vol                       =   1.3349978769393E+18
(PID.TID 0000.0001) %MON vort_r_min                   =  -2.1043527226418E-05
(PID.TID 0000.0001) %MON vort_r_max                   =   3.5626663332834E-05
(PID.TID 0000.0001) %MON vort_a_mean                  =  -1.9727864647440E-05
(PID.TID 0000.0001) %MON vort_a_sd                    =   7.4539557083527E-05
(PID.TID 0000.0001) %MON vort_p_mean                  =  -2.1760527755546E-05
(PID.TID 0000.0001) %MON vort_p_sd                    =   9.7224186111220E-05
(PID.TID 0000.0001) %MON surfExpan_theta_mean         =   1.1442219468157E-04
(PID.TID 0000.0001) %MON surfExpan_salt_mean          =  -4.7072164532754E-09
(PID.TID 0000.0001) // =======================================================
(PID.TID 0000.0001) // End MONITOR dynamic field statistics
(PID.TID 0000.0001) // =======================================================
 cg2d: Sum(rhs),rhsMax =  -3.30988717416205E+00  2.14611033143986E-01
 cg2d: Sum(rhs),rhsMax =  -3.45444411436203E+00  2.10628544800166E-01
 cg2d: Sum(rhs),rhsMax =  -3.60936234492785E+00  2.04574994397711E-01
 cg2d: Sum(rhs),rhsMax =  -3.77467510207384E+00  1.97059969394471E-01
(PID.TID 0000.0001)      cg2d_init_res =   4.05839125886426E+00
(PID.TID 0000.0001)      cg2d_iters(min,last) =      -1      39
(PID.TID 0000.0001)      cg2d_last_res =   2.64242415264318E-05
(PID.TID 0000.0001) // =======================================================
(PID.TID 0000.0001) // Begin MONITOR dynamic field statistics
(PID.TID 0000.0001) // =======================================================
(PID.TID 0000.0001) %MON time_tsnumber                =                    28
(PID.TID 0000.0001) %MON time_secondsf                =   2.5200000000000E+04
(PID.TID 0000.0001) %MON dynstat_eta_max              =   2.5747382135703E+00
(PID.TID 0000.0001) %MON dynstat_eta_min              =  -1.7164592168397E+00
(PID.TID 0000.0001) %MON dynstat_eta_mean             =   1.1940502899100E-04
(PID.TID 0000.0001) %MON dynstat_eta_sd               =   5.7723688684322E-01
(PID.TID 0000.0001) %MON dynstat_eta_del2             =   1.2595236650427E-04
(PID.TID 0000.0001) %MON dynstat_uvel_max             =   1.1813351575238E+00
(PID.TID 0000.0001) %MON dynstat_uvel_min             =  -1.3698236716400E+00
(PID.TID 0000.0001) %MON dynstat_uvel_mean            =  -4.9352535124268E-03
(PID.TID 0000.0001) %MON dynstat_uvel_sd              =   2.7919426916864E-02
(PID.TID 0000.0001) %MON dynstat_uvel_del2            =   1.2725287048027E-05
(PID.TID 0000.0001) %MON dynstat_vvel_max             =   1.8859456981287E+00
(PID.TID 0000.0001) %MON dynstat_vvel_min             =  -1.6723531354638E+00
(PID.TID 0000.0001) %MON dynstat_vvel_mean            =  -4.1023809733804E-03
(PID.TID 0000.0001) %MON dynstat_vvel_sd              =   2.8184287054777E-02
(PID.TID 0000.0001) %MON dynstat_vvel_del2            =   1.2316640826446E-05
(PID.TID 0000.0001) %MON dynstat_wvel_max             =   2.3806755292039E-03
(PID.TID 0000.0001) %MON dynstat_wvel_min             =  -2.3193029767612E-03
(PID.TID 0000.0001) %MON dynstat_wvel_mean            =   2.4188555357075E-22
(PID.TID 0000.0001) %MON dynstat_wvel_sd              =   9.7356318918139E-05
(PID.TID 0000.0001) %MON dynstat_wvel_del2            =   9.8165138982800E-08
(PID.TID 0000.0001) %MON dynstat_theta_max            =   3.2656975652451E+01
(PID.TID 0000.0001) %MON dynstat_theta_min            =  -2.0420984866808E+00
(PID.TID 0000.0001) %MON dynstat_theta_mean           =   3.5890363577290E+00
(PID.TID 0000.0001) %MON dynstat_theta_sd             =   4.4318915395860E+00
(PID.TID 0000.0001) %MON dynstat_theta_del2           =   1.2098737661670E-04
(PID.TID 0000.0001) %MON dynstat_salt_max             =   3.4557818901105E+01
(PID.TID 0000.0001) %MON dynstat_salt_min             =   2.9036019954714E+01
(PID.TID 0000.0001) %MON dynstat_salt_mean            =   3.4499999223276E+01
(PID.TID 0000.0001) %MON dynstat_salt_sd              =   1.2269550560647E-03
(PID.TID 0000.0001) %MON dynstat_salt_del2            =   3.2855889608484E-06
(PID.TID 0000.0001) %MON dynstat_sst_max              =   3.2656975652451E+01
(PID.TID 0000.0001) %MON dynstat_sst_min              =  -1.9391816295975E+00
(PID.TID 0000.0001) %MON dynstat_sst_mean             =   1.8609523183235E+01
(PID.TID 0000.0001) %MON dynstat_sst_sd               =   9.9458904378809E+00
(PID.TID 0000.0001) %MON dynstat_sst_del2             =   1.1330727079574E-03
(PID.TID 0000.0001) %MON dynstat_sss_max              =   3.4557818901105E+01
(PID.TID 0000.0001) %MON dynstat_sss_min              =   2.9036019954714E+01
(PID.TID 0000.0001) %MON dynstat_sss_mean             =   3.4498912676075E+01
(PID.TID 0000.0001) %MON dynstat_sss_sd               =   2.2896066714671E-02
(PID.TID 0000.0001) %MON dynstat_sss_del2             =   1.2795711928628E-04
(PID.TID 0000.0001) %MON forcing_qnet_max             =   1.2591815185547E+03
(PID.TID 0000.0001) %MON forcing_qnet_min             =  -6.8311095727996E+02
(PID.TID 0000.0001) %MON forcing_qnet_mean            =   2.3915622058642E+01
(PID.TID 0000.0001) %MON forcing_qnet_sd              =   2.0133586652383E+02
(PID.TID 0000.0001) %MON forcing_qnet_del2            =   4.1111157948129E-01
(PID.TID 0000.0001) %MON forcing_qsw_max              =   0.0000000000000E+00
(PID.TID 0000.0001) %MON forcing_qsw_min              =  -4.4450164841595E+02
(PID.TID 0000.0001) %MON forcing_qsw_mean             =  -6.9112208080703E+01
(PID.TID 0000.0001) %MON forcing_qsw_sd               =   1.0358808121012E+02
(PID.TID 0000.0001) %MON forcing_qsw_del2             =   1.7832653303126E-01
(PID.TID 0000.0001) %MON forcing_empmr_max            =   2.1708135027438E-03
(PID.TID 0000.0001) %MON forcing_empmr_min            =  -6.9614134728909E-02
(PID.TID 0000.0001) %MON forcing_empmr_mean           =  -5.9789135848114E-06
(PID.TID 0000.0001) %MON forcing_empmr_sd             =   3.1934738500442E-04
(PID.TID 0000.0001) %MON forcing_empmr_del2           =   2.1955970174343E-06
(PID.TID 0000.0001) %MON forcing_fu_max               =   1.0930838584900E+00
(PID.TID 0000.0001) %MON forcing_fu_min               =  -9.9535095691681E-01
(PID.TID 0000.0001) %MON forcing_fu_mean              =   1.3309706697858E-02
(PID.TID 0000.0001) %MON forcing_fu_sd                =   1.0978646482015E-01
(PID.TID 0000.0001) %MON forcing_fu_del2              =   1.5660033133138E-04
(PID.TID 0000.0001) %MON forcing_fv_max               =   7.2624278068542E-01
(PID.TID 0000.0001) %MON forcing_fv_min               =  -7.0941135876819E-01
(PID.TID 0000.0001) %MON forcing_fv_mean              =  -6.3518190713922E-03
(PID.TID 0000.0001) %MON forcing_fv_sd                =   1.0567070144184E-01
(PID.TID 0000.0001) %MON forcing_fv_del2              =   1.2595063828790E-04
(PID.TID 0000.0001) %MON trAdv_CFL_u_max              =   1.7817160550816E-02
(PID.TID 0000.0001) %MON trAdv_CFL_v_max              =   3.3009339896775E-02
(PID.TID 0000.0001) %MON trAdv_CFL_w_max              =   6.4857730320941E-02
(PID.TID 0000.0001) %MON advcfl_uvel_max              =   1.7907982554931E-02
(PID.TID 0000.0001) %MON advcfl_vvel_max              =   3.3505125357943E-02
(PID.TID 0000.0001) %MON advcfl_wvel_max              =   6.3383690995465E-02
(PID.TID 0000.0001) %MON advcfl_W_hf_max              =   6.4857730320941E-02
(PID.TID 0000.0001) %MON pe_b_mean                    =   4.3829493134197E-04
(PID.TID 0000.0001) %MON ke_max                       =   1.8193965983481E+00
(PID.TID 0000.0001) %MON ke_mean                      =   7.7875195928699E-04
(PID.TID 0000.0001) %MON ke_vol                       =   1.3349978769393E+18
(PID.TID 0000.0001) %MON vort_r_min                   =  -2.1213560684123E-05
(PID.TID 0000.0001) %MON vort_r_max                   =   3.0706992350187E-05
(PID.TID 0000.0001) %MON vort_a_mean                  =  -1.9727864647440E-05
(PID.TID 0000.0001) %MON vort_a_sd                    =   7.4539762467227E-05
(PID.TID 0000.0001) %MON vort_p_mean                  =  -2.1760527755546E-05
(PID.TID 0000.0001) %MON vort_p_sd                    =   9.7222767331809E-05
(PID.TID 0000.0001) %MON surfExpan_theta_mean         =   6.3860087623792E-05
(PID.TID 0000.0001) %MON surfExpan_salt_mean          =  -1.1092802806351E-08
(PID.TID 0000.0001) // =======================================================
(PID.TID 0000.0001) // End MONITOR dynamic field statistics
(PID.TID 0000.0001) // =======================================================
 cg2d: Sum(rhs),rhsMax =  -3.95734794822184E+00  1.88714427971292E-01
 cg2d: Sum(rhs),rhsMax =  -4.15308503524424E+00  1.80135779537726E-01
 cg2d: Sum(rhs),rhsMax =  -4.36198316094591E+00  1.72250278709599E-01
 cg2d: Sum(rhs),rhsMax =  -4.57966286836110E+00  1.67653709078033E-01
(PID.TID 0000.0001)      cg2d_init_res =   3.85829740581405E+00
(PID.TID 0000.0001)      cg2d_iters(min,last) =      -1      39
(PID.TID 0000.0001)      cg2d_last_res =   2.71512723446949E-05
(PID.TID 0000.0001) // =======================================================
(PID.TID 0000.0001) // Begin MONITOR dynamic field statistics
(PID.TID 0000.0001) // =======================================================
(PID.TID 0000.0001) %MON time_tsnumber                =                    32
(PID.TID 0000.0001) %MON time_secondsf                =   2.8800000000000E+04
(PID.TID 0000.0001) %MON dynstat_eta_max              =   2.4001973196589E+00
(PID.TID 0000.0001) %MON dynstat_eta_min              =  -1.8596997414632E+00
(PID.TID 0000.0001) %MON dynstat_eta_mean             =   1.4486936299902E-04
(PID.TID 0000.0001) %MON dynstat_eta_sd               =   5.8929481237291E-01
(PID.TID 0000.0001) %MON dynstat_eta_del2             =   1.2799554888186E-04
(PID.TID 0000.0001) %MON dynstat_uvel_max             =   9.6082690119597E-01
(PID.TID 0000.0001) %MON dynstat_uvel_min             =  -1.3685967047574E+00
(PID.TID 0000.0001) %MON dynstat_uvel_mean            =  -4.3238691431862E-03
(PID.TID 0000.0001) %MON dynstat_uvel_sd              =   2.8822943027856E-02
(PID.TID 0000.0001) %MON dynstat_uvel_del2            =   1.3492939270335E-05
(PID.TID 0000.0001) %MON dynstat_vvel_max             =   1.8789412414197E+00
(PID.TID 0000.0001) %MON dynstat_vvel_min             =  -1.5749803234476E+00
(PID.TID 0000.0001) %MON dynstat_vvel_mean            =  -3.2069582479665E-03
(PID.TID 0000.0001) %MON dynstat_vvel_sd              =   2.9039453943270E-02
(PID.TID 0000.0001) %MON dynstat_vvel_del2            =   1.2967660242339E-05
(PID.TID 0000.0001) %MON dynstat_wvel_max             =   2.0791386252979E-03
(PID.TID 0000.0001) %MON dynstat_wvel_min             =  -2.2120773090482E-03
(PID.TID 0000.0001) %MON dynstat_wvel_mean            =  -3.7463464904232E-21
(PID.TID 0000.0001) %MON dynstat_wvel_sd              =   9.3490629614941E-05
(PID.TID 0000.0001) %MON dynstat_wvel_del2            =   9.7631200087182E-08
(PID.TID 0000.0001) %MON dynstat_theta_max            =   3.2664222156538E+01
(PID.TID 0000.0001) %MON dynstat_theta_min            =  -2.0420346392910E+00
(PID.TID 0000.0001) %MON dynstat_theta_mean           =   3.5889929721086E+00
(PID.TID 0000.0001) %MON dynstat_theta_sd             =   4.4316851791601E+00
(PID.TID 0000.0001) %MON dynstat_theta_del2           =   1.2083245230072E-04
(PID.TID 0000.0001) %MON dynstat_salt_max             =   3.4559381191114E+01
(PID.TID 0000.0001) %MON dynstat_salt_min             =   2.8434548539751E+01
(PID.TID 0000.0001) %MON dynstat_salt_mean            =   3.4499999082598E+01
(PID.TID 0000.0001) %MON dynstat_salt_sd              =   1.3676546860781E-03
(PID.TID 0000.0001) %MON dynstat_salt_del2            =   3.7061546147412E-06
(PID.TID 0000.0001) %MON dynstat_sst_max              =   3.2664222156538E+01
(PID.TID 0000.0001) %MON dynstat_sst_min              =  -1.9363737889351E+00
(PID.TID 0000.0001) %MON dynstat_sst_mean             =   1.8609859349206E+01
(PID.TID 0000.0001) %MON dynstat_sst_sd               =   9.9465074011128E+00
(PID.TID 0000.0001) %MON dynstat_sst_del2             =   1.1342130324355E-03
(PID.TID 0000.0001) %MON dynstat_sss_max              =   3.4559381191114E+01
(PID.TID 0000.0001) %MON dynstat_sss_min              =   2.8434548539751E+01
(PID.TID 0000.0001) %MON dynstat_sss_mean             =   3.4498767648496E+01
(PID.TID 0000.0001) %MON dynstat_sss_sd               =   2.5570484092605E-02
(PID.TID 0000.0001) %MON dynstat_sss_del2             =   1.4448366937176E-04
(PID.TID 0000.0001) %MON forcing_qnet_max             =   1.3309259033203E+03
(PID.TID 0000.0001) %MON forcing_qnet_min             =  -6.9525749798455E+02
(PID.TID 0000.0001) %MON forcing_qnet_mean            =   3.2559666741274E+01
(PID.TID 0000.0001) %MON forcing_qnet_sd              =   1.9949840829239E+02
(PID.TID 0000.0001) %MON forcing_qnet_del2            =   3.9409376540554E-01
(PID.TID 0000.0001) %MON forcing_qsw_max              =   0.0000000000000E+00
(PID.TID 0000.0001) %MON forcing_qsw_min              =  -4.3642536761193E+02
(PID.TID 0000.0001) %MON forcing_qsw_mean             =  -6.4643300400590E+01
(PID.TID 0000.0001) %MON forcing_qsw_sd               =   1.0214412982199E+02
(PID.TID 0000.0001) %MON forcing_qsw_del2             =   1.7528993929234E-01
(PID.TID 0000.0001) %MON forcing_empmr_max            =   2.0427790004760E-03
(PID.TID 0000.0001) %MON forcing_empmr_min            =  -7.2594255208969E-02
(PID.TID 0000.0001) %MON forcing_empmr_mean           =  -7.8728839945136E-06
(PID.TID 0000.0001) %MON forcing_empmr_sd             =   3.5926764281371E-04
(PID.TID 0000.0001) %MON forcing_empmr_del2           =   2.8973327736401E-06
(PID.TID 0000.0001) %MON forcing_fu_max               =   1.0717823505402E+00
(PID.TID 0000.0001) %MON forcing_fu_min               =  -9.6664151549339E-01
(PID.TID 0000.0001) %MON forcing_fu_mean              =   1.3537705549631E-02
(PID.TID 0000.0001) %MON forcing_fu_sd                =   1.0888384089028E-01
(PID.TID 0000.0001) %MON forcing_fu_del2              =   1.5430856794394E-04
(PID.TID 0000.0001) %MON forcing_fv_max               =   7.1677732467651E-01
(PID.TID 0000.0001) %MON forcing_fv_min               =  -6.9668182796244E-01
(PID.TID 0000.0001) %MON forcing_fv_mean              =  -6.9566997520392E-03
(PID.TID 0000.0001) %MON forcing_fv_sd                =   1.0542350076484E-01
(PID.TID 0000.0001) %MON forcing_fv_del2              =   1.2444475703790E-04
(PID.TID 0000.0001) %MON trAdv_CFL_u_max              =   1.7359212340559E-02
(PID.TID 0000.0001) %MON trAdv_CFL_v_max              =   3.1087370080481E-02
(PID.TID 0000.0001) %MON trAdv_CFL_w_max              =   6.7558825341152E-02
(PID.TID 0000.0001) %MON advcfl_uvel_max              =   1.7447699978650E-02
(PID.TID 0000.0001) %MON advcfl_vvel_max              =   3.1554288418141E-02
(PID.TID 0000.0001) %MON advcfl_wvel_max              =   6.3998034378762E-02
(PID.TID 0000.0001) %MON advcfl_W_hf_max              =   6.7558825341152E-02
(PID.TID 0000.0001) %MON pe_b_mean                    =   4.5679731269629E-04
(PID.TID 0000.0001) %MON ke_max                       =   1.7395815486199E+00
(PID.TID 0000.0001) %MON ke_mean                      =   8.2118382245388E-04
(PID.TID 0000.0001) %MON ke_vol                       =   1.3349978769393E+18
(PID.TID 0000.0001) %MON vort_r_min                   =  -2.1405015280430E-05
(PID.TID 0000.0001) %MON vort_r_max                   =   2.4209793584024E-05
(PID.TID 0000.0001) %MON vort_a_mean                  =  -1.9727864647440E-05
(PID.TID 0000.0001) %MON vort_a_sd                    =   7.4540180813350E-05
(PID.TID 0000.0001) %MON vort_p_mean                  =  -2.1760527755546E-05
(PID.TID 0000.0001) %MON vort_p_sd                    =   9.7222719915593E-05
(PID.TID 0000.0001) %MON surfExpan_theta_mean         =   2.3812590806961E-05
(PID.TID 0000.0001) %MON surfExpan_salt_mean          =  -6.5554626595181E-09
(PID.TID 0000.0001) // =======================================================
(PID.TID 0000.0001) // End MONITOR dynamic field statistics
(PID.TID 0000.0001) // =======================================================
 cg2d: Sum(rhs),rhsMax =  -4.81296226992205E+00  1.64297226355848E-01
 cg2d: Sum(rhs),rhsMax =  -5.05406599506125E+00  1.62177431431679E-01
 cg2d: Sum(rhs),rhsMax =  -5.29985779376421E+00  1.61224652644262E-01
 cg2d: Sum(rhs),rhsMax =  -5.56210064152837E+00  1.61328436335763E-01
(PID.TID 0000.0001)      cg2d_init_res =   3.65586378426109E+00
(PID.TID 0000.0001)      cg2d_iters(min,last) =      -1      39
(PID.TID 0000.0001)      cg2d_last_res =   1.95624824551865E-05
(PID.TID 0000.0001) // =======================================================
(PID.TID 0000.0001) // Begin MONITOR dynamic field statistics
(PID.TID 0000.0001) // =======================================================
(PID.TID 0000.0001) %MON time_tsnumber                =                    36
(PID.TID 0000.0001) %MON time_secondsf                =   3.2400000000000E+04
(PID.TID 0000.0001) %MON dynstat_eta_max              =   2.1301162862428E+00
(PID.TID 0000.0001) %MON dynstat_eta_min              =  -1.8931298280449E+00
(PID.TID 0000.0001) %MON dynstat_eta_mean             =   1.7594700746217E-04
(PID.TID 0000.0001) %MON dynstat_eta_sd               =   5.9369031205745E-01
(PID.TID 0000.0001) %MON dynstat_eta_del2             =   1.2230374050726E-04
(PID.TID 0000.0001) %MON dynstat_uvel_max             =   9.7813642867304E-01
(PID.TID 0000.0001) %MON dynstat_uvel_min             =  -1.3923300690639E+00
(PID.TID 0000.0001) %MON dynstat_uvel_mean            =  -3.9209245562343E-03
(PID.TID 0000.0001) %MON dynstat_uvel_sd              =   2.9294057670122E-02
(PID.TID 0000.0001) %MON dynstat_uvel_del2            =   1.4155837600984E-05
(PID.TID 0000.0001) %MON dynstat_vvel_max             =   1.7307539648865E+00
(PID.TID 0000.0001) %MON dynstat_vvel_min             =  -1.3603342486877E+00
(PID.TID 0000.0001) %MON dynstat_vvel_mean            =  -1.6162334491739E-03
(PID.TID 0000.0001) %MON dynstat_vvel_sd              =   2.9490055535616E-02
(PID.TID 0000.0001) %MON dynstat_vvel_del2            =   1.3538841722772E-05
(PID.TID 0000.0001) %MON dynstat_wvel_max             =   2.2590814248000E-03
(PID.TID 0000.0001) %MON dynstat_wvel_min             =  -2.5104804290796E-03
(PID.TID 0000.0001) %MON dynstat_wvel_mean            =   2.0502680255045E-21
(PID.TID 0000.0001) %MON dynstat_wvel_sd              =   9.1447349059090E-05
(PID.TID 0000.0001) %MON dynstat_wvel_del2            =   9.6423026200936E-08
(PID.TID 0000.0001) %MON dynstat_theta_max            =   3.2668926943080E+01
(PID.TID 0000.0001) %MON dynstat_theta_min            =  -2.0419045755480E+00
(PID.TID 0000.0001) %MON dynstat_theta_mean           =   3.5889765026228E+00
(PID.TID 0000.0001) %MON dynstat_theta_sd             =   4.4315964593483E+00
(PID.TID 0000.0001) %MON dynstat_theta_del2           =   1.2065881072872E-04
(PID.TID 0000.0001) %MON dynstat_salt_max             =   3.4560452813959E+01
(PID.TID 0000.0001) %MON dynstat_salt_min             =   2.7828600485726E+01
(PID.TID 0000.0001) %MON dynstat_salt_mean            =   3.4499998900566E+01
(PID.TID 0000.0001) %MON dynstat_salt_sd              =   1.5193589993617E-03
(PID.TID 0000.0001) %MON dynstat_salt_del2            =   4.2585735693936E-06
(PID.TID 0000.0001) %MON dynstat_sst_max              =   3.2668926943080E+01
(PID.TID 0000.0001) %MON dynstat_sst_min              =  -1.9336341277355E+00
(PID.TID 0000.0001) %MON dynstat_sst_mean             =   1.8609299707521E+01
(PID.TID 0000.0001) %MON dynstat_sst_sd               =   9.9475218946555E+00
(PID.TID 0000.0001) %MON dynstat_sst_del2             =   1.1342690358812E-03
(PID.TID 0000.0001) %MON dynstat_sss_max              =   3.4560452813959E+01
(PID.TID 0000.0001) %MON dynstat_sss_min              =   2.7828600485726E+01
(PID.TID 0000.0001) %MON dynstat_sss_mean             =   3.4498582532991E+01
(PID.TID 0000.0001) %MON dynstat_sss_sd               =   2.8471790594303E-02
(PID.TID 0000.0001) %MON dynstat_sss_del2             =   1.6635132138272E-04
(PID.TID 0000.0001) %MON forcing_qnet_max             =   1.3165466299942E+03
(PID.TID 0000.0001) %MON forcing_qnet_min             =  -6.4940637175523E+02
(PID.TID 0000.0001) %MON forcing_qnet_mean            =   4.1220984874700E+01
(PID.TID 0000.0001) %MON forcing_qnet_sd              =   2.0006266274287E+02
(PID.TID 0000.0001) %MON forcing_qnet_del2            =   3.7343341177051E-01
(PID.TID 0000.0001) %MON forcing_qsw_max              =   0.0000000000000E+00
(PID.TID 0000.0001) %MON forcing_qsw_min              =  -4.3799304436941E+02
(PID.TID 0000.0001) %MON forcing_qsw_mean             =  -6.0068184763150E+01
(PID.TID 0000.0001) %MON forcing_qsw_sd               =   1.0272815746555E+02
(PID.TID 0000.0001) %MON forcing_qsw_del2             =   1.7289886866738E-01
(PID.TID 0000.0001) %MON forcing_empmr_max            =   1.9605848938227E-03
(PID.TID 0000.0001) %MON forcing_empmr_min            =  -9.3751534819603E-02
(PID.TID 0000.0001) %MON forcing_empmr_mean           =  -9.4846117874297E-06
(PID.TID 0000.0001) %MON forcing_empmr_sd             =   4.0912473988631E-04
(PID.TID 0000.0001) %MON forcing_empmr_del2           =   3.6552082370338E-06
(PID.TID 0000.0001) %MON forcing_fu_max               =   1.0627787709236E+00
(PID.TID 0000.0001) %MON forcing_fu_min               =  -9.4928500056267E-01
(PID.TID 0000.0001) %MON forcing_fu_mean              =   1.3719969581203E-02
(PID.TID 0000.0001) %MON forcing_fu_sd                =   1.0823793573443E-01
(PID.TID 0000.0001) %MON forcing_fu_del2              =   1.5278618005441E-04
(PID.TID 0000.0001) %MON forcing_fv_max               =   7.4739739298820E-01
(PID.TID 0000.0001) %MON forcing_fv_min               =  -6.6463350888307E-01
(PID.TID 0000.0001) %MON forcing_fv_mean              =  -7.5141651445172E-03
(PID.TID 0000.0001) %MON forcing_fv_sd                =   1.0514886988672E-01
(PID.TID 0000.0001) %MON forcing_fv_del2              =   1.2225721929847E-04
(PID.TID 0000.0001) %MON trAdv_CFL_u_max              =   1.9832921933299E-02
(PID.TID 0000.0001) %MON trAdv_CFL_v_max              =   2.6850630190438E-02
(PID.TID 0000.0001) %MON trAdv_CFL_w_max              =   8.6755182830086E-02
(PID.TID 0000.0001) %MON advcfl_uvel_max              =   1.9833426090199E-02
(PID.TID 0000.0001) %MON advcfl_vvel_max              =   2.7253914597616E-02
(PID.TID 0000.0001) %MON advcfl_wvel_max              =   8.3063472922423E-02
(PID.TID 0000.0001) %MON advcfl_W_hf_max              =   8.6755182830086E-02
(PID.TID 0000.0001) %MON pe_b_mean                    =   4.6363716379955E-04
(PID.TID 0000.0001) %MON ke_max                       =   1.5226837138765E+00
(PID.TID 0000.0001) %MON ke_mean                      =   8.4180189247448E-04
(PID.TID 0000.0001) %MON ke_vol                       =   1.3349978769393E+18
(PID.TID 0000.0001) %MON vort_r_min                   =  -2.2564469356110E-05
(PID.TID 0000.0001) %MON vort_r_max                   =   1.9109440719810E-05
(PID.TID 0000.0001) %MON vort_a_mean                  =  -1.9727864647440E-05
(PID.TID 0000.0001) %MON vort_a_sd                    =   7.4540713491538E-05
(PID.TID 0000.0001) %MON vort_p_mean                  =  -2.1760527755546E-05
(PID.TID 0000.0001) %MON vort_p_sd                    =   9.7223664844062E-05
(PID.TID 0000.0001) %MON surfExpan_theta_mean         =   1.8768279578822E-07
(PID.TID 0000.0001) %MON surfExpan_salt_mean          =   2.9828139266982E-09
(PID.TID 0000.0001) // =======================================================
(PID.TID 0000.0001) // End MONITOR dynamic field statistics
(PID.TID 0000.0001) // =======================================================
 cg2d: Sum(rhs),rhsMax =  -5.83467816234980E+00  1.62359187853253E-01
 cg2d: Sum(rhs),rhsMax =  -6.11662124378842E+00  1.64185880201562E-01
 cg2d: Sum(rhs),rhsMax =  -6.40760728837984E+00  1.66689198510453E-01
 cg2d: Sum(rhs),rhsMax =  -6.70495169977305E+00  1.69771713195799E-01
(PID.TID 0000.0001)      cg2d_init_res =   3.59837198481228E+00
(PID.TID 0000.0001)      cg2d_iters(min,last) =      -1      38
(PID.TID 0000.0001)      cg2d_last_res =   2.53762811664969E-05
(PID.TID 0000.0001) // =======================================================
(PID.TID 0000.0001) // Begin MONITOR dynamic field statistics
(PID.TID 0000.0001) // =======================================================
(PID.TID 0000.0001) %MON time_tsnumber                =                    40
(PID.TID 0000.0001) %MON time_secondsf                =   3.6000000000000E+04
(PID.TID 0000.0001) %MON dynstat_eta_max              =   1.7003416868596E+00
(PID.TID 0000.0001) %MON dynstat_eta_min              =  -1.9398635031229E+00
(PID.TID 0000.0001) %MON dynstat_eta_mean             =   2.1209903645878E-04
(PID.TID 0000.0001) %MON dynstat_eta_sd               =   5.9408201741621E-01
(PID.TID 0000.0001) %MON dynstat_eta_del2             =   1.1701855281982E-04
(PID.TID 0000.0001) %MON dynstat_uvel_max             =   1.0541672683740E+00
(PID.TID 0000.0001) %MON dynstat_uvel_min             =  -1.3860734141220E+00
(PID.TID 0000.0001) %MON dynstat_uvel_mean            =  -3.8357924101300E-03
(PID.TID 0000.0001) %MON dynstat_uvel_sd              =   2.9281101842942E-02
(PID.TID 0000.0001) %MON dynstat_uvel_del2            =   1.4643949339357E-05
(PID.TID 0000.0001) %MON dynstat_vvel_max             =   1.4379519071820E+00
(PID.TID 0000.0001) %MON dynstat_vvel_min             =  -1.1009386888484E+00
(PID.TID 0000.0001) %MON dynstat_vvel_mean            =   2.7947771863893E-04
(PID.TID 0000.0001) %MON dynstat_vvel_sd              =   2.9793471439197E-02
(PID.TID 0000.0001) %MON dynstat_vvel_del2            =   1.4041923149458E-05
(PID.TID 0000.0001) %MON dynstat_wvel_max             =   2.3918821826864E-03
(PID.TID 0000.0001) %MON dynstat_wvel_min             =  -2.6079256479844E-03
(PID.TID 0000.0001) %MON dynstat_wvel_mean            =   1.2837211878791E-20
(PID.TID 0000.0001) %MON dynstat_wvel_sd              =   9.1420391756598E-05
(PID.TID 0000.0001) %MON dynstat_wvel_del2            =   9.4919805384299E-08
(PID.TID 0000.0001) %MON dynstat_theta_max            =   3.2669692436440E+01
(PID.TID 0000.0001) %MON dynstat_theta_min            =  -2.0417143118795E+00
(PID.TID 0000.0001) %MON dynstat_theta_mean           =   3.5889708368144E+00
(PID.TID 0000.0001) %MON dynstat_theta_sd             =   4.4315919265892E+00
(PID.TID 0000.0001) %MON dynstat_theta_del2           =   1.2048100064712E-04
(PID.TID 0000.0001) %MON dynstat_salt_max             =   3.4561189952373E+01
(PID.TID 0000.0001) %MON dynstat_salt_min             =   2.7237705664864E+01
(PID.TID 0000.0001) %MON dynstat_salt_mean            =   3.4499998683279E+01
(PID.TID 0000.0001) %MON dynstat_salt_sd              =   1.6805397566039E-03
(PID.TID 0000.0001) %MON dynstat_salt_del2            =   4.9683879397301E-06
(PID.TID 0000.0001) %MON dynstat_sst_max              =   3.2669692436440E+01
(PID.TID 0000.0001) %MON dynstat_sst_min              =  -1.9309570666986E+00
(PID.TID 0000.0001) %MON dynstat_sst_mean             =   1.8608080575711E+01
(PID.TID 0000.0001) %MON dynstat_sst_sd               =   9.9487060156912E+00
(PID.TID 0000.0001) %MON dynstat_sst_del2             =   1.1334919995726E-03
(PID.TID 0000.0001) %MON dynstat_sss_max              =   3.4561189952373E+01
(PID.TID 0000.0001) %MON dynstat_sss_min              =   2.7237705664864E+01
(PID.TID 0000.0001) %MON dynstat_sss_mean             =   3.4498378289987E+01
(PID.TID 0000.0001) %MON dynstat_sss_sd               =   3.1589145971227E-02
(PID.TID 0000.0001) %MON dynstat_sss_del2             =   1.9465200420573E-04
(PID.TID 0000.0001) %MON forcing_qnet_max             =   1.2328050866169E+03
(PID.TID 0000.0001) %MON forcing_qnet_min             =  -6.5717510694004E+02
(PID.TID 0000.0001) %MON forcing_qnet_mean            =   4.8918852233988E+01
(PID.TID 0000.0001) %MON forcing_qnet_sd              =   2.0139309497875E+02
(PID.TID 0000.0001) %MON forcing_qnet_del2            =   3.7656959033792E-01
(PID.TID 0000.0001) %MON forcing_qsw_max              =   0.0000000000000E+00
(PID.TID 0000.0001) %MON forcing_qsw_min              =  -4.3274370113970E+02
(PID.TID 0000.0001) %MON forcing_qsw_mean             =  -5.5953616841956E+01
(PID.TID 0000.0001) %MON forcing_qsw_sd               =   1.0326428620388E+02
(PID.TID 0000.0001) %MON forcing_qsw_del2             =   1.7120995896435E-01
(PID.TID 0000.0001) %MON forcing_empmr_max            =   1.8805610015988E-03
(PID.TID 0000.0001) %MON forcing_empmr_min            =  -1.3118524849415E-01
(PID.TID 0000.0001) %MON forcing_empmr_mean           =  -1.0754140039667E-05
(PID.TID 0000.0001) %MON forcing_empmr_sd             =   4.6505658365470E-04
(PID.TID 0000.0001) %MON forcing_empmr_del2           =   4.4232769585979E-06
(PID.TID 0000.0001) %MON forcing_fu_max               =   1.0633750557899E+00
(PID.TID 0000.0001) %MON forcing_fu_min               =  -9.1615355014801E-01
(PID.TID 0000.0001) %MON forcing_fu_mean              =   1.3747604693718E-02
(PID.TID 0000.0001) %MON forcing_fu_sd                =   1.0747103373930E-01
(PID.TID 0000.0001) %MON forcing_fu_del2              =   1.5078041893013E-04
(PID.TID 0000.0001) %MON forcing_fv_max               =   7.7486500144005E-01
(PID.TID 0000.0001) %MON forcing_fv_min               =  -6.3823115229148E-01
(PID.TID 0000.0001) %MON forcing_fv_mean              =  -7.9454529005932E-03
(PID.TID 0000.0001) %MON forcing_fv_sd                =   1.0492545991684E-01
(PID.TID 0000.0001) %MON forcing_fv_del2              =   1.2036376043443E-04
(PID.TID 0000.0001) %MON trAdv_CFL_u_max              =   2.1374540938695E-02
(PID.TID 0000.0001) %MON trAdv_CFL_v_max              =   2.2300452334190E-02
(PID.TID 0000.0001) %MON trAdv_CFL_w_max              =   1.0698038028558E-01
(PID.TID 0000.0001) %MON advcfl_uvel_max              =   2.1375084283863E-02
(PID.TID 0000.0001) %MON advcfl_vvel_max              =   2.2056997412240E-02
(PID.TID 0000.0001) %MON advcfl_wvel_max              =   1.0242802367768E-01
(PID.TID 0000.0001) %MON advcfl_W_hf_max              =   1.0698038028558E-01
(PID.TID 0000.0001) %MON pe_b_mean                    =   4.6424918165064E-04
(PID.TID 0000.0001) %MON ke_max                       =   1.2265096481940E+00
(PID.TID 0000.0001) %MON ke_mean                      =   8.4857101168184E-04
(PID.TID 0000.0001) %MON ke_vol                       =   1.3349978769393E+18
(PID.TID 0000.0001) %MON vort_r_min                   =  -2.4318412366779E-05
(PID.TID 0000.0001) %MON vort_r_max                   =   1.6499606133356E-05
(PID.TID 0000.0001) %MON vort_a_mean                  =  -1.9727864647440E-05
(PID.TID 0000.0001) %MON vort_a_sd                    =   7.4541260582361E-05
(PID.TID 0000.0001) %MON vort_p_mean                  =  -2.1760527755546E-05
(PID.TID 0000.0001) %MON vort_p_sd                    =   9.7225239711625E-05
(PID.TID 0000.0001) %MON surfExpan_theta_mean         =  -7.1509601816427E-06
(PID.TID 0000.0001) %MON surfExpan_salt_mean          =   1.0301044422702E-08
(PID.TID 0000.0001) // =======================================================
(PID.TID 0000.0001) // End MONITOR dynamic field statistics
(PID.TID 0000.0001) // =======================================================
 cg2d: Sum(rhs),rhsMax =  -7.01520680555063E+00  1.73347187118689E-01
 cg2d: Sum(rhs),rhsMax =  -7.32164541966819E+00  1.77344173136843E-01
 cg2d: Sum(rhs),rhsMax =  -7.63663914164931E+00  1.81698570020133E-01
 cg2d: Sum(rhs),rhsMax =  -7.94935368519851E+00  1.86346522660031E-01
(PID.TID 0000.0001)      cg2d_init_res =   3.56388459595280E+00
(PID.TID 0000.0001)      cg2d_iters(min,last) =      -1      39
(PID.TID 0000.0001)      cg2d_last_res =   2.26865219547353E-05
(PID.TID 0000.0001) // =======================================================
(PID.TID 0000.0001) // Begin MONITOR dynamic field statistics
(PID.TID 0000.0001) // =======================================================
(PID.TID 0000.0001) %MON time_tsnumber                =                    44
(PID.TID 0000.0001) %MON time_secondsf                =   3.9600000000000E+04
(PID.TID 0000.0001) %MON dynstat_eta_max              =   2.0049776937677E+00
(PID.TID 0000.0001) %MON dynstat_eta_min              =  -2.1197895748040E+00
(PID.TID 0000.0001) %MON dynstat_eta_mean             =   2.5146344561381E-04
(PID.TID 0000.0001) %MON dynstat_eta_sd               =   5.9506720550830E-01
(PID.TID 0000.0001) %MON dynstat_eta_del2             =   1.1952985182383E-04
(PID.TID 0000.0001) %MON dynstat_uvel_max             =   1.0309417907103E+00
(PID.TID 0000.0001) %MON dynstat_uvel_min             =  -1.3635624711318E+00
(PID.TID 0000.0001) %MON dynstat_uvel_mean            =  -4.0701233309431E-03
(PID.TID 0000.0001) %MON dynstat_uvel_sd              =   2.8826502274700E-02
(PID.TID 0000.0001) %MON dynstat_uvel_del2            =   1.4924367688565E-05
(PID.TID 0000.0001) %MON dynstat_vvel_max             =   1.2234739569793E+00
(PID.TID 0000.0001) %MON dynstat_vvel_min             =  -1.2682747048360E+00
(PID.TID 0000.0001) %MON dynstat_vvel_mean            =   2.0369513460715E-03
(PID.TID 0000.0001) %MON dynstat_vvel_sd              =   3.0020368201936E-02
(PID.TID 0000.0001) %MON dynstat_vvel_del2            =   1.4478885432617E-05
(PID.TID 0000.0001) %MON dynstat_wvel_max             =   2.4324439313821E-03
(PID.TID 0000.0001) %MON dynstat_wvel_min             =  -2.4117359126731E-03
(PID.TID 0000.0001) %MON dynstat_wvel_mean            =   5.1429476033020E-21
(PID.TID 0000.0001) %MON dynstat_wvel_sd              =   9.1985957759841E-05
(PID.TID 0000.0001) %MON dynstat_wvel_del2            =   9.3142674494533E-08
(PID.TID 0000.0001) %MON dynstat_theta_max            =   3.2664333972870E+01
(PID.TID 0000.0001) %MON dynstat_theta_min            =  -2.0414890881125E+00
(PID.TID 0000.0001) %MON dynstat_theta_mean           =   3.5889639857397E+00
(PID.TID 0000.0001) %MON dynstat_theta_sd             =   4.4316293429232E+00
(PID.TID 0000.0001) %MON dynstat_theta_del2           =   1.2030803112451E-04
(PID.TID 0000.0001) %MON dynstat_salt_max             =   3.4561700542643E+01
(PID.TID 0000.0001) %MON dynstat_salt_min             =   2.6711969537161E+01
(PID.TID 0000.0001) %MON dynstat_salt_mean            =   3.4499998440438E+01
(PID.TID 0000.0001) %MON dynstat_salt_sd              =   1.8428365129068E-03
(PID.TID 0000.0001) %MON dynstat_salt_del2            =   5.8112028016259E-06
(PID.TID 0000.0001) %MON dynstat_sst_max              =   3.2664333972870E+01
(PID.TID 0000.0001) %MON dynstat_sst_min              =  -1.9283111305328E+00
(PID.TID 0000.0001) %MON dynstat_sst_mean             =   1.8606420075353E+01
(PID.TID 0000.0001) %MON dynstat_sst_sd               =   9.9499462178033E+00
(PID.TID 0000.0001) %MON dynstat_sst_del2             =   1.1326273409356E-03
(PID.TID 0000.0001) %MON dynstat_sss_max              =   3.4561700542643E+01
(PID.TID 0000.0001) %MON dynstat_sss_min              =   2.6711969537161E+01
(PID.TID 0000.0001) %MON dynstat_sss_mean             =   3.4498163189542E+01
(PID.TID 0000.0001) %MON dynstat_sss_sd               =   3.4750939813484E-02
(PID.TID 0000.0001) %MON dynstat_sss_del2             =   2.2833029844257E-04
(PID.TID 0000.0001) %MON forcing_qnet_max             =   1.0504622707151E+03
(PID.TID 0000.0001) %MON forcing_qnet_min             =  -6.9462516650704E+02
(PID.TID 0000.0001) %MON forcing_qnet_mean            =   5.1890324223407E+01
(PID.TID 0000.0001) %MON forcing_qnet_sd              =   2.0015309872755E+02
(PID.TID 0000.0001) %MON forcing_qnet_del2            =   3.7252151844952E-01
(PID.TID 0000.0001) %MON forcing_qsw_max              =   0.0000000000000E+00
(PID.TID 0000.0001) %MON forcing_qsw_min              =  -4.3908048843467E+02
(PID.TID 0000.0001) %MON forcing_qsw_mean             =  -5.3668764185144E+01
(PID.TID 0000.0001) %MON forcing_qsw_sd               =   1.0142717302819E+02
(PID.TID 0000.0001) %MON forcing_qsw_del2             =   1.6769912937969E-01
(PID.TID 0000.0001) %MON forcing_empmr_max            =   1.8046061741188E-03
(PID.TID 0000.0001) %MON forcing_empmr_min            =  -1.4299061894417E-01
(PID.TID 0000.0001) %MON forcing_empmr_mean           =  -1.1310035988115E-05
(PID.TID 0000.0001) %MON forcing_empmr_sd             =   4.9161882853560E-04
(PID.TID 0000.0001) %MON forcing_empmr_del2           =   4.9836294885487E-06
(PID.TID 0000.0001) %MON forcing_fu_max               =   1.0779176354408E+00
(PID.TID 0000.0001) %MON forcing_fu_min               =  -8.7443152070045E-01
(PID.TID 0000.0001) %MON forcing_fu_mean              =   1.3646585971813E-02
(PID.TID 0000.0001) %MON forcing_fu_sd                =   1.0678766555253E-01
(PID.TID 0000.0001) %MON forcing_fu_del2              =   1.4863008029898E-04
(PID.TID 0000.0001) %MON forcing_fv_max               =   7.8106066584587E-01
(PID.TID 0000.0001) %MON forcing_fv_min               =  -6.7615736368908E-01
(PID.TID 0000.0001) %MON forcing_fv_mean              =  -8.2400821727227E-03
(PID.TID 0000.0001) %MON forcing_fv_sd                =   1.0458494719417E-01
(PID.TID 0000.0001) %MON forcing_fv_del2              =   1.1916073388837E-04
(PID.TID 0000.0001) %MON trAdv_CFL_u_max              =   2.0070249064160E-02
(PID.TID 0000.0001) %MON trAdv_CFL_v_max              =   1.8956744604813E-02
(PID.TID 0000.0001) %MON trAdv_CFL_w_max              =   1.1908184968182E-01
(PID.TID 0000.0001) %MON advcfl_uvel_max              =   2.0070759251371E-02
(PID.TID 0000.0001) %MON advcfl_vvel_max              =   1.8733128486761E-02
(PID.TID 0000.0001) %MON advcfl_wvel_max              =   1.1401453692940E-01
(PID.TID 0000.0001) %MON advcfl_W_hf_max              =   1.1908184968182E-01
(PID.TID 0000.0001) %MON pe_b_mean                    =   4.6579024521682E-04
(PID.TID 0000.0001) %MON ke_max                       =   1.0514647198988E+00
(PID.TID 0000.0001) %MON ke_mean                      =   8.4523787864420E-04
(PID.TID 0000.0001) %MON ke_vol                       =   1.3349978769393E+18
(PID.TID 0000.0001) %MON vort_r_min                   =  -2.2834483046571E-05
(PID.TID 0000.0001) %MON vort_r_max                   =   1.7048947892323E-05
(PID.TID 0000.0001) %MON vort_a_mean                  =  -1.9727864647440E-05
(PID.TID 0000.0001) %MON vort_a_sd                    =   7.4541740131656E-05
(PID.TID 0000.0001) %MON vort_p_mean                  =  -2.1760527755546E-05
(PID.TID 0000.0001) %MON vort_p_sd                    =   9.7227110822464E-05
(PID.TID 0000.0001) %MON surfExpan_theta_mean         =  -3.3886918319039E-06
(PID.TID 0000.0001) %MON surfExpan_salt_mean          =   1.3110502734200E-08
(PID.TID 0000.0001) // =======================================================
(PID.TID 0000.0001) // End MONITOR dynamic field statistics
(PID.TID 0000.0001) // =======================================================
 cg2d: Sum(rhs),rhsMax =  -8.26967126943747E+00  1.91214425807901E-01
 cg2d: Sum(rhs),rhsMax =  -8.59787049336603E+00  1.96227669995465E-01
 cg2d: Sum(rhs),rhsMax =  -8.92548659221490E+00  2.01272330651874E-01
 cg2d: Sum(rhs),rhsMax =  -9.25590932824415E+00  2.06239933013536E-01
(PID.TID 0000.0001)      cg2d_init_res =   3.39820715284063E+00
(PID.TID 0000.0001)      cg2d_iters(min,last) =      -1      39
(PID.TID 0000.0001)      cg2d_last_res =   2.49603398837767E-05
(PID.TID 0000.0001) // =======================================================
(PID.TID 0000.0001) // Begin MONITOR dynamic field statistics
(PID.TID 0000.0001) // =======================================================
(PID.TID 0000.0001) %MON time_tsnumber                =                    48
(PID.TID 0000.0001) %MON time_secondsf                =   4.3200000000000E+04
(PID.TID 0000.0001) %MON dynstat_eta_max              =   2.1731577648728E+00
(PID.TID 0000.0001) %MON dynstat_eta_min              =  -2.0081427169225E+00
(PID.TID 0000.0001) %MON dynstat_eta_mean             =   2.9279397346537E-04
(PID.TID 0000.0001) %MON dynstat_eta_sd               =   5.9893741613842E-01
(PID.TID 0000.0001) %MON dynstat_eta_del2             =   1.2304549857849E-04
(PID.TID 0000.0001) %MON dynstat_uvel_max             =   1.0331036305848E+00
(PID.TID 0000.0001) %MON dynstat_uvel_min             =  -1.2228399076407E+00
(PID.TID 0000.0001) %MON dynstat_uvel_mean            =  -4.5318753608620E-03
(PID.TID 0000.0001) %MON dynstat_uvel_sd              =   2.8168106792993E-02
(PID.TID 0000.0001) %MON dynstat_uvel_del2            =   1.5103600240885E-05
(PID.TID 0000.0001) %MON dynstat_vvel_max             =   1.1811123538643E+00
(PID.TID 0000.0001) %MON dynstat_vvel_min             =  -1.4110536960156E+00
(PID.TID 0000.0001) %MON dynstat_vvel_mean            =   3.2987231799111E-03
(PID.TID 0000.0001) %MON dynstat_vvel_sd              =   3.0083247354826E-02
(PID.TID 0000.0001) %MON dynstat_vvel_del2            =   1.4867419385022E-05
(PID.TID 0000.0001) %MON dynstat_wvel_max             =   2.3824179283911E-03
(PID.TID 0000.0001) %MON dynstat_wvel_min             =  -2.4251575726634E-03
(PID.TID 0000.0001) %MON dynstat_wvel_mean            =  -6.8764607372257E-21
(PID.TID 0000.0001) %MON dynstat_wvel_sd              =   9.1857265929379E-05
(PID.TID 0000.0001) %MON dynstat_wvel_del2            =   9.1529915894770E-08
(PID.TID 0000.0001) %MON dynstat_theta_max            =   3.2652693066774E+01
(PID.TID 0000.0001) %MON dynstat_theta_min            =  -2.0412656324359E+00
(PID.TID 0000.0001) %MON dynstat_theta_mean           =   3.5889506832834E+00
(PID.TID 0000.0001) %MON dynstat_theta_sd             =   4.4316710649283E+00
(PID.TID 0000.0001) %MON dynstat_theta_del2           =   1.2014338878798E-04
(PID.TID 0000.0001) %MON dynstat_salt_max             =   3.4562051911312E+01
(PID.TID 0000.0001) %MON dynstat_salt_min             =   2.6293681537634E+01
(PID.TID 0000.0001) %MON dynstat_salt_mean            =   3.4499998175665E+01
(PID.TID 0000.0001) %MON dynstat_salt_sd              =   1.9920643461736E-03
(PID.TID 0000.0001) %MON dynstat_salt_del2            =   6.6587090531826E-06
(PID.TID 0000.0001) %MON dynstat_sst_max              =   3.2652693066774E+01
(PID.TID 0000.0001) %MON dynstat_sst_min              =  -1.9256839323275E+00
(PID.TID 0000.0001) %MON dynstat_sst_mean             =   1.8604698409428E+01
(PID.TID 0000.0001) %MON dynstat_sst_sd               =   9.9511412692139E+00
(PID.TID 0000.0001) %MON dynstat_sst_del2             =   1.1315616967330E-03
(PID.TID 0000.0001) %MON dynstat_sss_max              =   3.4562051911312E+01
(PID.TID 0000.0001) %MON dynstat_sss_min              =   2.6293681537634E+01
(PID.TID 0000.0001) %MON dynstat_sss_mean             =   3.4497960066766E+01
(PID.TID 0000.0001) %MON dynstat_sss_sd               =   3.7651883229304E-02
(PID.TID 0000.0001) %MON dynstat_sss_del2             =   2.6209057851704E-04
(PID.TID 0000.0001) %MON forcing_qnet_max             =   9.0655449965461E+02
(PID.TID 0000.0001) %MON forcing_qnet_min             =  -7.0785176677567E+02
(PID.TID 0000.0001) %MON forcing_qnet_mean            =   4.9212176734327E+01
(PID.TID 0000.0001) %MON forcing_qnet_sd              =   1.9622205266015E+02
(PID.TID 0000.0001) %MON forcing_qnet_del2            =   3.6775864818665E-01
(PID.TID 0000.0001) %MON forcing_qsw_max              =   0.0000000000000E+00
(PID.TID 0000.0001) %MON forcing_qsw_min              =  -4.4187866479242E+02
(PID.TID 0000.0001) %MON forcing_qsw_mean             =  -5.3766174990382E+01
(PID.TID 0000.0001) %MON forcing_qsw_sd               =   9.7902330762540E+01
(PID.TID 0000.0001) %MON forcing_qsw_del2             =   1.6515510097238E-01
(PID.TID 0000.0001) %MON forcing_empmr_max            =   1.7306858208030E-03
(PID.TID 0000.0001) %MON forcing_empmr_min            =  -1.3003611564636E-01
(PID.TID 0000.0001) %MON forcing_empmr_mean           =  -1.1950493230692E-05
(PID.TID 0000.0001) %MON forcing_empmr_sd             =   4.6835184860439E-04
(PID.TID 0000.0001) %MON forcing_empmr_del2           =   4.8710856625844E-06
(PID.TID 0000.0001) %MON forcing_fu_max               =   1.0815721154213E+00
(PID.TID 0000.0001) %MON forcing_fu_min               =  -8.4285166859627E-01
(PID.TID 0000.0001) %MON forcing_fu_mean              =   1.3392184554394E-02
(PID.TID 0000.0001) %MON forcing_fu_sd                =   1.0622290564473E-01
(PID.TID 0000.0001) %MON forcing_fu_del2              =   1.4675438581090E-04
(PID.TID 0000.0001) %MON forcing_fv_max               =   7.8558164834976E-01
(PID.TID 0000.0001) %MON forcing_fv_min               =  -6.9019130076056E-01
(PID.TID 0000.0001) %MON forcing_fv_mean              =  -8.3224324797959E-03
(PID.TID 0000.0001) %MON forcing_fv_sd                =   1.0407764043600E-01
(PID.TID 0000.0001) %MON forcing_fv_del2              =   1.1786209424926E-04
(PID.TID 0000.0001) %MON trAdv_CFL_u_max              =   1.7936768440449E-02
(PID.TID 0000.0001) %MON trAdv_CFL_v_max              =   1.6105459836744E-02
(PID.TID 0000.0001) %MON trAdv_CFL_w_max              =   1.2275481974080E-01
(PID.TID 0000.0001) %MON advcfl_uvel_max              =   1.7673938658115E-02
(PID.TID 0000.0001) %MON advcfl_vvel_max              =   1.5925994821523E-02
(PID.TID 0000.0001) %MON advcfl_wvel_max              =   1.1753121039013E-01
(PID.TID 0000.0001) %MON advcfl_W_hf_max              =   1.2275481974080E-01
(PID.TID 0000.0001) %MON pe_b_mean                    =   4.7186880932632E-04
(PID.TID 0000.0001) %MON ke_max                       =   1.0574567279727E+00
(PID.TID 0000.0001) %MON ke_mean                      =   8.3413156966547E-04
(PID.TID 0000.0001) %MON ke_vol                       =   1.3349978769393E+18
(PID.TID 0000.0001) %MON vort_r_min                   =  -2.1079306717479E-05
(PID.TID 0000.0001) %MON vort_r_max                   =   1.6793173741245E-05
(PID.TID 0000.0001) %MON vort_a_mean                  =  -1.9727864647440E-05
(PID.TID 0000.0001) %MON vort_a_sd                    =   7.4542102460020E-05
(PID.TID 0000.0001) %MON vort_p_mean                  =  -2.1760527755546E-05
(PID.TID 0000.0001) %MON vort_p_sd                    =   9.7228963231404E-05
(PID.TID 0000.0001) %MON surfExpan_theta_mean         =   4.7570037545889E-06
(PID.TID 0000.0001) %MON surfExpan_salt_mean          =   1.1842091760354E-08
(PID.TID 0000.0001) // =======================================================
(PID.TID 0000.0001) // End MONITOR dynamic field statistics
(PID.TID 0000.0001) // =======================================================
 cg2d: Sum(rhs),rhsMax =  -9.58392922982316E+00  2.11006506302625E-01
 cg2d: Sum(rhs),rhsMax =  -9.91347813630317E+00  2.15448412305643E-01
 cg2d: Sum(rhs),rhsMax =  -1.02420493814830E+01  2.19445632197036E-01
 cg2d: Sum(rhs),rhsMax =  -1.05722852789755E+01  2.22963288418890E-01
(PID.TID 0000.0001)      cg2d_init_res =   3.24039227781188E+00
(PID.TID 0000.0001)      cg2d_iters(min,last) =      -1      39
(PID.TID 0000.0001)      cg2d_last_res =   2.35448221462163E-05
(PID.TID 0000.0001) // =======================================================
(PID.TID 0000.0001) // Begin MONITOR dynamic field statistics
(PID.TID 0000.0001) // =======================================================
(PID.TID 0000.0001) %MON time_tsnumber                =                    52
(PID.TID 0000.0001) %MON time_secondsf                =   4.6800000000000E+04
(PID.TID 0000.0001) %MON dynstat_eta_max              =   2.3005964641011E+00
(PID.TID 0000.0001) %MON dynstat_eta_min              =  -2.3771247329223E+00
(PID.TID 0000.0001) %MON dynstat_eta_mean             =   3.3443514901276E-04
(PID.TID 0000.0001) %MON dynstat_eta_sd               =   6.0416672160142E-01
(PID.TID 0000.0001) %MON dynstat_eta_del2             =   1.2327105250012E-04
(PID.TID 0000.0001) %MON dynstat_uvel_max             =   1.0384277773930E+00
(PID.TID 0000.0001) %MON dynstat_uvel_min             =  -1.0563004129448E+00
(PID.TID 0000.0001) %MON dynstat_uvel_mean            =  -5.0615767955262E-03
(PID.TID 0000.0001) %MON dynstat_uvel_sd              =   2.7618152348848E-02
(PID.TID 0000.0001) %MON dynstat_uvel_del2            =   1.5304933781237E-05
(PID.TID 0000.0001) %MON dynstat_vvel_max             =   1.2720510699773E+00
(PID.TID 0000.0001) %MON dynstat_vvel_min             =  -1.4733077226061E+00
(PID.TID 0000.0001) %MON dynstat_vvel_mean            =   3.8767799159565E-03
(PID.TID 0000.0001) %MON dynstat_vvel_sd              =   2.9935905155103E-02
(PID.TID 0000.0001) %MON dynstat_vvel_del2            =   1.5199776053692E-05
(PID.TID 0000.0001) %MON dynstat_wvel_max             =   2.2548290508624E-03
(PID.TID 0000.0001) %MON dynstat_wvel_min             =  -2.4248949962455E-03
(PID.TID 0000.0001) %MON dynstat_wvel_mean            =   2.2676770647258E-21
(PID.TID 0000.0001) %MON dynstat_wvel_sd              =   9.0761661875530E-05
(PID.TID 0000.0001) %MON dynstat_wvel_del2            =   9.0633679979139E-08
(PID.TID 0000.0001) %MON dynstat_theta_max            =   3.2647375025431E+01
(PID.TID 0000.0001) %MON dynstat_theta_min            =  -2.0410771407869E+00
(PID.TID 0000.0001) %MON dynstat_theta_mean           =   3.5889309947699E+00
(PID.TID 0000.0001) %MON dynstat_theta_sd             =   4.4316905098093E+00
(PID.TID 0000.0001) %MON dynstat_theta_del2           =   1.1998759716651E-04
(PID.TID 0000.0001) %MON dynstat_salt_max             =   3.4562348621747E+01
(PID.TID 0000.0001) %MON dynstat_salt_min             =   2.5949285591248E+01
(PID.TID 0000.0001) %MON dynstat_salt_mean            =   3.4499997907678E+01
(PID.TID 0000.0001) %MON dynstat_salt_sd              =   2.1254682082897E-03
(PID.TID 0000.0001) %MON dynstat_salt_del2            =   7.4325323106406E-06
(PID.TID 0000.0001) %MON dynstat_sst_max              =   3.2638538166008E+01
(PID.TID 0000.0001) %MON dynstat_sst_min              =  -1.9230752898816E+00
(PID.TID 0000.0001) %MON dynstat_sst_mean             =   1.8603180202080E+01
(PID.TID 0000.0001) %MON dynstat_sst_sd               =   9.9521605520372E+00
(PID.TID 0000.0001) %MON dynstat_sst_del2             =   1.1299743220386E-03
(PID.TID 0000.0001) %MON dynstat_sss_max              =   3.4562348621747E+01
(PID.TID 0000.0001) %MON dynstat_sss_min              =   2.5949285591248E+01
(PID.TID 0000.0001) %MON dynstat_sss_mean             =   3.4497763439315E+01
(PID.TID 0000.0001) %MON dynstat_sss_sd               =   4.0237805517577E-02
(PID.TID 0000.0001) %MON dynstat_sss_del2             =   2.9281362985963E-04
(PID.TID 0000.0001) %MON forcing_qnet_max             =   1.2334011796726E+03
(PID.TID 0000.0001) %MON forcing_qnet_min             =  -7.0028289678789E+02
(PID.TID 0000.0001) %MON forcing_qnet_mean            =   4.2842137781199E+01
(PID.TID 0000.0001) %MON forcing_qnet_sd              =   1.9438331185086E+02
(PID.TID 0000.0001) %MON forcing_qnet_del2            =   3.6924264849885E-01
(PID.TID 0000.0001) %MON forcing_qsw_max              =   0.0000000000000E+00
(PID.TID 0000.0001) %MON forcing_qsw_min              =  -4.2163465184012E+02
(PID.TID 0000.0001) %MON forcing_qsw_mean             =  -5.5598868274036E+01
(PID.TID 0000.0001) %MON forcing_qsw_sd               =   9.5670549689074E+01
(PID.TID 0000.0001) %MON forcing_qsw_del2             =   1.6474829997361E-01
(PID.TID 0000.0001) %MON forcing_empmr_max            =   1.6611057799309E-03
(PID.TID 0000.0001) %MON forcing_empmr_min            =  -1.0401461273432E-01
(PID.TID 0000.0001) %MON forcing_empmr_mean           =  -1.1943735788112E-05
(PID.TID 0000.0001) %MON forcing_empmr_sd             =   4.2153299192780E-04
(PID.TID 0000.0001) %MON forcing_empmr_del2           =   4.4374500188271E-06
(PID.TID 0000.0001) %MON forcing_fu_max               =   1.0584664344788E+00
(PID.TID 0000.0001) %MON forcing_fu_min               =  -8.0710738897324E-01
(PID.TID 0000.0001) %MON forcing_fu_mean              =   1.3105453073418E-02
(PID.TID 0000.0001) %MON forcing_fu_sd                =   1.0563875368282E-01
(PID.TID 0000.0001) %MON forcing_fu_del2              =   1.4474703308309E-04
(PID.TID 0000.0001) %MON forcing_fv_max               =   8.0587938427925E-01
(PID.TID 0000.0001) %MON forcing_fv_min               =  -6.8407465165929E-01
(PID.TID 0000.0001) %MON forcing_fv_mean              =  -8.2040165843140E-03
(PID.TID 0000.0001) %MON forcing_fv_sd                =   1.0369667053449E-01
(PID.TID 0000.0001) %MON forcing_fv_del2              =   1.1756709112897E-04
(PID.TID 0000.0001) %MON trAdv_CFL_u_max              =   1.5740882897572E-02
(PID.TID 0000.0001) %MON trAdv_CFL_v_max              =   1.3843393559946E-02
(PID.TID 0000.0001) %MON trAdv_CFL_w_max              =   1.2270917138565E-01
(PID.TID 0000.0001) %MON advcfl_uvel_max              =   1.5508692204903E-02
(PID.TID 0000.0001) %MON advcfl_vvel_max              =   1.4051315114260E-02
(PID.TID 0000.0001) %MON advcfl_wvel_max              =   1.1748750451818E-01
(PID.TID 0000.0001) %MON advcfl_W_hf_max              =   1.2270917138565E-01
(PID.TID 0000.0001) %MON pe_b_mean                    =   4.8014455837612E-04
(PID.TID 0000.0001) %MON ke_max                       =   1.0265794250536E+00
(PID.TID 0000.0001) %MON ke_mean                      =   8.1952650443241E-04
(PID.TID 0000.0001) %MON ke_vol                       =   1.3349978769393E+18
(PID.TID 0000.0001) %MON vort_r_min                   =  -2.3599956707885E-05
(PID.TID 0000.0001) %MON vort_r_max                   =   1.7534272224128E-05
(PID.TID 0000.0001) %MON vort_a_mean                  =  -1.9727864647440E-05
(PID.TID 0000.0001) %MON vort_a_sd                    =   7.4542332182437E-05
(PID.TID 0000.0001) %MON vort_p_mean                  =  -2.1760527755546E-05
(PID.TID 0000.0001) %MON vort_p_sd                    =   9.7230510036880E-05
(PID.TID 0000.0001) %MON surfExpan_theta_mean         =   1.2161458087722E-05
(PID.TID 0000.0001) %MON surfExpan_salt_mean          =   6.5125125512116E-09
(PID.TID 0000.0001) // =======================================================
(PID.TID 0000.0001) // End MONITOR dynamic field statistics
(PID.TID 0000.0001) // =======================================================
 cg2d: Sum(rhs),rhsMax =  -1.09066603193616E+01  2.26505402686279E-01
 cg2d: Sum(rhs),rhsMax =  -1.12364375746237E+01  2.29333259228839E-01
 cg2d: Sum(rhs),rhsMax =  -1.15671828141999E+01  2.31390195868494E-01
 cg2d: Sum(rhs),rhsMax =  -1.19082346853665E+01  2.32653525643980E-01
(PID.TID 0000.0001)      cg2d_init_res =   3.23940493170520E+00
(PID.TID 0000.0001)      cg2d_iters(min,last) =      -1      38
(PID.TID 0000.0001)      cg2d_last_res =   2.79308211387367E-05
(PID.TID 0000.0001) // =======================================================
(PID.TID 0000.0001) // Begin MONITOR dynamic field statistics
(PID.TID 0000.0001) // =======================================================
(PID.TID 0000.0001) %MON time_tsnumber                =                    56
(PID.TID 0000.0001) %MON time_secondsf                =   5.0400000000000E+04
(PID.TID 0000.0001) %MON dynstat_eta_max              =   2.4086917854502E+00
(PID.TID 0000.0001) %MON dynstat_eta_min              =  -2.3474325750379E+00
(PID.TID 0000.0001) %MON dynstat_eta_mean             =   3.7669549547619E-04
(PID.TID 0000.0001) %MON dynstat_eta_sd               =   6.0852927674963E-01
(PID.TID 0000.0001) %MON dynstat_eta_del2             =   1.2215454088931E-04
(PID.TID 0000.0001) %MON dynstat_uvel_max             =   1.0051861454463E+00
(PID.TID 0000.0001) %MON dynstat_uvel_min             =  -1.0087047472591E+00
(PID.TID 0000.0001) %MON dynstat_uvel_mean            =  -5.4794396201650E-03
(PID.TID 0000.0001) %MON dynstat_uvel_sd              =   2.7320378278917E-02
(PID.TID 0000.0001) %MON dynstat_uvel_del2            =   1.5555587382793E-05
(PID.TID 0000.0001) %MON dynstat_vvel_max             =   1.3039240509074E+00
(PID.TID 0000.0001) %MON dynstat_vvel_min             =  -1.5359429067501E+00
(PID.TID 0000.0001) %MON dynstat_vvel_mean            =   3.7613743814012E-03
(PID.TID 0000.0001) %MON dynstat_vvel_sd              =   2.9661142591947E-02
(PID.TID 0000.0001) %MON dynstat_vvel_del2            =   1.5444682502373E-05
(PID.TID 0000.0001) %MON dynstat_wvel_max             =   2.0844477381156E-03
(PID.TID 0000.0001) %MON dynstat_wvel_min             =  -2.3939523255994E-03
(PID.TID 0000.0001) %MON dynstat_wvel_mean            =   2.6780186288190E-21
(PID.TID 0000.0001) %MON dynstat_wvel_sd              =   8.8906917533152E-05
(PID.TID 0000.0001) %MON dynstat_wvel_del2            =   9.0471501180104E-08
(PID.TID 0000.0001) %MON dynstat_theta_max            =   3.2634615399153E+01
(PID.TID 0000.0001) %MON dynstat_theta_min            =  -2.0409403253127E+00
(PID.TID 0000.0001) %MON dynstat_theta_mean           =   3.5889076851306E+00
(PID.TID 0000.0001) %MON dynstat_theta_sd             =   4.4316750027234E+00
(PID.TID 0000.0001) %MON dynstat_theta_del2           =   1.1984486161237E-04
(PID.TID 0000.0001) %MON dynstat_salt_max             =   3.4562678024019E+01
(PID.TID 0000.0001) %MON dynstat_salt_min             =   2.5615949442185E+01
(PID.TID 0000.0001) %MON dynstat_salt_mean            =   3.4499997643039E+01
(PID.TID 0000.0001) %MON dynstat_salt_sd              =   2.2467638369078E-03
(PID.TID 0000.0001) %MON dynstat_salt_del2            =   8.1099441397851E-06
(PID.TID 0000.0001) %MON dynstat_sst_max              =   3.2634590318340E+01
(PID.TID 0000.0001) %MON dynstat_sst_min              =  -1.9204970492443E+00
(PID.TID 0000.0001) %MON dynstat_sst_mean             =   1.8602059166756E+01
(PID.TID 0000.0001) %MON dynstat_sst_sd               =   9.9528760182069E+00
(PID.TID 0000.0001) %MON dynstat_sst_del2             =   1.1278549483763E-03
(PID.TID 0000.0001) %MON dynstat_sss_max              =   3.4562678024019E+01
(PID.TID 0000.0001) %MON dynstat_sss_min              =   2.5615949442185E+01
(PID.TID 0000.0001) %MON dynstat_sss_mean             =   3.4497564669793E+01
(PID.TID 0000.0001) %MON dynstat_sss_sd               =   4.2582616472064E-02
(PID.TID 0000.0001) %MON dynstat_sss_del2             =   3.1959802035259E-04
(PID.TID 0000.0001) %MON forcing_qnet_max             =   9.9214351399569E+02
(PID.TID 0000.0001) %MON forcing_qnet_min             =  -6.8824978540017E+02
(PID.TID 0000.0001) %MON forcing_qnet_mean            =   3.5680943069880E+01
(PID.TID 0000.0001) %MON forcing_qnet_sd              =   1.9710968056707E+02
(PID.TID 0000.0001) %MON forcing_qnet_del2            =   3.6853628047979E-01
(PID.TID 0000.0001) %MON forcing_qsw_max              =   0.0000000000000E+00
(PID.TID 0000.0001) %MON forcing_qsw_min              =  -3.9566800150618E+02
(PID.TID 0000.0001) %MON forcing_qsw_mean             =  -5.8116686432270E+01
(PID.TID 0000.0001) %MON forcing_qsw_sd               =   9.7448600893105E+01
(PID.TID 0000.0001) %MON forcing_qsw_del2             =   1.6669215318732E-01
(PID.TID 0000.0001) %MON forcing_empmr_max            =   1.5923394821584E-03
(PID.TID 0000.0001) %MON forcing_empmr_min            =  -9.0853720903397E-02
(PID.TID 0000.0001) %MON forcing_empmr_mean           =  -1.2334920189365E-05
(PID.TID 0000.0001) %MON forcing_empmr_sd             =   3.7350797012674E-04
(PID.TID 0000.0001) %MON forcing_empmr_del2           =   3.8967204293904E-06
(PID.TID 0000.0001) %MON forcing_fu_max               =   1.0683339238167E+00
(PID.TID 0000.0001) %MON forcing_fu_min               =  -7.7409237623215E-01
(PID.TID 0000.0001) %MON forcing_fu_mean              =   1.2778400874909E-02
(PID.TID 0000.0001) %MON forcing_fu_sd                =   1.0507849462402E-01
(PID.TID 0000.0001) %MON forcing_fu_del2              =   1.4309090752291E-04
(PID.TID 0000.0001) %MON forcing_fv_max               =   7.9304599761963E-01
(PID.TID 0000.0001) %MON forcing_fv_min               =  -6.9547305748380E-01
(PID.TID 0000.0001) %MON forcing_fv_mean              =  -8.0031387952262E-03
(PID.TID 0000.0001) %MON forcing_fv_sd                =   1.0328103374184E-01
(PID.TID 0000.0001) %MON forcing_fv_del2              =   1.1708461281973E-04
(PID.TID 0000.0001) %MON trAdv_CFL_u_max              =   1.5031617062604E-02
(PID.TID 0000.0001) %MON trAdv_CFL_v_max              =   1.3529269024488E-02
(PID.TID 0000.0001) %MON trAdv_CFL_w_max              =   1.2291692817754E-01
(PID.TID 0000.0001) %MON advcfl_uvel_max              =   1.4809888606645E-02
(PID.TID 0000.0001) %MON advcfl_vvel_max              =   1.3548262173435E-02
(PID.TID 0000.0001) %MON advcfl_wvel_max              =   1.1758747480313E-01
(PID.TID 0000.0001) %MON advcfl_W_hf_max              =   1.2291692817754E-01
(PID.TID 0000.0001) %MON pe_b_mean                    =   4.8710366706861E-04
(PID.TID 0000.0001) %MON ke_max                       =   1.1246525586898E+00
(PID.TID 0000.0001) %MON ke_mean                      =   8.0544147757309E-04
(PID.TID 0000.0001) %MON ke_vol                       =   1.3349978769393E+18
(PID.TID 0000.0001) %MON vort_r_min                   =  -2.5871155495606E-05
(PID.TID 0000.0001) %MON vort_r_max                   =   1.8275220844403E-05
(PID.TID 0000.0001) %MON vort_a_mean                  =  -1.9727864647440E-05
(PID.TID 0000.0001) %MON vort_a_sd                    =   7.4542441497438E-05
(PID.TID 0000.0001) %MON vort_p_mean                  =  -2.1760527755546E-05
(PID.TID 0000.0001) %MON vort_p_sd                    =   9.7231548101845E-05
(PID.TID 0000.0001) %MON surfExpan_theta_mean         =   1.6378584925016E-05
(PID.TID 0000.0001) %MON surfExpan_salt_mean          =  -8.7189907371134E-10
(PID.TID 0000.0001) // =======================================================
(PID.TID 0000.0001) // End MONITOR dynamic field statistics
(PID.TID 0000.0001) // =======================================================
 cg2d: Sum(rhs),rhsMax =  -1.22425181361647E+01  2.33136105668934E-01
 cg2d: Sum(rhs),rhsMax =  -1.25874847876748E+01  2.32884994922987E-01
 cg2d: Sum(rhs),rhsMax =  -1.29415759977228E+01  2.31977208679242E-01
 cg2d: Sum(rhs),rhsMax =  -1.32992952121471E+01  2.30516619134219E-01
(PID.TID 0000.0001)      cg2d_init_res =   3.26688407486535E+00
(PID.TID 0000.0001)      cg2d_iters(min,last) =      -1      38
(PID.TID 0000.0001)      cg2d_last_res =   2.21883337131351E-05
(PID.TID 0000.0001) // =======================================================
(PID.TID 0000.0001) // Begin MONITOR dynamic field statistics
(PID.TID 0000.0001) // =======================================================
(PID.TID 0000.0001) %MON time_tsnumber                =                    60
(PID.TID 0000.0001) %MON time_secondsf                =   5.4000000000000E+04
(PID.TID 0000.0001) %MON dynstat_eta_max              =   2.3794135745733E+00
(PID.TID 0000.0001) %MON dynstat_eta_min              =  -2.4528393154981E+00
(PID.TID 0000.0001) %MON dynstat_eta_mean             =   4.2069918269074E-04
(PID.TID 0000.0001) %MON dynstat_eta_sd               =   6.1158114395480E-01
(PID.TID 0000.0001) %MON dynstat_eta_del2             =   1.2053301272619E-04
(PID.TID 0000.0001) %MON dynstat_uvel_max             =   1.0079075192343E+00
(PID.TID 0000.0001) %MON dynstat_uvel_min             =  -1.0299141532173E+00
(PID.TID 0000.0001) %MON dynstat_uvel_mean            =  -5.6306616725441E-03
(PID.TID 0000.0001) %MON dynstat_uvel_sd              =   2.7194865604115E-02
(PID.TID 0000.0001) %MON dynstat_uvel_del2            =   1.5817090842237E-05
(PID.TID 0000.0001) %MON dynstat_vvel_max             =   1.2749356339395E+00
(PID.TID 0000.0001) %MON dynstat_vvel_min             =  -1.6559969369351E+00
(PID.TID 0000.0001) %MON dynstat_vvel_mean            =   3.0804664572987E-03
(PID.TID 0000.0001) %MON dynstat_vvel_sd              =   2.9419155160629E-02
(PID.TID 0000.0001) %MON dynstat_vvel_del2            =   1.5579578607215E-05
(PID.TID 0000.0001) %MON dynstat_wvel_max             =   2.2080737180932E-03
(PID.TID 0000.0001) %MON dynstat_wvel_min             =  -2.3054692138342E-03
(PID.TID 0000.0001) %MON dynstat_wvel_mean            =  -1.6240887168322E-21
(PID.TID 0000.0001) %MON dynstat_wvel_sd              =   8.6555804120836E-05
(PID.TID 0000.0001) %MON dynstat_wvel_del2            =   9.0651686397149E-08
(PID.TID 0000.0001) %MON dynstat_theta_max            =   3.2626497923807E+01
(PID.TID 0000.0001) %MON dynstat_theta_min            =  -2.0408485556909E+00
(PID.TID 0000.0001) %MON dynstat_theta_mean           =   3.5888839489836E+00
(PID.TID 0000.0001) %MON dynstat_theta_sd             =   4.4316258616692E+00
(PID.TID 0000.0001) %MON dynstat_theta_del2           =   1.1972286749334E-04
(PID.TID 0000.0001) %MON dynstat_salt_max             =   3.4563007221334E+01
(PID.TID 0000.0001) %MON dynstat_salt_min             =   2.5252143452546E+01
(PID.TID 0000.0001) %MON dynstat_salt_mean            =   3.4499997367944E+01
(PID.TID 0000.0001) %MON dynstat_salt_sd              =   2.3600381687600E-03
(PID.TID 0000.0001) %MON dynstat_salt_del2            =   8.6835314408885E-06
(PID.TID 0000.0001) %MON dynstat_sst_max              =   3.2626478756840E+01
(PID.TID 0000.0001) %MON dynstat_sst_min              =  -1.9179668407290E+00
(PID.TID 0000.0001) %MON dynstat_sst_mean             =   1.8601365193231E+01
(PID.TID 0000.0001) %MON dynstat_sst_sd               =   9.9532724072290E+00
(PID.TID 0000.0001) %MON dynstat_sst_del2             =   1.1252195155097E-03
(PID.TID 0000.0001) %MON dynstat_sss_max              =   3.4563007221334E+01
(PID.TID 0000.0001) %MON dynstat_sss_min              =   2.5252143452546E+01
(PID.TID 0000.0001) %MON dynstat_sss_mean             =   3.4497373487054E+01
(PID.TID 0000.0001) %MON dynstat_sss_sd               =   4.4765958800498E-02
(PID.TID 0000.0001) %MON dynstat_sss_del2             =   3.4212230198155E-04
(PID.TID 0000.0001) %MON forcing_qnet_max             =   1.4540626220703E+03
(PID.TID 0000.0001) %MON forcing_qnet_min             =  -6.7320643856018E+02
(PID.TID 0000.0001) %MON forcing_qnet_mean            =   2.9735070602446E+01
(PID.TID 0000.0001) %MON forcing_qnet_sd              =   2.0513847263847E+02
(PID.TID 0000.0001) %MON forcing_qnet_del2            =   3.9218906307828E-01
(PID.TID 0000.0001) %MON forcing_qsw_max              =   0.0000000000000E+00
(PID.TID 0000.0001) %MON forcing_qsw_min              =  -4.0874436284194E+02
(PID.TID 0000.0001) %MON forcing_qsw_mean             =  -6.0354971546851E+01
(PID.TID 0000.0001) %MON forcing_qsw_sd               =   1.0315242445290E+02
(PID.TID 0000.0001) %MON forcing_qsw_del2             =   1.7118151115327E-01
(PID.TID 0000.0001) %MON forcing_empmr_max            =   1.5273708850145E-03
(PID.TID 0000.0001) %MON forcing_empmr_min            =  -8.1055060029030E-02
(PID.TID 0000.0001) %MON forcing_empmr_mean           =  -1.2937732741272E-05
(PID.TID 0000.0001) %MON forcing_empmr_sd             =   3.3785396883667E-04
(PID.TID 0000.0001) %MON forcing_empmr_del2           =   3.3526703284534E-06
(PID.TID 0000.0001) %MON forcing_fu_max               =   1.0585924386978E+00
(PID.TID 0000.0001) %MON forcing_fu_min               =  -7.2294723987579E-01
(PID.TID 0000.0001) %MON forcing_fu_mean              =   1.2393943397345E-02
(PID.TID 0000.0001) %MON forcing_fu_sd                =   1.0422005520584E-01
(PID.TID 0000.0001) %MON forcing_fu_del2              =   1.4138856851139E-04
(PID.TID 0000.0001) %MON forcing_fv_max               =   8.0523887276650E-01
(PID.TID 0000.0001) %MON forcing_fv_min               =  -7.0419576960295E-01
(PID.TID 0000.0001) %MON forcing_fv_mean              =  -7.7808743010129E-03
(PID.TID 0000.0001) %MON forcing_fv_sd                =   1.0282203349560E-01
(PID.TID 0000.0001) %MON forcing_fv_del2              =   1.1616534004361E-04
(PID.TID 0000.0001) %MON trAdv_CFL_u_max              =   1.5347677504825E-02
(PID.TID 0000.0001) %MON trAdv_CFL_v_max              =   1.3934527411307E-02
(PID.TID 0000.0001) %MON trAdv_CFL_w_max              =   1.2401288104074E-01
(PID.TID 0000.0001) %MON advcfl_uvel_max              =   1.5273915571833E-02
(PID.TID 0000.0001) %MON advcfl_vvel_max              =   1.3954089484776E-02
(PID.TID 0000.0001) %MON advcfl_wvel_max              =   1.1848459334128E-01
(PID.TID 0000.0001) %MON advcfl_W_hf_max              =   1.2401288104074E-01
(PID.TID 0000.0001) %MON pe_b_mean                    =   4.9200176133735E-04
(PID.TID 0000.0001) %MON ke_max                       =   1.1505710854606E+00
(PID.TID 0000.0001) %MON ke_mean                      =   7.9381169240382E-04
(PID.TID 0000.0001) %MON ke_vol                       =   1.3349978769393E+18
(PID.TID 0000.0001) %MON vort_r_min                   =  -2.7845755286646E-05
(PID.TID 0000.0001) %MON vort_r_max                   =   1.9054061673972E-05
(PID.TID 0000.0001) %MON vort_a_mean                  =  -1.9727864647440E-05
(PID.TID 0000.0001) %MON vort_a_sd                    =   7.4542461504663E-05
(PID.TID 0000.0001) %MON vort_p_mean                  =  -2.1760527755546E-05
(PID.TID 0000.0001) %MON vort_p_sd                    =   9.7232003218538E-05
(PID.TID 0000.0001) %MON surfExpan_theta_mean         =   1.7028242894868E-05
(PID.TID 0000.0001) %MON surfExpan_salt_mean          =  -7.0264919283122E-09
(PID.TID 0000.0001) // =======================================================
(PID.TID 0000.0001) // End MONITOR dynamic field statistics
(PID.TID 0000.0001) // =======================================================
 cg2d: Sum(rhs),rhsMax =  -1.36547519576028E+01  2.28626627557924E-01
 cg2d: Sum(rhs),rhsMax =  -1.40014879659748E+01  2.26443091977403E-01
 cg2d: Sum(rhs),rhsMax =  -1.43475519557412E+01  2.24106339907824E-01
 cg2d: Sum(rhs),rhsMax =  -1.47017641009661E+01  2.21752222798688E-01
(PID.TID 0000.0001)      cg2d_init_res =   3.18836752560290E+00
(PID.TID 0000.0001)      cg2d_iters(min,last) =      -1      37
(PID.TID 0000.0001)      cg2d_last_res =   2.76701729986882E-05
(PID.TID 0000.0001) // =======================================================
(PID.TID 0000.0001) // Begin MONITOR dynamic field statistics
(PID.TID 0000.0001) // =======================================================
(PID.TID 0000.0001) %MON time_tsnumber                =                    64
(PID.TID 0000.0001) %MON time_secondsf                =   5.7600000000000E+04
(PID.TID 0000.0001) %MON dynstat_eta_max              =   2.2457850194419E+00
(PID.TID 0000.0001) %MON dynstat_eta_min              =  -2.3743091823460E+00
(PID.TID 0000.0001) %MON dynstat_eta_mean             =   4.6506375283269E-04
(PID.TID 0000.0001) %MON dynstat_eta_sd               =   6.1388938569237E-01
(PID.TID 0000.0001) %MON dynstat_eta_del2             =   1.2220476653800E-04
(PID.TID 0000.0001) %MON dynstat_uvel_max             =   1.0235231281667E+00
(PID.TID 0000.0001) %MON dynstat_uvel_min             =  -1.0001224414483E+00
(PID.TID 0000.0001) %MON dynstat_uvel_mean            =  -5.4129598878320E-03
(PID.TID 0000.0001) %MON dynstat_uvel_sd              =   2.7110964170153E-02
(PID.TID 0000.0001) %MON dynstat_uvel_del2            =   1.6052749103181E-05
(PID.TID 0000.0001) %MON dynstat_vvel_max             =   1.1905519036791E+00
(PID.TID 0000.0001) %MON dynstat_vvel_min             =  -1.6944553706511E+00
(PID.TID 0000.0001) %MON dynstat_vvel_mean            =   2.0406825894517E-03
(PID.TID 0000.0001) %MON dynstat_vvel_sd              =   2.9357452521454E-02
(PID.TID 0000.0001) %MON dynstat_vvel_del2            =   1.5615902253186E-05
(PID.TID 0000.0001) %MON dynstat_wvel_max             =   2.4623123375687E-03
(PID.TID 0000.0001) %MON dynstat_wvel_min             =  -2.3831315187017E-03
(PID.TID 0000.0001) %MON dynstat_wvel_mean            =  -2.5023636434879E-21
(PID.TID 0000.0001) %MON dynstat_wvel_sd              =   8.4123147886151E-05
(PID.TID 0000.0001) %MON dynstat_wvel_del2            =   9.0853479062043E-08
(PID.TID 0000.0001) %MON dynstat_theta_max            =   3.2618657614014E+01
(PID.TID 0000.0001) %MON dynstat_theta_min            =  -2.0407748831785E+00
(PID.TID 0000.0001) %MON dynstat_theta_mean           =   3.5888626358054E+00
(PID.TID 0000.0001) %MON dynstat_theta_sd             =   4.4315573878074E+00
(PID.TID 0000.0001) %MON dynstat_theta_del2           =   1.1962087699142E-04
(PID.TID 0000.0001) %MON dynstat_salt_max             =   3.4563335692166E+01
(PID.TID 0000.0001) %MON dynstat_salt_min             =   2.4792100216567E+01
(PID.TID 0000.0001) %MON dynstat_salt_mean            =   3.4499997091323E+01
(PID.TID 0000.0001) %MON dynstat_salt_sd              =   2.4747599605458E-03
(PID.TID 0000.0001) %MON dynstat_salt_del2            =   9.1465634036099E-06
(PID.TID 0000.0001) %MON dynstat_sst_max              =   3.2618638062971E+01
(PID.TID 0000.0001) %MON dynstat_sst_min              =  -1.9154737554074E+00
(PID.TID 0000.0001) %MON dynstat_sst_mean             =   1.8601084417925E+01
(PID.TID 0000.0001) %MON dynstat_sst_sd               =   9.9535472347830E+00
(PID.TID 0000.0001) %MON dynstat_sst_del2             =   1.1218741045501E-03
(PID.TID 0000.0001) %MON dynstat_sss_max              =   3.4563335692166E+01
(PID.TID 0000.0001) %MON dynstat_sss_min              =   2.4792100216567E+01
(PID.TID 0000.0001) %MON dynstat_sss_mean             =   3.4497189269099E+01
(PID.TID 0000.0001) %MON dynstat_sss_sd               =   4.6970881286013E-02
(PID.TID 0000.0001) %MON dynstat_sss_del2             =   3.6009841140155E-04
(PID.TID 0000.0001) %MON forcing_qnet_max             =   1.5151038818359E+03
(PID.TID 0000.0001) %MON forcing_qnet_min             =  -7.0644727451367E+02
(PID.TID 0000.0001) %MON forcing_qnet_mean            =   2.4437573344994E+01
(PID.TID 0000.0001) %MON forcing_qnet_sd              =   2.1375437609959E+02
(PID.TID 0000.0001) %MON forcing_qnet_del2            =   3.9403697524703E-01
(PID.TID 0000.0001) %MON forcing_qsw_max              =   0.0000000000000E+00
(PID.TID 0000.0001) %MON forcing_qsw_min              =  -4.1800298793665E+02
(PID.TID 0000.0001) %MON forcing_qsw_mean             =  -6.2267278559944E+01
(PID.TID 0000.0001) %MON forcing_qsw_sd               =   1.0932362816868E+02
(PID.TID 0000.0001) %MON forcing_qsw_del2             =   1.7573566501663E-01
(PID.TID 0000.0001) %MON forcing_empmr_max            =   1.4649793738499E-03
(PID.TID 0000.0001) %MON forcing_empmr_min            =  -7.0743240416050E-02
(PID.TID 0000.0001) %MON forcing_empmr_mean           =  -1.2810891570631E-05
(PID.TID 0000.0001) %MON forcing_empmr_sd             =   3.3401036044227E-04
(PID.TID 0000.0001) %MON forcing_empmr_del2           =   2.8676698586278E-06
(PID.TID 0000.0001) %MON forcing_fu_max               =   1.0317508578300E+00
(PID.TID 0000.0001) %MON forcing_fu_min               =  -7.0306161046028E-01
(PID.TID 0000.0001) %MON forcing_fu_mean              =   1.2009946339126E-02
(PID.TID 0000.0001) %MON forcing_fu_sd                =   1.0334904869531E-01
(PID.TID 0000.0001) %MON forcing_fu_del2              =   1.4015298025573E-04
(PID.TID 0000.0001) %MON forcing_fv_max               =   8.3923697471619E-01
(PID.TID 0000.0001) %MON forcing_fv_min               =  -7.0672829303502E-01
(PID.TID 0000.0001) %MON forcing_fv_mean              =  -7.6395433969601E-03
(PID.TID 0000.0001) %MON forcing_fv_sd                =   1.0245002891152E-01
(PID.TID 0000.0001) %MON forcing_fv_del2              =   1.1609495980869E-04
(PID.TID 0000.0001) %MON trAdv_CFL_u_max              =   1.7366004493962E-02
(PID.TID 0000.0001) %MON trAdv_CFL_v_max              =   1.4583465571994E-02
(PID.TID 0000.0001) %MON trAdv_CFL_w_max              =   1.2452636487144E-01
(PID.TID 0000.0001) %MON advcfl_uvel_max              =   1.7350519717119E-02
(PID.TID 0000.0001) %MON advcfl_vvel_max              =   1.4583690584617E-02
(PID.TID 0000.0001) %MON advcfl_wvel_max              =   1.1890302702012E-01
(PID.TID 0000.0001) %MON advcfl_W_hf_max              =   1.2452636487144E-01
(PID.TID 0000.0001) %MON pe_b_mean                    =   4.9572266540138E-04
(PID.TID 0000.0001) %MON ke_max                       =   1.3133532757650E+00
(PID.TID 0000.0001) %MON ke_mean                      =   7.8613917259131E-04
(PID.TID 0000.0001) %MON ke_vol                       =   1.3349978769393E+18
(PID.TID 0000.0001) %MON vort_r_min                   =  -2.9365185172228E-05
(PID.TID 0000.0001) %MON vort_r_max                   =   2.1799011735940E-05
(PID.TID 0000.0001) %MON vort_a_mean                  =  -1.9727864647440E-05
(PID.TID 0000.0001) %MON vort_a_sd                    =   7.4542431834877E-05
(PID.TID 0000.0001) %MON vort_p_mean                  =  -2.1760527755546E-05
(PID.TID 0000.0001) %MON vort_p_sd                    =   9.7231911069849E-05
(PID.TID 0000.0001) %MON surfExpan_theta_mean         =   1.4762151793662E-05
(PID.TID 0000.0001) %MON surfExpan_salt_mean          =  -8.4136367195194E-09
(PID.TID 0000.0001) // =======================================================
(PID.TID 0000.0001) // End MONITOR dynamic field statistics
(PID.TID 0000.0001) // =======================================================
 cg2d: Sum(rhs),rhsMax =  -1.50725521629018E+01  2.19508044797240E-01
 cg2d: Sum(rhs),rhsMax =  -1.54437370452281E+01  2.17484288295273E-01
 cg2d: Sum(rhs),rhsMax =  -1.58095767280848E+01  2.15769665977784E-01
 cg2d: Sum(rhs),rhsMax =  -1.61675320436451E+01  2.14428685174093E-01
(PID.TID 0000.0001)      cg2d_init_res =   3.01997684274297E+00
(PID.TID 0000.0001)      cg2d_iters(min,last) =      -1      38
(PID.TID 0000.0001)      cg2d_last_res =   2.05518054140585E-05
(PID.TID 0000.0001) // =======================================================
(PID.TID 0000.0001) // Begin MONITOR dynamic field statistics
(PID.TID 0000.0001) // =======================================================
(PID.TID 0000.0001) %MON time_tsnumber                =                    68
(PID.TID 0000.0001) %MON time_secondsf                =   6.1200000000000E+04
(PID.TID 0000.0001) %MON dynstat_eta_max              =   2.1246384509658E+00
(PID.TID 0000.0001) %MON dynstat_eta_min              =  -2.2861224513040E+00
(PID.TID 0000.0001) %MON dynstat_eta_mean             =   5.1143067421180E-04
(PID.TID 0000.0001) %MON dynstat_eta_sd               =   6.1595510086006E-01
(PID.TID 0000.0001) %MON dynstat_eta_del2             =   1.2616441920620E-04
(PID.TID 0000.0001) %MON dynstat_uvel_max             =   1.0756067923359E+00
(PID.TID 0000.0001) %MON dynstat_uvel_min             =  -9.6606209124804E-01
(PID.TID 0000.0001) %MON dynstat_uvel_mean            =  -4.7919105755286E-03
(PID.TID 0000.0001) %MON dynstat_uvel_sd              =   2.7032476146209E-02
(PID.TID 0000.0001) %MON dynstat_uvel_del2            =   1.6256855558550E-05
(PID.TID 0000.0001) %MON dynstat_vvel_max             =   1.0814820321473E+00
(PID.TID 0000.0001) %MON dynstat_vvel_min             =  -1.6779954513500E+00
(PID.TID 0000.0001) %MON dynstat_vvel_mean            =   8.7252855903860E-04
(PID.TID 0000.0001) %MON dynstat_vvel_sd              =   2.9538650021303E-02
(PID.TID 0000.0001) %MON dynstat_vvel_del2            =   1.5621210655664E-05
(PID.TID 0000.0001) %MON dynstat_wvel_max             =   2.4956846381868E-03
(PID.TID 0000.0001) %MON dynstat_wvel_min             =  -2.6031819631088E-03
(PID.TID 0000.0001) %MON dynstat_wvel_mean            =  -3.3763191852584E-21
(PID.TID 0000.0001) %MON dynstat_wvel_sd              =   8.2091398997269E-05
(PID.TID 0000.0001) %MON dynstat_wvel_del2            =   9.0999942598001E-08
(PID.TID 0000.0001) %MON dynstat_theta_max            =   3.2610765488956E+01
(PID.TID 0000.0001) %MON dynstat_theta_min            =  -2.0406849505305E+00
(PID.TID 0000.0001) %MON dynstat_theta_mean           =   3.5888460157837E+00
(PID.TID 0000.0001) %MON dynstat_theta_sd             =   4.4314907708307E+00
(PID.TID 0000.0001) %MON dynstat_theta_del2           =   1.1953695724467E-04
(PID.TID 0000.0001) %MON dynstat_salt_max             =   3.4563664068855E+01
(PID.TID 0000.0001) %MON dynstat_salt_min             =   2.4162303259442E+01
(PID.TID 0000.0001) %MON dynstat_salt_mean            =   3.4499996796883E+01
(PID.TID 0000.0001) %MON dynstat_salt_sd              =   2.6061294767817E-03
(PID.TID 0000.0001) %MON dynstat_salt_del2            =   9.5280355503434E-06
(PID.TID 0000.0001) %MON dynstat_sst_max              =   3.2610745257256E+01
(PID.TID 0000.0001) %MON dynstat_sst_min              =  -1.9130630779146E+00
(PID.TID 0000.0001) %MON dynstat_sst_mean             =   1.8601297787938E+01
(PID.TID 0000.0001) %MON dynstat_sst_sd               =   9.9539342188429E+00
(PID.TID 0000.0001) %MON dynstat_sst_del2             =   1.1179442296710E-03
(PID.TID 0000.0001) %MON dynstat_sss_max              =   3.4563664068855E+01
(PID.TID 0000.0001) %MON dynstat_sss_min              =   2.4162303259442E+01
(PID.TID 0000.0001) %MON dynstat_sss_mean             =   3.4497005269494E+01
(PID.TID 0000.0001) %MON dynstat_sss_sd               =   4.9480029799778E-02
(PID.TID 0000.0001) %MON dynstat_sss_del2             =   3.7472422608582E-04
(PID.TID 0000.0001) %MON forcing_qnet_max             =   2.0247738037109E+03
(PID.TID 0000.0001) %MON forcing_qnet_min             =  -7.4919534025601E+02
(PID.TID 0000.0001) %MON forcing_qnet_mean            =   1.8924085069309E+01
(PID.TID 0000.0001) %MON forcing_qnet_sd              =   2.1961895437454E+02
(PID.TID 0000.0001) %MON forcing_qnet_del2            =   4.0099991484625E-01
(PID.TID 0000.0001) %MON forcing_qsw_max              =   0.0000000000000E+00
(PID.TID 0000.0001) %MON forcing_qsw_min              =  -4.3711396464465E+02
(PID.TID 0000.0001) %MON forcing_qsw_mean             =  -6.4839485972728E+01
(PID.TID 0000.0001) %MON forcing_qsw_sd               =   1.1395778913566E+02
(PID.TID 0000.0001) %MON forcing_qsw_del2             =   1.7899801254912E-01
(PID.TID 0000.0001) %MON forcing_empmr_max            =   1.4061144320294E-03
(PID.TID 0000.0001) %MON forcing_empmr_min            =  -9.5025770366192E-02
(PID.TID 0000.0001) %MON forcing_empmr_mean           =  -1.2946271878464E-05
(PID.TID 0000.0001) %MON forcing_empmr_sd             =   3.9409811274770E-04
(PID.TID 0000.0001) %MON forcing_empmr_del2           =   2.7184644204097E-06
(PID.TID 0000.0001) %MON forcing_fu_max               =   9.9840030074120E-01
(PID.TID 0000.0001) %MON forcing_fu_min               =  -6.9588991999626E-01
(PID.TID 0000.0001) %MON forcing_fu_mean              =   1.1755972174802E-02
(PID.TID 0000.0001) %MON forcing_fu_sd                =   1.0270181459641E-01
(PID.TID 0000.0001) %MON forcing_fu_del2              =   1.3917947621738E-04
(PID.TID 0000.0001) %MON forcing_fv_max               =   8.9237585663795E-01
(PID.TID 0000.0001) %MON forcing_fv_min               =  -7.6136282522966E-01
(PID.TID 0000.0001) %MON forcing_fv_mean              =  -7.5697667858900E-03
(PID.TID 0000.0001) %MON forcing_fv_sd                =   1.0250214680134E-01
(PID.TID 0000.0001) %MON forcing_fv_del2              =   1.1574919982834E-04
(PID.TID 0000.0001) %MON trAdv_CFL_u_max              =   1.9664749082549E-02
(PID.TID 0000.0001) %MON trAdv_CFL_v_max              =   1.6428857607811E-02
(PID.TID 0000.0001) %MON trAdv_CFL_w_max              =   1.2323625414436E-01
(PID.TID 0000.0001) %MON advcfl_uvel_max              =   1.9647214579934E-02
(PID.TID 0000.0001) %MON advcfl_vvel_max              =   1.6429111103750E-02
(PID.TID 0000.0001) %MON advcfl_wvel_max              =   1.1759566158040E-01
(PID.TID 0000.0001) %MON advcfl_W_hf_max              =   1.2323625414436E-01
(PID.TID 0000.0001) %MON pe_b_mean                    =   4.9906451311148E-04
(PID.TID 0000.0001) %MON ke_max                       =   1.3765124305314E+00
(PID.TID 0000.0001) %MON ke_mean                      =   7.8454036907527E-04
(PID.TID 0000.0001) %MON ke_vol                       =   1.3349978769393E+18
(PID.TID 0000.0001) %MON vort_r_min                   =  -3.0397510070036E-05
(PID.TID 0000.0001) %MON vort_r_max                   =   2.4336088612670E-05
(PID.TID 0000.0001) %MON vort_a_mean                  =  -1.9727864647440E-05
(PID.TID 0000.0001) %MON vort_a_sd                    =   7.4542389681268E-05
(PID.TID 0000.0001) %MON vort_p_mean                  =  -2.1760527755546E-05
(PID.TID 0000.0001) %MON vort_p_sd                    =   9.7231362839258E-05
(PID.TID 0000.0001) %MON surfExpan_theta_mean         =   1.0599561645838E-05
(PID.TID 0000.0001) %MON surfExpan_salt_mean          =  -2.6050090018267E-09
(PID.TID 0000.0001) // =======================================================
(PID.TID 0000.0001) // End MONITOR dynamic field statistics
(PID.TID 0000.0001) // =======================================================
 cg2d: Sum(rhs),rhsMax =  -1.65298596179364E+01  2.13499744992317E-01
 cg2d: Sum(rhs),rhsMax =  -1.68920434871790E+01  2.12995033632035E-01
 cg2d: Sum(rhs),rhsMax =  -1.72471599976313E+01  2.12901107962884E-01
 cg2d: Sum(rhs),rhsMax =  -1.76041514818592E+01  2.13182630704608E-01
(PID.TID 0000.0001)      cg2d_init_res =   2.84512238157650E+00
(PID.TID 0000.0001)      cg2d_iters(min,last) =      -1      38
(PID.TID 0000.0001)      cg2d_last_res =   2.12870717775850E-05
(PID.TID 0000.0001) // =======================================================
(PID.TID 0000.0001) // Begin MONITOR dynamic field statistics
(PID.TID 0000.0001) // =======================================================
(PID.TID 0000.0001) %MON time_tsnumber                =                    72
(PID.TID 0000.0001) %MON time_secondsf                =   6.4800000000000E+04
(PID.TID 0000.0001) %MON dynstat_eta_max              =   2.1102535331145E+00
(PID.TID 0000.0001) %MON dynstat_eta_min              =  -2.1903277600900E+00
(PID.TID 0000.0001) %MON dynstat_eta_mean             =   5.5687553530057E-04
(PID.TID 0000.0001) %MON dynstat_eta_sd               =   6.1824109343309E-01
(PID.TID 0000.0001) %MON dynstat_eta_del2             =   1.2550632115813E-04
(PID.TID 0000.0001) %MON dynstat_uvel_max             =   1.1547942754198E+00
(PID.TID 0000.0001) %MON dynstat_uvel_min             =  -1.0629256832411E+00
(PID.TID 0000.0001) %MON dynstat_uvel_mean            =  -3.8107921620220E-03
(PID.TID 0000.0001) %MON dynstat_uvel_sd              =   2.7019413939998E-02
(PID.TID 0000.0001) %MON dynstat_uvel_del2            =   1.6431393216423E-05
(PID.TID 0000.0001) %MON dynstat_vvel_max             =   1.1353641929167E+00
(PID.TID 0000.0001) %MON dynstat_vvel_min             =  -1.7532861663553E+00
(PID.TID 0000.0001) %MON dynstat_vvel_mean            =  -2.1075135713621E-04
(PID.TID 0000.0001) %MON dynstat_vvel_sd              =   2.9915566086261E-02
(PID.TID 0000.0001) %MON dynstat_vvel_del2            =   1.5662225865824E-05
(PID.TID 0000.0001) %MON dynstat_wvel_max             =   2.3054933061946E-03
(PID.TID 0000.0001) %MON dynstat_wvel_min             =  -2.8371461739209E-03
(PID.TID 0000.0001) %MON dynstat_wvel_mean            =   1.1397416917060E-20
(PID.TID 0000.0001) %MON dynstat_wvel_sd              =   8.0787570197370E-05
(PID.TID 0000.0001) %MON dynstat_wvel_del2            =   9.1170865742121E-08
(PID.TID 0000.0001) %MON dynstat_theta_max            =   3.2602627888946E+01
(PID.TID 0000.0001) %MON dynstat_theta_min            =  -2.0405527671609E+00
(PID.TID 0000.0001) %MON dynstat_theta_mean           =   3.5888353848922E+00
(PID.TID 0000.0001) %MON dynstat_theta_sd             =   4.4314446626397E+00
(PID.TID 0000.0001) %MON dynstat_theta_del2           =   1.1945924329908E-04
(PID.TID 0000.0001) %MON dynstat_salt_max             =   3.4563992393550E+01
(PID.TID 0000.0001) %MON dynstat_salt_min             =   2.3488002715449E+01
(PID.TID 0000.0001) %MON dynstat_salt_mean            =   3.4499996501356E+01
(PID.TID 0000.0001) %MON dynstat_salt_sd              =   2.7404773148542E-03
(PID.TID 0000.0001) %MON dynstat_salt_del2            =   9.8119628437431E-06
(PID.TID 0000.0001) %MON dynstat_sst_max              =   3.2602606988291E+01
(PID.TID 0000.0001) %MON dynstat_sst_min              =  -1.9107093104186E+00
(PID.TID 0000.0001) %MON dynstat_sst_mean             =   1.8601972486677E+01
(PID.TID 0000.0001) %MON dynstat_sst_sd               =   9.9546079845210E+00
(PID.TID 0000.0001) %MON dynstat_sst_del2             =   1.1135758842896E-03
(PID.TID 0000.0001) %MON dynstat_sss_max              =   3.4563992393550E+01
(PID.TID 0000.0001) %MON dynstat_sss_min              =   2.3488002715449E+01
(PID.TID 0000.0001) %MON dynstat_sss_mean             =   3.4496830059722E+01
(PID.TID 0000.0001) %MON dynstat_sss_sd               =   5.2022978042821E-02
(PID.TID 0000.0001) %MON dynstat_sss_del2             =   3.8554684664579E-04
(PID.TID 0000.0001) %MON forcing_qnet_max             =   1.9228736572266E+03
(PID.TID 0000.0001) %MON forcing_qnet_min             =  -7.1731971359478E+02
(PID.TID 0000.0001) %MON forcing_qnet_mean            =   1.3123569127471E+01
(PID.TID 0000.0001) %MON forcing_qnet_sd              =   2.1995488598815E+02
(PID.TID 0000.0001) %MON forcing_qnet_del2            =   4.1529061738635E-01
(PID.TID 0000.0001) %MON forcing_qsw_max              =   0.0000000000000E+00
(PID.TID 0000.0001) %MON forcing_qsw_min              =  -4.4336116862654E+02
(PID.TID 0000.0001) %MON forcing_qsw_mean             =  -6.8263236214456E+01
(PID.TID 0000.0001) %MON forcing_qsw_sd               =   1.1521059205778E+02
(PID.TID 0000.0001) %MON forcing_qsw_del2             =   1.7997795140866E-01
(PID.TID 0000.0001) %MON forcing_empmr_max            =   1.3491482241079E-03
(PID.TID 0000.0001) %MON forcing_empmr_min            =  -9.4633460044861E-02
(PID.TID 0000.0001) %MON forcing_empmr_mean           =  -1.2911412716098E-05
(PID.TID 0000.0001) %MON forcing_empmr_sd             =   3.8382723555830E-04
(PID.TID 0000.0001) %MON forcing_empmr_del2           =   2.4596894717299E-06
(PID.TID 0000.0001) %MON forcing_fu_max               =   9.2125803232193E-01
(PID.TID 0000.0001) %MON forcing_fu_min               =  -6.8292167782783E-01
(PID.TID 0000.0001) %MON forcing_fu_mean              =   1.1590733569213E-02
(PID.TID 0000.0001) %MON forcing_fu_sd                =   1.0181083940285E-01
(PID.TID 0000.0001) %MON forcing_fu_del2              =   1.3777024190011E-04
(PID.TID 0000.0001) %MON forcing_fv_max               =   9.1700387001038E-01
(PID.TID 0000.0001) %MON forcing_fv_min               =  -7.5801933772219E-01
(PID.TID 0000.0001) %MON forcing_fv_mean              =  -7.7046782868890E-03
(PID.TID 0000.0001) %MON forcing_fv_sd                =   1.0213865220158E-01
(PID.TID 0000.0001) %MON forcing_fv_del2              =   1.1501387395116E-04
(PID.TID 0000.0001) %MON trAdv_CFL_u_max              =   2.1704075230432E-02
(PID.TID 0000.0001) %MON trAdv_CFL_v_max              =   1.7337210204193E-02
(PID.TID 0000.0001) %MON trAdv_CFL_w_max              =   1.1997173647097E-01
(PID.TID 0000.0001) %MON advcfl_uvel_max              =   2.1684722318158E-02
(PID.TID 0000.0001) %MON advcfl_vvel_max              =   1.7597607338794E-02
(PID.TID 0000.0001) %MON advcfl_wvel_max              =   1.1440013984886E-01
(PID.TID 0000.0001) %MON advcfl_W_hf_max              =   1.1997173647097E-01
(PID.TID 0000.0001) %MON pe_b_mean                    =   5.0277580206748E-04
(PID.TID 0000.0001) %MON ke_max                       =   1.4035897828030E+00
(PID.TID 0000.0001) %MON ke_mean                      =   7.9059213110751E-04
(PID.TID 0000.0001) %MON ke_vol                       =   1.3349978769393E+18
(PID.TID 0000.0001) %MON vort_r_min                   =  -3.0895055031301E-05
(PID.TID 0000.0001) %MON vort_r_max                   =   2.6211569793099E-05
(PID.TID 0000.0001) %MON vort_a_mean                  =  -1.9727864647440E-05
(PID.TID 0000.0001) %MON vort_a_sd                    =   7.4542362135724E-05
(PID.TID 0000.0001) %MON vort_p_mean                  =  -2.1760527755546E-05
(PID.TID 0000.0001) %MON vort_p_sd                    =   9.7230471406579E-05
(PID.TID 0000.0001) %MON surfExpan_theta_mean         =   5.5923518415808E-06
(PID.TID 0000.0001) %MON surfExpan_salt_mean          =   7.6119431944622E-09
(PID.TID 0000.0001) // =======================================================
(PID.TID 0000.0001) // End MONITOR dynamic field statistics
(PID.TID 0000.0001) // =======================================================
 cg2d: Sum(rhs),rhsMax =  -1.79661867985038E+01  2.13787494774464E-01
 cg2d: Sum(rhs),rhsMax =  -1.83170058493386E+01  2.14647336593333E-01
 cg2d: Sum(rhs),rhsMax =  -1.86632694536871E+01  2.15686542321908E-01
 cg2d: Sum(rhs),rhsMax =  -1.90244800778229E+01  2.16826504573773E-01
(PID.TID 0000.0001)      cg2d_init_res =   2.67240203816453E+00
(PID.TID 0000.0001)      cg2d_iters(min,last) =      -1      37
(PID.TID 0000.0001)      cg2d_last_res =   2.58190675759911E-05
(PID.TID 0000.0001) // =======================================================
(PID.TID 0000.0001) // Begin MONITOR dynamic field statistics
(PID.TID 0000.0001) // =======================================================
(PID.TID 0000.0001) %MON time_tsnumber                =                    76
(PID.TID 0000.0001) %MON time_secondsf                =   6.8400000000000E+04
(PID.TID 0000.0001) %MON dynstat_eta_max              =   1.9972568115014E+00
(PID.TID 0000.0001) %MON dynstat_eta_min              =  -1.9166347026964E+00
(PID.TID 0000.0001) %MON dynstat_eta_mean             =   6.0180506501951E-04
(PID.TID 0000.0001) %MON dynstat_eta_sd               =   6.2122445196096E-01
(PID.TID 0000.0001) %MON dynstat_eta_del2             =   1.1889976287405E-04
(PID.TID 0000.0001) %MON dynstat_uvel_max             =   1.2134440645878E+00
(PID.TID 0000.0001) %MON dynstat_uvel_min             =  -1.2757374741668E+00
(PID.TID 0000.0001) %MON dynstat_uvel_mean            =  -2.5886991684453E-03
(PID.TID 0000.0001) %MON dynstat_uvel_sd              =   2.7163290511400E-02
(PID.TID 0000.0001) %MON dynstat_uvel_del2            =   1.6562943364241E-05
(PID.TID 0000.0001) %MON dynstat_vvel_max             =   1.1419920877746E+00
(PID.TID 0000.0001) %MON dynstat_vvel_min             =  -1.7487242825600E+00
(PID.TID 0000.0001) %MON dynstat_vvel_mean            =  -1.0425887413987E-03
(PID.TID 0000.0001) %MON dynstat_vvel_sd              =   3.0371629604605E-02
(PID.TID 0000.0001) %MON dynstat_vvel_del2            =   1.5746106002163E-05
(PID.TID 0000.0001) %MON dynstat_wvel_max             =   2.2003384162865E-03
(PID.TID 0000.0001) %MON dynstat_wvel_min             =  -3.0853360096007E-03
(PID.TID 0000.0001) %MON dynstat_wvel_mean            =   2.5916309311152E-23
(PID.TID 0000.0001) %MON dynstat_wvel_sd              =   8.0335675857930E-05
(PID.TID 0000.0001) %MON dynstat_wvel_del2            =   9.1471371899743E-08
(PID.TID 0000.0001) %MON dynstat_theta_max            =   3.2594243098581E+01
(PID.TID 0000.0001) %MON dynstat_theta_min            =  -2.0403708882890E+00
(PID.TID 0000.0001) %MON dynstat_theta_mean           =   3.5888309857745E+00
(PID.TID 0000.0001) %MON dynstat_theta_sd             =   4.4314285607983E+00
(PID.TID 0000.0001) %MON dynstat_theta_del2           =   1.1938020025029E-04
(PID.TID 0000.0001) %MON dynstat_salt_max             =   3.4564320251301E+01
(PID.TID 0000.0001) %MON dynstat_salt_min             =   2.2777146615358E+01
(PID.TID 0000.0001) %MON dynstat_salt_mean            =   3.4499996198051E+01
(PID.TID 0000.0001) %MON dynstat_salt_sd              =   2.8793338996437E-03
(PID.TID 0000.0001) %MON dynstat_salt_del2            =   1.0013857109958E-05
(PID.TID 0000.0001) %MON dynstat_sst_max              =   3.2594221379830E+01
(PID.TID 0000.0001) %MON dynstat_sst_min              =  -1.9083741552734E+00
(PID.TID 0000.0001) %MON dynstat_sst_mean             =   1.8602971763621E+01
(PID.TID 0000.0001) %MON dynstat_sst_sd               =   9.9555915975823E+00
(PID.TID 0000.0001) %MON dynstat_sst_del2             =   1.1093689631838E-03
(PID.TID 0000.0001) %MON dynstat_sss_max              =   3.4564320251301E+01
(PID.TID 0000.0001) %MON dynstat_sss_min              =   2.2777146615358E+01
(PID.TID 0000.0001) %MON dynstat_sss_mean             =   3.4496661252229E+01
(PID.TID 0000.0001) %MON dynstat_sss_sd               =   5.4641212080923E-02
(PID.TID 0000.0001) %MON dynstat_sss_del2             =   3.9338091059322E-04
(PID.TID 0000.0001) %MON forcing_qnet_max             =   1.5802580566406E+03
(PID.TID 0000.0001) %MON forcing_qnet_min             =  -7.2701152940080E+02
(PID.TID 0000.0001) %MON forcing_qnet_mean            =   7.6475097667145E+00
(PID.TID 0000.0001) %MON forcing_qnet_sd              =   2.1456952480204E+02
(PID.TID 0000.0001) %MON forcing_qnet_del2            =   4.0436465823211E-01
(PID.TID 0000.0001) %MON forcing_qsw_max              =   0.0000000000000E+00
(PID.TID 0000.0001) %MON forcing_qsw_min              =  -4.4455779922573E+02
(PID.TID 0000.0001) %MON forcing_qsw_mean             =  -7.1791105264095E+01
(PID.TID 0000.0001) %MON forcing_qsw_sd               =   1.1381735228149E+02
(PID.TID 0000.0001) %MON forcing_qsw_del2             =   1.7846806964299E-01
(PID.TID 0000.0001) %MON forcing_empmr_max            =   1.2939453590661E-03
(PID.TID 0000.0001) %MON forcing_empmr_min            =  -1.1958382278681E-01
(PID.TID 0000.0001) %MON forcing_empmr_mean           =  -1.3064007551261E-05
(PID.TID 0000.0001) %MON forcing_empmr_sd             =   4.6999592781478E-04
(PID.TID 0000.0001) %MON forcing_empmr_del2           =   2.8463389293780E-06
(PID.TID 0000.0001) %MON forcing_fu_max               =   9.3042802810669E-01
(PID.TID 0000.0001) %MON forcing_fu_min               =  -6.8451374769211E-01
(PID.TID 0000.0001) %MON forcing_fu_mean              =   1.1481853300051E-02
(PID.TID 0000.0001) %MON forcing_fu_sd                =   1.0105418060841E-01
(PID.TID 0000.0001) %MON forcing_fu_del2              =   1.3663610420434E-04
(PID.TID 0000.0001) %MON forcing_fv_max               =   9.3767857551575E-01
(PID.TID 0000.0001) %MON forcing_fv_min               =  -7.4885781726510E-01
(PID.TID 0000.0001) %MON forcing_fv_mean              =  -7.9741592719171E-03
(PID.TID 0000.0001) %MON forcing_fv_sd                =   1.0176151628417E-01
(PID.TID 0000.0001) %MON forcing_fv_del2              =   1.1393759386279E-04
(PID.TID 0000.0001) %MON trAdv_CFL_u_max              =   2.3443547599259E-02
(PID.TID 0000.0001) %MON trAdv_CFL_v_max              =   1.8410780520399E-02
(PID.TID 0000.0001) %MON trAdv_CFL_w_max              =   1.1550758897455E-01
(PID.TID 0000.0001) %MON advcfl_uvel_max              =   2.3422643648491E-02
(PID.TID 0000.0001) %MON advcfl_vvel_max              =   1.8687302195344E-02
(PID.TID 0000.0001) %MON advcfl_wvel_max              =   1.1010067302854E-01
(PID.TID 0000.0001) %MON advcfl_W_hf_max              =   1.1550758897455E-01
(PID.TID 0000.0001) %MON pe_b_mean                    =   5.0763992227667E-04
(PID.TID 0000.0001) %MON ke_max                       =   1.5167922404508E+00
(PID.TID 0000.0001) %MON ke_mean                      =   8.0434235886378E-04
(PID.TID 0000.0001) %MON ke_vol                       =   1.3349978769393E+18
(PID.TID 0000.0001) %MON vort_r_min                   =  -3.0787884077707E-05
(PID.TID 0000.0001) %MON vort_r_max                   =   2.7119797108988E-05
(PID.TID 0000.0001) %MON vort_a_mean                  =  -1.9727864647440E-05
(PID.TID 0000.0001) %MON vort_a_sd                    =   7.4542364024354E-05
(PID.TID 0000.0001) %MON vort_p_mean                  =  -2.1760527755546E-05
(PID.TID 0000.0001) %MON vort_p_sd                    =   9.7229370880200E-05
(PID.TID 0000.0001) %MON surfExpan_theta_mean         =   6.0801024624691E-07
(PID.TID 0000.0001) %MON surfExpan_salt_mean          =   1.7558867056600E-08
(PID.TID 0000.0001) // =======================================================
(PID.TID 0000.0001) // End MONITOR dynamic field statistics
(PID.TID 0000.0001) // =======================================================
 cg2d: Sum(rhs),rhsMax =  -1.93901116623217E+01  2.17989179948123E-01
 cg2d: Sum(rhs),rhsMax =  -1.97494343134240E+01  2.19103117766525E-01
 cg2d: Sum(rhs),rhsMax =  -2.01113767317690E+01  2.20107167597820E-01
 cg2d: Sum(rhs),rhsMax =  -2.04718949348635E+01  2.20950493239643E-01
(PID.TID 0000.0001)      cg2d_init_res =   2.43102392778162E+00
(PID.TID 0000.0001)      cg2d_iters(min,last) =      -1      36
(PID.TID 0000.0001)      cg2d_last_res =   2.47364101888393E-05
(PID.TID 0000.0001) // =======================================================
(PID.TID 0000.0001) // Begin MONITOR dynamic field statistics
(PID.TID 0000.0001) // =======================================================
(PID.TID 0000.0001) %MON time_tsnumber                =                    80
(PID.TID 0000.0001) %MON time_secondsf                =   7.2000000000000E+04
(PID.TID 0000.0001) %MON dynstat_eta_max              =   2.0565915877678E+00
(PID.TID 0000.0001) %MON dynstat_eta_min              =  -2.0108404693794E+00
(PID.TID 0000.0001) %MON dynstat_eta_mean             =   6.4759141968400E-04
(PID.TID 0000.0001) %MON dynstat_eta_sd               =   6.2460658833991E-01
(PID.TID 0000.0001) %MON dynstat_eta_del2             =   1.1289123327730E-04
(PID.TID 0000.0001) %MON dynstat_uvel_max             =   1.2501732752796E+00
(PID.TID 0000.0001) %MON dynstat_uvel_min             =  -1.4227477007041E+00
(PID.TID 0000.0001) %MON dynstat_uvel_mean            =  -1.2985609260730E-03
(PID.TID 0000.0001) %MON dynstat_uvel_sd              =   2.7549581722357E-02
(PID.TID 0000.0001) %MON dynstat_uvel_del2            =   1.6644608125138E-05
(PID.TID 0000.0001) %MON dynstat_vvel_max             =   1.1215469158523E+00
(PID.TID 0000.0001) %MON dynstat_vvel_min             =  -1.6572448325748E+00
(PID.TID 0000.0001) %MON dynstat_vvel_mean            =  -1.5253046264121E-03
(PID.TID 0000.0001) %MON dynstat_vvel_sd              =   3.0793867847496E-02
(PID.TID 0000.0001) %MON dynstat_vvel_del2            =   1.5836998631825E-05
(PID.TID 0000.0001) %MON dynstat_wvel_max             =   2.3950827061957E-03
(PID.TID 0000.0001) %MON dynstat_wvel_min             =  -3.3325591160909E-03
(PID.TID 0000.0001) %MON dynstat_wvel_mean            =  -1.3850827531849E-21
(PID.TID 0000.0001) %MON dynstat_wvel_sd              =   8.0784428034229E-05
(PID.TID 0000.0001) %MON dynstat_wvel_del2            =   9.1959925321385E-08
(PID.TID 0000.0001) %MON dynstat_theta_max            =   3.2585695637478E+01
(PID.TID 0000.0001) %MON dynstat_theta_min            =  -2.0401510360820E+00
(PID.TID 0000.0001) %MON dynstat_theta_mean           =   3.5888321686759E+00
(PID.TID 0000.0001) %MON dynstat_theta_sd             =   4.4314417955129E+00
(PID.TID 0000.0001) %MON dynstat_theta_del2           =   1.1929442356286E-04
(PID.TID 0000.0001) %MON dynstat_salt_max             =   3.4564649397986E+01
(PID.TID 0000.0001) %MON dynstat_salt_min             =   2.2030064305086E+01
(PID.TID 0000.0001) %MON dynstat_salt_mean            =   3.4499995882442E+01
(PID.TID 0000.0001) %MON dynstat_salt_sd              =   3.0244327974450E-03
(PID.TID 0000.0001) %MON dynstat_salt_del2            =   1.0149561546419E-05
(PID.TID 0000.0001) %MON dynstat_sst_max              =   3.2585673537031E+01
(PID.TID 0000.0001) %MON dynstat_sst_min              =  -1.9060326636024E+00
(PID.TID 0000.0001) %MON dynstat_sst_mean             =   1.8604070851020E+01
(PID.TID 0000.0001) %MON dynstat_sst_sd               =   9.9568043992390E+00
(PID.TID 0000.0001) %MON dynstat_sst_del2             =   1.1053296494030E-03
(PID.TID 0000.0001) %MON dynstat_sss_max              =   3.4564649397986E+01
(PID.TID 0000.0001) %MON dynstat_sss_min              =   2.2030064305086E+01
(PID.TID 0000.0001) %MON dynstat_sss_mean             =   3.4496491314516E+01
(PID.TID 0000.0001) %MON dynstat_sss_sd               =   5.7365065195070E-02
(PID.TID 0000.0001) %MON dynstat_sss_del2             =   3.9865861710653E-04
(PID.TID 0000.0001) %MON forcing_qnet_max             =   1.5808387451172E+03
(PID.TID 0000.0001) %MON forcing_qnet_min             =  -7.1001646681176E+02
(PID.TID 0000.0001) %MON forcing_qnet_mean            =   3.1319846880300E+00
(PID.TID 0000.0001) %MON forcing_qnet_sd              =   2.0759022734866E+02
(PID.TID 0000.0001) %MON forcing_qnet_del2            =   4.0509790195640E-01
(PID.TID 0000.0001) %MON forcing_qsw_max              =   0.0000000000000E+00
(PID.TID 0000.0001) %MON forcing_qsw_min              =  -4.3211754579333E+02
(PID.TID 0000.0001) %MON forcing_qsw_mean             =  -7.4670580766168E+01
(PID.TID 0000.0001) %MON forcing_qsw_sd               =   1.1262056618629E+02
(PID.TID 0000.0001) %MON forcing_qsw_del2             =   1.7779698866366E-01
(PID.TID 0000.0001) %MON forcing_empmr_max            =   1.2413194635883E-03
(PID.TID 0000.0001) %MON forcing_empmr_min            =  -1.1560922861099E-01
(PID.TID 0000.0001) %MON forcing_empmr_mean           =  -1.3038964562070E-05
(PID.TID 0000.0001) %MON forcing_empmr_sd             =   4.5672605257981E-04
(PID.TID 0000.0001) %MON forcing_empmr_del2           =   2.7925082718845E-06
(PID.TID 0000.0001) %MON forcing_fu_max               =   8.8431277871132E-01
(PID.TID 0000.0001) %MON forcing_fu_min               =  -6.5002432465553E-01
(PID.TID 0000.0001) %MON forcing_fu_mean              =   1.1402830228949E-02
(PID.TID 0000.0001) %MON forcing_fu_sd                =   1.0017252538235E-01
(PID.TID 0000.0001) %MON forcing_fu_del2              =   1.3534164251114E-04
(PID.TID 0000.0001) %MON forcing_fv_max               =   9.3162572383881E-01
(PID.TID 0000.0001) %MON forcing_fv_min               =  -7.6776984895530E-01
(PID.TID 0000.0001) %MON forcing_fv_mean              =  -8.3031446687872E-03
(PID.TID 0000.0001) %MON forcing_fv_sd                =   1.0157336413893E-01
(PID.TID 0000.0001) %MON forcing_fv_del2              =   1.1332976663191E-04
(PID.TID 0000.0001) %MON trAdv_CFL_u_max              =   2.4813108009084E-02
(PID.TID 0000.0001) %MON trAdv_CFL_v_max              =   1.8737969453060E-02
(PID.TID 0000.0001) %MON trAdv_CFL_w_max              =   1.1074182906896E-01
(PID.TID 0000.0001) %MON advcfl_uvel_max              =   2.4790982859892E-02
(PID.TID 0000.0001) %MON advcfl_vvel_max              =   1.9019405359185E-02
(PID.TID 0000.0001) %MON advcfl_wvel_max              =   1.0558028847266E-01
(PID.TID 0000.0001) %MON advcfl_W_hf_max              =   1.1074182906896E-01
(PID.TID 0000.0001) %MON pe_b_mean                    =   5.1318253376171E-04
(PID.TID 0000.0001) %MON ke_max                       =   1.5121005125217E+00
(PID.TID 0000.0001) %MON ke_mean                      =   8.2516681123091E-04
(PID.TID 0000.0001) %MON ke_vol                       =   1.3349978769393E+18
(PID.TID 0000.0001) %MON vort_r_min                   =  -3.0035992186499E-05
(PID.TID 0000.0001) %MON vort_r_max                   =   2.6845183107306E-05
(PID.TID 0000.0001) %MON vort_a_mean                  =  -1.9727864647440E-05
(PID.TID 0000.0001) %MON vort_a_sd                    =   7.4542399166172E-05
(PID.TID 0000.0001) %MON vort_p_mean                  =  -2.1760527755546E-05
(PID.TID 0000.0001) %MON vort_p_sd                    =   9.7228223796546E-05
(PID.TID 0000.0001) %MON surfExpan_theta_mean         =  -3.7583802346715E-06
(PID.TID 0000.0001) %MON surfExpan_salt_mean          =   2.7630252378525E-08
(PID.TID 0000.0001) // =======================================================
(PID.TID 0000.0001) // End MONITOR dynamic field statistics
(PID.TID 0000.0001) // =======================================================
 cg2d: Sum(rhs),rhsMax =  -2.08311393447523E+01  2.21597426857607E-01
 cg2d: Sum(rhs),rhsMax =  -2.11934451109993E+01  2.22025180708322E-01
 cg2d: Sum(rhs),rhsMax =  -2.15564589746484E+01  2.22223101365412E-01
 cg2d: Sum(rhs),rhsMax =  -2.19150561191832E+01  2.22194224410995E-01
(PID.TID 0000.0001)      cg2d_init_res =   2.16076417625120E+00
(PID.TID 0000.0001)      cg2d_iters(min,last) =      -1      35
(PID.TID 0000.0001)      cg2d_last_res =   2.62627477358917E-05
(PID.TID 0000.0001) // =======================================================
(PID.TID 0000.0001) // Begin MONITOR dynamic field statistics
(PID.TID 0000.0001) // =======================================================
(PID.TID 0000.0001) %MON time_tsnumber                =                    84
(PID.TID 0000.0001) %MON time_secondsf                =   7.5600000000000E+04
(PID.TID 0000.0001) %MON dynstat_eta_max              =   2.1454010289728E+00
(PID.TID 0000.0001) %MON dynstat_eta_min              =  -2.0781100933522E+00
(PID.TID 0000.0001) %MON dynstat_eta_mean             =   6.9324321709502E-04
(PID.TID 0000.0001) %MON dynstat_eta_sd               =   6.2675862570731E-01
(PID.TID 0000.0001) %MON dynstat_eta_del2             =   1.1346186995128E-04
(PID.TID 0000.0001) %MON dynstat_uvel_max             =   1.2651100957463E+00
(PID.TID 0000.0001) %MON dynstat_uvel_min             =  -1.4554419584425E+00
(PID.TID 0000.0001) %MON dynstat_uvel_mean            =  -1.2580778984602E-04
(PID.TID 0000.0001) %MON dynstat_uvel_sd              =   2.8243320602077E-02
(PID.TID 0000.0001) %MON dynstat_uvel_del2            =   1.6698918619764E-05
(PID.TID 0000.0001) %MON dynstat_vvel_max             =   1.1498151703145E+00
(PID.TID 0000.0001) %MON dynstat_vvel_min             =  -1.4854485017058E+00
(PID.TID 0000.0001) %MON dynstat_vvel_mean            =  -1.6432092904224E-03
(PID.TID 0000.0001) %MON dynstat_vvel_sd              =   3.1115342447537E-02
(PID.TID 0000.0001) %MON dynstat_vvel_del2            =   1.5909162070938E-05
(PID.TID 0000.0001) %MON dynstat_wvel_max             =   2.5898712500219E-03
(PID.TID 0000.0001) %MON dynstat_wvel_min             =  -3.5550482229224E-03
(PID.TID 0000.0001) %MON dynstat_wvel_mean            =  -3.1567504535945E-21
(PID.TID 0000.0001) %MON dynstat_wvel_sd              =   8.2129258713519E-05
(PID.TID 0000.0001) %MON dynstat_wvel_del2            =   9.2588524309949E-08
(PID.TID 0000.0001) %MON dynstat_theta_max            =   3.2576720146288E+01
(PID.TID 0000.0001) %MON dynstat_theta_min            =  -2.0399166000963E+00
(PID.TID 0000.0001) %MON dynstat_theta_mean           =   3.5888379838585E+00
(PID.TID 0000.0001) %MON dynstat_theta_sd             =   4.4314781823634E+00
(PID.TID 0000.0001) %MON dynstat_theta_del2           =   1.1920089278170E-04
(PID.TID 0000.0001) %MON dynstat_salt_max             =   3.4564977721391E+01
(PID.TID 0000.0001) %MON dynstat_salt_min             =   2.1308066230664E+01
(PID.TID 0000.0001) %MON dynstat_salt_mean            =   3.4499995558269E+01
(PID.TID 0000.0001) %MON dynstat_salt_sd              =   3.1680748532706E-03
(PID.TID 0000.0001) %MON dynstat_salt_del2            =   1.0213214620544E-05
(PID.TID 0000.0001) %MON dynstat_sst_max              =   3.2576697349245E+01
(PID.TID 0000.0001) %MON dynstat_sst_min              =  -1.9036923805648E+00
(PID.TID 0000.0001) %MON dynstat_sst_mean             =   1.8605182199637E+01
(PID.TID 0000.0001) %MON dynstat_sst_sd               =   9.9581388100990E+00
(PID.TID 0000.0001) %MON dynstat_sst_del2             =   1.1014294530427E-03
(PID.TID 0000.0001) %MON dynstat_sss_max              =   3.4564977721391E+01
(PID.TID 0000.0001) %MON dynstat_sss_min              =   2.1308066230664E+01
(PID.TID 0000.0001) %MON dynstat_sss_mean             =   3.4496326133495E+01
(PID.TID 0000.0001) %MON dynstat_sss_sd               =   6.0041364797591E-02
(PID.TID 0000.0001) %MON dynstat_sss_del2             =   4.0107593204795E-04
(PID.TID 0000.0001) %MON forcing_qnet_max             =   1.5102864990234E+03
(PID.TID 0000.0001) %MON forcing_qnet_min             =  -7.8087069421859E+02
(PID.TID 0000.0001) %MON forcing_qnet_mean            =  -1.3821544876581E+00
(PID.TID 0000.0001) %MON forcing_qnet_sd              =   2.0416923754658E+02
(PID.TID 0000.0001) %MON forcing_qnet_del2            =   3.7832949105229E-01
(PID.TID 0000.0001) %MON forcing_qsw_max              =   0.0000000000000E+00
(PID.TID 0000.0001) %MON forcing_qsw_min              =  -4.2738261994344E+02
(PID.TID 0000.0001) %MON forcing_qsw_mean             =  -7.7434778108565E+01
(PID.TID 0000.0001) %MON forcing_qsw_sd               =   1.1334691367373E+02
(PID.TID 0000.0001) %MON forcing_qsw_del2             =   1.7900504586219E-01
(PID.TID 0000.0001) %MON forcing_empmr_max            =   1.1914062779397E-03
(PID.TID 0000.0001) %MON forcing_empmr_min            =  -1.1531689018011E-01
(PID.TID 0000.0001) %MON forcing_empmr_mean           =  -1.2969485089885E-05
(PID.TID 0000.0001) %MON forcing_empmr_sd             =   4.5414837309978E-04
(PID.TID 0000.0001) %MON forcing_empmr_del2           =   2.7242380879525E-06
(PID.TID 0000.0001) %MON forcing_fu_max               =   8.5358878970146E-01
(PID.TID 0000.0001) %MON forcing_fu_min               =  -6.4375492930412E-01
(PID.TID 0000.0001) %MON forcing_fu_mean              =   1.1262230107396E-02
(PID.TID 0000.0001) %MON forcing_fu_sd                =   9.9247379939386E-02
(PID.TID 0000.0001) %MON forcing_fu_del2              =   1.3364623321658E-04
(PID.TID 0000.0001) %MON forcing_fv_max               =   9.4675201177597E-01
(PID.TID 0000.0001) %MON forcing_fv_min               =  -7.8061047769428E-01
(PID.TID 0000.0001) %MON forcing_fv_mean              =  -8.6471601700100E-03
(PID.TID 0000.0001) %MON forcing_fv_sd                =   1.0149938866128E-01
(PID.TID 0000.0001) %MON forcing_fv_del2              =   1.1290004597101E-04
(PID.TID 0000.0001) %MON trAdv_CFL_u_max              =   2.5725923165316E-02
(PID.TID 0000.0001) %MON trAdv_CFL_v_max              =   1.7304711641787E-02
(PID.TID 0000.0001) %MON trAdv_CFL_w_max              =   1.0746442722688E-01
(PID.TID 0000.0001) %MON advcfl_uvel_max              =   2.5702984084572E-02
(PID.TID 0000.0001) %MON advcfl_vvel_max              =   1.7564620657721E-02
(PID.TID 0000.0001) %MON advcfl_wvel_max              =   1.0151274066347E-01
(PID.TID 0000.0001) %MON advcfl_W_hf_max              =   1.0746442722688E-01
(PID.TID 0000.0001) %MON pe_b_mean                    =   5.1672496994888E-04
(PID.TID 0000.0001) %MON ke_max                       =   1.3822987583532E+00
(PID.TID 0000.0001) %MON ke_mean                      =   8.5280026876778E-04
(PID.TID 0000.0001) %MON ke_vol                       =   1.3349978769393E+18
(PID.TID 0000.0001) %MON vort_r_min                   =  -2.8653056508095E-05
(PID.TID 0000.0001) %MON vort_r_max                   =   2.5321939919569E-05
(PID.TID 0000.0001) %MON vort_a_mean                  =  -1.9727864647440E-05
(PID.TID 0000.0001) %MON vort_a_sd                    =   7.4542462352303E-05
(PID.TID 0000.0001) %MON vort_p_mean                  =  -2.1760527755546E-05
(PID.TID 0000.0001) %MON vort_p_sd                    =   9.7227206898572E-05
(PID.TID 0000.0001) %MON surfExpan_theta_mean         =  -7.0849780067130E-06
(PID.TID 0000.0001) %MON surfExpan_salt_mean          =   3.5700503992573E-08
(PID.TID 0000.0001) // =======================================================
(PID.TID 0000.0001) // End MONITOR dynamic field statistics
(PID.TID 0000.0001) // =======================================================
 cg2d: Sum(rhs),rhsMax =  -2.22765851740525E+01  2.21950263210909E-01
 cg2d: Sum(rhs),rhsMax =  -2.26311944802272E+01  2.21511729071706E-01
 cg2d: Sum(rhs),rhsMax =  -2.29956213703481E+01  2.20902864502441E-01
 cg2d: Sum(rhs),rhsMax =  -2.33571257893794E+01  2.20153370433175E-01
(PID.TID 0000.0001)      cg2d_init_res =   2.07629908175402E+00
(PID.TID 0000.0001)      cg2d_iters(min,last) =      -1      36
(PID.TID 0000.0001)      cg2d_last_res =   2.73269248066191E-05
(PID.TID 0000.0001) // =======================================================
(PID.TID 0000.0001) // Begin MONITOR dynamic field statistics
(PID.TID 0000.0001) // =======================================================
(PID.TID 0000.0001) %MON time_tsnumber                =                    88
(PID.TID 0000.0001) %MON time_secondsf                =   7.9200000000000E+04
(PID.TID 0000.0001) %MON dynstat_eta_max              =   2.2078327631123E+00
(PID.TID 0000.0001) %MON dynstat_eta_min              =  -2.3943507404632E+00
(PID.TID 0000.0001) %MON dynstat_eta_mean             =   7.3886048642819E-04
(PID.TID 0000.0001) %MON dynstat_eta_sd               =   6.2580067419662E-01
(PID.TID 0000.0001) %MON dynstat_eta_del2             =   1.1905731150418E-04
(PID.TID 0000.0001) %MON dynstat_uvel_max             =   1.2603723135974E+00
(PID.TID 0000.0001) %MON dynstat_uvel_min             =  -1.4740144156308E+00
(PID.TID 0000.0001) %MON dynstat_uvel_mean            =   7.7908882845055E-04
(PID.TID 0000.0001) %MON dynstat_uvel_sd              =   2.9231414461627E-02
(PID.TID 0000.0001) %MON dynstat_uvel_del2            =   1.6761169133029E-05
(PID.TID 0000.0001) %MON dynstat_vvel_max             =   1.1643217906721E+00
(PID.TID 0000.0001) %MON dynstat_vvel_min             =  -1.2529675226902E+00
(PID.TID 0000.0001) %MON dynstat_vvel_mean            =  -1.4599097002729E-03
(PID.TID 0000.0001) %MON dynstat_vvel_sd              =   3.1321779433320E-02
(PID.TID 0000.0001) %MON dynstat_vvel_del2            =   1.5963972481756E-05
(PID.TID 0000.0001) %MON dynstat_wvel_max             =   2.8624564726070E-03
(PID.TID 0000.0001) %MON dynstat_wvel_min             =  -3.7312834440573E-03
(PID.TID 0000.0001) %MON dynstat_wvel_mean            =   6.0039449904169E-21
(PID.TID 0000.0001) %MON dynstat_wvel_sd              =   8.4096188319304E-05
(PID.TID 0000.0001) %MON dynstat_wvel_del2            =   9.3162046590463E-08
(PID.TID 0000.0001) %MON dynstat_theta_max            =   3.2567216818447E+01
(PID.TID 0000.0001) %MON dynstat_theta_min            =  -2.0396917174339E+00
(PID.TID 0000.0001) %MON dynstat_theta_mean           =   3.5888472399276E+00
(PID.TID 0000.0001) %MON dynstat_theta_sd             =   4.4315297690719E+00
(PID.TID 0000.0001) %MON dynstat_theta_del2           =   1.1910246482274E-04
(PID.TID 0000.0001) %MON dynstat_salt_max             =   3.4565305269344E+01
(PID.TID 0000.0001) %MON dynstat_salt_min             =   2.0605622444882E+01
(PID.TID 0000.0001) %MON dynstat_salt_mean            =   3.4499995230624E+01
(PID.TID 0000.0001) %MON dynstat_salt_sd              =   3.3121917899498E-03
(PID.TID 0000.0001) %MON dynstat_salt_del2            =   1.0233230592440E-05
(PID.TID 0000.0001) %MON dynstat_sst_max              =   3.2567193227506E+01
(PID.TID 0000.0001) %MON dynstat_sst_min              =  -1.9013944370062E+00
(PID.TID 0000.0001) %MON dynstat_sst_mean             =   1.8606343818328E+01
(PID.TID 0000.0001) %MON dynstat_sst_sd               =   9.9595686407810E+00
(PID.TID 0000.0001) %MON dynstat_sst_del2             =   1.0983733893222E-03
(PID.TID 0000.0001) %MON dynstat_sss_max              =   3.4565305269344E+01
(PID.TID 0000.0001) %MON dynstat_sss_min              =   2.0605622444882E+01
(PID.TID 0000.0001) %MON dynstat_sss_mean             =   3.4496162716259E+01
(PID.TID 0000.0001) %MON dynstat_sss_sd               =   6.2711919541816E-02
(PID.TID 0000.0001) %MON dynstat_sss_del2             =   4.0166967072981E-04
(PID.TID 0000.0001) %MON forcing_qnet_max             =   3.1394597167969E+03
(PID.TID 0000.0001) %MON forcing_qnet_min             =  -6.5193894494008E+02
(PID.TID 0000.0001) %MON forcing_qnet_mean            =  -5.9685949169897E+00
(PID.TID 0000.0001) %MON forcing_qnet_sd              =   2.0695061384233E+02
(PID.TID 0000.0001) %MON forcing_qnet_del2            =   4.3860390849937E-01
(PID.TID 0000.0001) %MON forcing_qsw_max              =   0.0000000000000E+00
(PID.TID 0000.0001) %MON forcing_qsw_min              =  -4.3314408762844E+02
(PID.TID 0000.0001) %MON forcing_qsw_mean             =  -8.0498837363762E+01
(PID.TID 0000.0001) %MON forcing_qsw_sd               =   1.1589962205975E+02
(PID.TID 0000.0001) %MON forcing_qsw_del2             =   1.8173729272796E-01
(PID.TID 0000.0001) %MON forcing_empmr_max            =   1.1432563187554E-03
(PID.TID 0000.0001) %MON forcing_empmr_min            =  -1.1236874014139E-01
(PID.TID 0000.0001) %MON forcing_empmr_mean           =  -1.3074633314908E-05
(PID.TID 0000.0001) %MON forcing_empmr_sd             =   4.5021335958483E-04
(PID.TID 0000.0001) %MON forcing_empmr_del2           =   2.8062906004748E-06
(PID.TID 0000.0001) %MON forcing_fu_max               =   8.2410952448845E-01
(PID.TID 0000.0001) %MON forcing_fu_min               =  -6.3496997952461E-01
(PID.TID 0000.0001) %MON forcing_fu_mean              =   1.1117687893985E-02
(PID.TID 0000.0001) %MON forcing_fu_sd                =   9.8556839616764E-02
(PID.TID 0000.0001) %MON forcing_fu_del2              =   1.3241896285336E-04
(PID.TID 0000.0001) %MON forcing_fv_max               =   9.3309450149536E-01
(PID.TID 0000.0001) %MON forcing_fv_min               =  -7.7944055821724E-01
(PID.TID 0000.0001) %MON forcing_fv_mean              =  -8.9330627913587E-03
(PID.TID 0000.0001) %MON forcing_fv_sd                =   1.0135360758541E-01
(PID.TID 0000.0001) %MON forcing_fv_del2              =   1.1272816247772E-04
(PID.TID 0000.0001) %MON trAdv_CFL_u_max              =   2.6107618206453E-02
(PID.TID 0000.0001) %MON trAdv_CFL_v_max              =   1.6042271333579E-02
(PID.TID 0000.0001) %MON trAdv_CFL_w_max              =   1.1641961599987E-01
(PID.TID 0000.0001) %MON advcfl_uvel_max              =   2.6084338778996E-02
(PID.TID 0000.0001) %MON advcfl_vvel_max              =   1.5805634910228E-02
(PID.TID 0000.0001) %MON advcfl_wvel_max              =   1.1014460386786E-01
(PID.TID 0000.0001) %MON advcfl_W_hf_max              =   1.1641961599987E-01
(PID.TID 0000.0001) %MON pe_b_mean                    =   5.1514671756280E-04
(PID.TID 0000.0001) %MON ke_max                       =   1.1511686325035E+00
(PID.TID 0000.0001) %MON ke_mean                      =   8.8640658588873E-04
(PID.TID 0000.0001) %MON ke_vol                       =   1.3349978769393E+18
(PID.TID 0000.0001) %MON vort_r_min                   =  -2.6694973064275E-05
(PID.TID 0000.0001) %MON vort_r_max                   =   2.5367742235992E-05
(PID.TID 0000.0001) %MON vort_a_mean                  =  -1.9727864647440E-05
(PID.TID 0000.0001) %MON vort_a_sd                    =   7.4542541561417E-05
(PID.TID 0000.0001) %MON vort_p_mean                  =  -2.1760527755546E-05
(PID.TID 0000.0001) %MON vort_p_sd                    =   9.7226470209435E-05
(PID.TID 0000.0001) %MON surfExpan_theta_mean         =  -8.9488190641751E-06
(PID.TID 0000.0001) %MON surfExpan_salt_mean          =   4.0332219393508E-08
(PID.TID 0000.0001) // =======================================================
(PID.TID 0000.0001) // End MONITOR dynamic field statistics
(PID.TID 0000.0001) // =======================================================
 cg2d: Sum(rhs),rhsMax =  -2.37096152215699E+01  2.19292336929842E-01
 cg2d: Sum(rhs),rhsMax =  -2.40598887762566E+01  2.18347180237523E-01
 cg2d: Sum(rhs),rhsMax =  -2.44274670147603E+01  2.17344757924103E-01
 cg2d: Sum(rhs),rhsMax =  -2.47585649672056E+01  2.16306945200651E-01
(PID.TID 0000.0001)      cg2d_init_res =   2.27252017065352E+00
(PID.TID 0000.0001)      cg2d_iters(min,last) =      -1      37
(PID.TID 0000.0001)      cg2d_last_res =   1.97322832241490E-05
(PID.TID 0000.0001) // =======================================================
(PID.TID 0000.0001) // Begin MONITOR dynamic field statistics
(PID.TID 0000.0001) // =======================================================
(PID.TID 0000.0001) %MON time_tsnumber                =                    92
(PID.TID 0000.0001) %MON time_secondsf                =   8.2800000000000E+04
(PID.TID 0000.0001) %MON dynstat_eta_max              =   2.2086492336556E+00
(PID.TID 0000.0001) %MON dynstat_eta_min              =  -2.3000073382945E+00
(PID.TID 0000.0001) %MON dynstat_eta_mean             =   7.8319248352257E-04
(PID.TID 0000.0001) %MON dynstat_eta_sd               =   6.2143442909927E-01
(PID.TID 0000.0001) %MON dynstat_eta_del2             =   1.2360017775212E-04
(PID.TID 0000.0001) %MON dynstat_uvel_max             =   1.2391253156172E+00
(PID.TID 0000.0001) %MON dynstat_uvel_min             =  -1.4178644264269E+00
(PID.TID 0000.0001) %MON dynstat_uvel_mean            =   1.3358787377319E-03
(PID.TID 0000.0001) %MON dynstat_uvel_sd              =   3.0365770681880E-02
(PID.TID 0000.0001) %MON dynstat_uvel_del2            =   1.6840800969720E-05
(PID.TID 0000.0001) %MON dynstat_vvel_max             =   1.2015995484097E+00
(PID.TID 0000.0001) %MON dynstat_vvel_min             =  -1.0985923489623E+00
(PID.TID 0000.0001) %MON dynstat_vvel_mean            =  -1.0946729452375E-03
(PID.TID 0000.0001) %MON dynstat_vvel_sd              =   3.1436758196779E-02
(PID.TID 0000.0001) %MON dynstat_vvel_del2            =   1.6012662301740E-05
(PID.TID 0000.0001) %MON dynstat_wvel_max             =   3.1022885898609E-03
(PID.TID 0000.0001) %MON dynstat_wvel_min             =  -3.8463675209723E-03
(PID.TID 0000.0001) %MON dynstat_wvel_mean            =   9.5458405962744E-22
(PID.TID 0000.0001) %MON dynstat_wvel_sd              =   8.6034751733325E-05
(PID.TID 0000.0001) %MON dynstat_wvel_del2            =   9.3424795673301E-08
(PID.TID 0000.0001) %MON dynstat_theta_max            =   3.2557301051099E+01
(PID.TID 0000.0001) %MON dynstat_theta_min            =  -2.0394919851255E+00
(PID.TID 0000.0001) %MON dynstat_theta_mean           =   3.5888584786830E+00
(PID.TID 0000.0001) %MON dynstat_theta_sd             =   4.4315892065958E+00
(PID.TID 0000.0001) %MON dynstat_theta_del2           =   1.1899779879460E-04
(PID.TID 0000.0001) %MON dynstat_salt_max             =   3.4565632394825E+01
(PID.TID 0000.0001) %MON dynstat_salt_min             =   1.9969036737932E+01
(PID.TID 0000.0001) %MON dynstat_salt_mean            =   3.4499994909938E+01
(PID.TID 0000.0001) %MON dynstat_salt_sd              =   3.4497413081803E-03
(PID.TID 0000.0001) %MON dynstat_salt_del2            =   1.0242835320214E-05
(PID.TID 0000.0001) %MON dynstat_sst_max              =   3.2557276923194E+01
(PID.TID 0000.0001) %MON dynstat_sst_min              =  -1.8991993975996E+00
(PID.TID 0000.0001) %MON dynstat_sst_mean             =   1.8607706610866E+01
(PID.TID 0000.0001) %MON dynstat_sst_sd               =   9.9611677951097E+00
(PID.TID 0000.0001) %MON dynstat_sst_del2             =   1.0952658105981E-03
(PID.TID 0000.0001) %MON dynstat_sss_max              =   3.4565632394825E+01
(PID.TID 0000.0001) %MON dynstat_sss_min              =   1.9969036737932E+01
(PID.TID 0000.0001) %MON dynstat_sss_mean             =   3.4496018448090E+01
(PID.TID 0000.0001) %MON dynstat_sss_sd               =   6.5255491481424E-02
(PID.TID 0000.0001) %MON dynstat_sss_del2             =   4.0176551766608E-04
(PID.TID 0000.0001) %MON forcing_qnet_max             =   1.5083619384766E+03
(PID.TID 0000.0001) %MON forcing_qnet_min             =  -7.6833142089844E+02
(PID.TID 0000.0001) %MON forcing_qnet_mean            =  -1.2078391688417E+01
(PID.TID 0000.0001) %MON forcing_qnet_sd              =   2.1303382712512E+02
(PID.TID 0000.0001) %MON forcing_qnet_del2            =   3.8882236248438E-01
(PID.TID 0000.0001) %MON forcing_qsw_max              =   0.0000000000000E+00
(PID.TID 0000.0001) %MON forcing_qsw_min              =  -4.3436820567164E+02
(PID.TID 0000.0001) %MON forcing_qsw_mean             =  -8.4086288308035E+01
(PID.TID 0000.0001) %MON forcing_qsw_sd               =   1.1930085513833E+02
(PID.TID 0000.0001) %MON forcing_qsw_del2             =   1.8733486822106E-01
(PID.TID 0000.0001) %MON forcing_empmr_max            =   1.0959202190861E-03
(PID.TID 0000.0001) %MON forcing_empmr_min            =  -1.0198549926281E-01
(PID.TID 0000.0001) %MON forcing_empmr_mean           =  -1.1974913975118E-05
(PID.TID 0000.0001) %MON forcing_empmr_sd             =   4.0776976496606E-04
(PID.TID 0000.0001) %MON forcing_empmr_del2           =   2.4589737019759E-06
(PID.TID 0000.0001) %MON forcing_fu_max               =   8.2012510299683E-01
(PID.TID 0000.0001) %MON forcing_fu_min               =  -6.4240482449532E-01
(PID.TID 0000.0001) %MON forcing_fu_mean              =   1.0921407109704E-02
(PID.TID 0000.0001) %MON forcing_fu_sd                =   9.8106265186726E-02
(PID.TID 0000.0001) %MON forcing_fu_del2              =   1.3141573482704E-04
(PID.TID 0000.0001) %MON forcing_fv_max               =   9.8304003477097E-01
(PID.TID 0000.0001) %MON forcing_fv_min               =  -7.7369089756323E-01
(PID.TID 0000.0001) %MON forcing_fv_mean              =  -9.0745450308491E-03
(PID.TID 0000.0001) %MON forcing_fv_sd                =   1.0153642880650E-01
(PID.TID 0000.0001) %MON forcing_fv_del2              =   1.1302255720847E-04
(PID.TID 0000.0001) %MON trAdv_CFL_u_max              =   2.5926210868378E-02
(PID.TID 0000.0001) %MON trAdv_CFL_v_max              =   1.5114267697106E-02
(PID.TID 0000.0001) %MON trAdv_CFL_w_max              =   1.2440056045805E-01
(PID.TID 0000.0001) %MON advcfl_uvel_max              =   2.5903093196733E-02
(PID.TID 0000.0001) %MON advcfl_vvel_max              =   1.4915010509057E-02
(PID.TID 0000.0001) %MON advcfl_wvel_max              =   1.1784990292596E-01
(PID.TID 0000.0001) %MON advcfl_W_hf_max              =   1.2440056045805E-01
(PID.TID 0000.0001) %MON pe_b_mean                    =   5.0798348034529E-04
(PID.TID 0000.0001) %MON ke_max                       =   9.8984103825121E-01
(PID.TID 0000.0001) %MON ke_mean                      =   9.2259764243076E-04
(PID.TID 0000.0001) %MON ke_vol                       =   1.3349978769393E+18
(PID.TID 0000.0001) %MON vort_r_min                   =  -2.5014005213010E-05
(PID.TID 0000.0001) %MON vort_r_max                   =   2.5980899584326E-05
(PID.TID 0000.0001) %MON vort_a_mean                  =  -1.9727864647440E-05
(PID.TID 0000.0001) %MON vort_a_sd                    =   7.4542621634023E-05
(PID.TID 0000.0001) %MON vort_p_mean                  =  -2.1760527755546E-05
(PID.TID 0000.0001) %MON vort_p_sd                    =   9.7226092975969E-05
(PID.TID 0000.0001) %MON surfExpan_theta_mean         =  -8.8851415031762E-06
(PID.TID 0000.0001) %MON surfExpan_salt_mean          =   4.0128745928299E-08
(PID.TID 0000.0001) // =======================================================
(PID.TID 0000.0001) // End MONITOR dynamic field statistics
(PID.TID 0000.0001) // =======================================================
 cg2d: Sum(rhs),rhsMax =  -2.50964816650096E+01  2.15254194987135E-01
 cg2d: Sum(rhs),rhsMax =  -2.54381938625170E+01  2.14201809889158E-01
 cg2d: Sum(rhs),rhsMax =  -2.57817480019187E+01  2.13162600702346E-01
 cg2d: Sum(rhs),rhsMax =  -2.61109478868531E+01  2.12313727814823E-01
(PID.TID 0000.0001)      cg2d_init_res =   2.53478783015264E+00
(PID.TID 0000.0001)      cg2d_iters(min,last) =      -1      36
(PID.TID 0000.0001)      cg2d_last_res =   2.59732859220701E-05
(PID.TID 0000.0001) // =======================================================
(PID.TID 0000.0001) // Begin MONITOR dynamic field statistics
(PID.TID 0000.0001) // =======================================================
(PID.TID 0000.0001) %MON time_tsnumber                =                    96
(PID.TID 0000.0001) %MON time_secondsf                =   8.6400000000000E+04
(PID.TID 0000.0001) %MON dynstat_eta_max              =   2.4175532693192E+00
(PID.TID 0000.0001) %MON dynstat_eta_min              =  -1.7955829559096E+00
(PID.TID 0000.0001) %MON dynstat_eta_mean             =   8.2597267449544E-04
(PID.TID 0000.0001) %MON dynstat_eta_sd               =   6.1559610108181E-01
(PID.TID 0000.0001) %MON dynstat_eta_del2             =   1.2264766831583E-04
(PID.TID 0000.0001) %MON dynstat_uvel_max             =   1.3624146918774E+00
(PID.TID 0000.0001) %MON dynstat_uvel_min             =  -1.3016300718128E+00
(PID.TID 0000.0001) %MON dynstat_uvel_mean            =   1.5428561608898E-03
(PID.TID 0000.0001) %MON dynstat_uvel_sd              =   3.1403318522290E-02
(PID.TID 0000.0001) %MON dynstat_uvel_del2            =   1.6912172131740E-05
(PID.TID 0000.0001) %MON dynstat_vvel_max             =   1.2388114878165E+00
(PID.TID 0000.0001) %MON dynstat_vvel_min             =  -1.0706664606524E+00
(PID.TID 0000.0001) %MON dynstat_vvel_mean            =  -6.8394196110887E-04
(PID.TID 0000.0001) %MON dynstat_vvel_sd              =   3.1500555202941E-02
(PID.TID 0000.0001) %MON dynstat_vvel_del2            =   1.6062733436455E-05
(PID.TID 0000.0001) %MON dynstat_wvel_max             =   3.2802751060798E-03
(PID.TID 0000.0001) %MON dynstat_wvel_min             =  -3.9755668583932E-03
(PID.TID 0000.0001) %MON dynstat_wvel_mean            =  -2.1798495720602E-21
(PID.TID 0000.0001) %MON dynstat_wvel_sd              =   8.7194056089665E-05
(PID.TID 0000.0001) %MON dynstat_wvel_del2            =   9.3226937938153E-08
(PID.TID 0000.0001) %MON dynstat_theta_max            =   3.2547257149188E+01
(PID.TID 0000.0001) %MON dynstat_theta_min            =  -2.0393202773833E+00
(PID.TID 0000.0001) %MON dynstat_theta_mean           =   3.5888700218539E+00
(PID.TID 0000.0001) %MON dynstat_theta_sd             =   4.4316510275876E+00
(PID.TID 0000.0001) %MON dynstat_theta_del2           =   1.1889341195489E-04
(PID.TID 0000.0001) %MON dynstat_salt_max             =   3.4565959513321E+01
(PID.TID 0000.0001) %MON dynstat_salt_min             =   1.9403984623149E+01
(PID.TID 0000.0001) %MON dynstat_salt_mean            =   3.4499994599734E+01
(PID.TID 0000.0001) %MON dynstat_salt_sd              =   3.5776061806454E-03
(PID.TID 0000.0001) %MON dynstat_salt_del2            =   1.0272263532421E-05
(PID.TID 0000.0001) %MON dynstat_sst_max              =   3.2547232133353E+01
(PID.TID 0000.0001) %MON dynstat_sst_min              =  -1.8971343291747E+00
(PID.TID 0000.0001) %MON dynstat_sst_mean             =   1.8609452780322E+01
(PID.TID 0000.0001) %MON dynstat_sst_sd               =   9.9630163338750E+00
(PID.TID 0000.0001) %MON dynstat_sst_del2             =   1.0931098535919E-03
(PID.TID 0000.0001) %MON dynstat_sss_max              =   3.4565959513321E+01
(PID.TID 0000.0001) %MON dynstat_sss_min              =   1.9403984623149E+01
(PID.TID 0000.0001) %MON dynstat_sss_mean             =   3.4495881236524E+01
(PID.TID 0000.0001) %MON dynstat_sss_sd               =   6.7639121074215E-02
(PID.TID 0000.0001) %MON dynstat_sss_del2             =   4.0265391031448E-04
(PID.TID 0000.0001) %MON forcing_qnet_max             =   1.9137260742188E+03
(PID.TID 0000.0001) %MON forcing_qnet_min             =  -6.3114832753626E+02
(PID.TID 0000.0001) %MON forcing_qnet_mean            =  -1.9607906170778E+01
(PID.TID 0000.0001) %MON forcing_qnet_sd              =   2.1893258619589E+02
(PID.TID 0000.0001) %MON forcing_qnet_del2            =   4.0430302186246E-01
(PID.TID 0000.0001) %MON forcing_qsw_max              =   0.0000000000000E+00
(PID.TID 0000.0001) %MON forcing_qsw_min              =  -4.2770187809934E+02
(PID.TID 0000.0001) %MON forcing_qsw_mean             =  -8.8162048523858E+01
(PID.TID 0000.0001) %MON forcing_qsw_sd               =   1.2138022889558E+02
(PID.TID 0000.0001) %MON forcing_qsw_del2             =   1.9238946688857E-01
(PID.TID 0000.0001) %MON forcing_empmr_max            =   1.0514323366806E-03
(PID.TID 0000.0001) %MON forcing_empmr_min            =  -9.5052428543568E-02
(PID.TID 0000.0001) %MON forcing_empmr_mean           =  -1.1906266026773E-05
(PID.TID 0000.0001) %MON forcing_empmr_sd             =   3.8397054441962E-04
(PID.TID 0000.0001) %MON forcing_empmr_del2           =   2.3173512989480E-06
(PID.TID 0000.0001) %MON forcing_fu_max               =   8.2743176817894E-01
(PID.TID 0000.0001) %MON forcing_fu_min               =  -6.5802860260010E-01
(PID.TID 0000.0001) %MON forcing_fu_mean              =   1.0623426174723E-02
(PID.TID 0000.0001) %MON forcing_fu_sd                =   9.7865394464127E-02
(PID.TID 0000.0001) %MON forcing_fu_del2              =   1.3076456695502E-04
(PID.TID 0000.0001) %MON forcing_fv_max               =   1.0457605123520E+00
(PID.TID 0000.0001) %MON forcing_fv_min               =  -7.6225175240091E-01
(PID.TID 0000.0001) %MON forcing_fv_mean              =  -9.1083546271262E-03
(PID.TID 0000.0001) %MON forcing_fv_sd                =   1.0166885944905E-01
(PID.TID 0000.0001) %MON forcing_fv_del2              =   1.1368290264995E-04
(PID.TID 0000.0001) %MON trAdv_CFL_u_max              =   2.5205498112735E-02
(PID.TID 0000.0001) %MON trAdv_CFL_v_max              =   1.3949228394223E-02
(PID.TID 0000.0001) %MON trAdv_CFL_w_max              =   1.3096462206937E-01
(PID.TID 0000.0001) %MON advcfl_uvel_max              =   2.5183023080345E-02
(PID.TID 0000.0001) %MON advcfl_vvel_max              =   1.3904278663113E-02
(PID.TID 0000.0001) %MON advcfl_wvel_max              =   1.2419299486605E-01
(PID.TID 0000.0001) %MON advcfl_W_hf_max              =   1.3096462206937E-01
(PID.TID 0000.0001) %MON pe_b_mean                    =   4.9848349253001E-04
(PID.TID 0000.0001) %MON ke_max                       =   7.9878598200259E-01
(PID.TID 0000.0001) %MON ke_mean                      =   9.5536727090248E-04
(PID.TID 0000.0001) %MON ke_vol                       =   1.3349978769393E+18
(PID.TID 0000.0001) %MON vort_r_min                   =  -2.8507958645054E-05
(PID.TID 0000.0001) %MON vort_r_max                   =   3.2354915773118E-05
(PID.TID 0000.0001) %MON vort_a_mean                  =  -1.9727864647440E-05
(PID.TID 0000.0001) %MON vort_a_sd                    =   7.4542688698329E-05
(PID.TID 0000.0001) %MON vort_p_mean                  =  -2.1760527755546E-05
(PID.TID 0000.0001) %MON vort_p_sd                    =   9.7226060730652E-05
(PID.TID 0000.0001) %MON surfExpan_theta_mean         =  -6.5879960197076E-06
(PID.TID 0000.0001) %MON surfExpan_salt_mean          =   3.5256563597457E-08
(PID.TID 0000.0001) // =======================================================
(PID.TID 0000.0001) // End MONITOR dynamic field statistics
(PID.TID 0000.0001) // =======================================================
